MODEL 1
REMARK VINA RESULT:      -6.3      0.000      0.000
REMARK  Name = 
REMARK  4 active torsions:
REMARK  status: ('A' for Active; 'I' for Inactive)
REMARK    1  A    between atoms: O_2  and  C_3
REMARK    2  A    between atoms: C_8  and  O_9
REMARK    3  A    between atoms: C_15  and  C_16
REMARK    4  A    between atoms: C_16  and  C_17
REMARK                            x       y       z     vdW  Elec       q    Type
REMARK                         _______ _______ _______ _____ _____    ______ ____
ROOT
ATOM      1  C   UNL     1     -10.101  11.338  64.398  0.00  0.00    +0.172 A 
ATOM      2  C   UNL     1      -9.792  10.665  65.573  0.00  0.00    +0.172 A 
ATOM      3  C   UNL     1      -9.463  11.494  66.640  0.00  0.00    +0.037 A 
ATOM      4  C   UNL     1      -9.746  12.858  66.609  0.00  0.00    -0.008 A 
ATOM      5  C   UNL     1     -10.009  13.321  68.129  0.00  0.00    +0.087 C 
ATOM      6  N   UNL     1     -11.572  13.191  68.015  0.00  0.00    -0.269 NA
ATOM      7  C   UNL     1     -12.137  14.119  67.165  0.00  0.00    +0.077 C 
ATOM      8  C   UNL     1     -11.454  14.464  65.891  0.00  0.00    +0.044 C 
ATOM      9  C   UNL     1     -11.890  13.479  69.379  0.00  0.00    +0.080 C 
ATOM     10  C   UNL     1     -12.018  15.096  69.549  0.00  0.00    +0.074 C 
ATOM     11  C   UNL     1     -10.492  15.385  69.135  0.00  0.00    +0.153 C 
ATOM     12  O   UNL     1     -10.198  16.538  69.447  0.00  0.00    -0.296 OA
ATOM     13  C   UNL     1     -10.037  14.928  67.781  0.00  0.00    +0.085 C 
ATOM     14  C   UNL     1     -10.475  13.376  65.613  0.00  0.00    -0.020 A 
ATOM     15  C   UNL     1     -10.521  12.663  64.416  0.00  0.00    +0.036 A 
ENDROOT
BRANCH   1  17
ATOM     16  C   UNL     1      -9.320  10.632  62.543  0.00  0.00    +0.253 C 
ATOM     17  O   UNL     1      -9.952  10.599  63.224  0.00  0.00    -0.468 OA
ENDBRANCH   1  17
BRANCH   2  18
ATOM     18  O   UNL     1     -10.083   9.308  65.742  0.00  0.00    -0.468 OA
ATOM     19  C   UNL     1     -10.440   8.806  67.027  0.00  0.00    +0.253 C 
ENDBRANCH   2  18
BRANCH  10  20
ATOM     20  C   UNL     1     -11.661  15.032  71.145  0.00  0.00    +0.009 C 
BRANCH  20  21
ATOM     21  C   UNL     1     -12.704  15.705  71.936  0.00  0.00    +0.000 C 
ATOM     22  C   UNL     1     -14.120  15.250  71.685  0.00  0.00    +0.000 C 
ATOM     23  C   UNL     1     -12.383  15.972  73.368  0.00  0.00    +0.000 C 
ENDBRANCH  20  21
ENDBRANCH  10  20
TORSDOF 4
ENDMDL
MODEL 2
REMARK VINA RESULT:      -6.1      3.542      5.552
REMARK  Name = 
REMARK  4 active torsions:
REMARK  status: ('A' for Active; 'I' for Inactive)
REMARK    1  A    between atoms: O_2  and  C_3
REMARK    2  A    between atoms: C_8  and  O_9
REMARK    3  A    between atoms: C_15  and  C_16
REMARK    4  A    between atoms: C_16  and  C_17
REMARK                            x       y       z     vdW  Elec       q    Type
REMARK                         _______ _______ _______ _____ _____    ______ ____
ROOT
ATOM      1  C   UNL     1      -7.745  17.818  66.092  0.00  0.00    +0.172 A 
ATOM      2  C   UNL     1      -8.932  18.525  66.237  0.00  0.00    +0.172 A 
ATOM      3  C   UNL     1     -10.041  17.734  66.513  0.00  0.00    +0.037 A 
ATOM      4  C   UNL     1      -9.901  16.413  66.930  0.00  0.00    -0.008 A 
ATOM      5  C   UNL     1     -11.156  16.081  67.883  0.00  0.00    +0.087 C 
ATOM      6  N   UNL     1     -10.369  16.380  69.210  0.00  0.00    -0.269 NA
ATOM      7  C   UNL     1      -9.365  15.470  69.468  0.00  0.00    +0.077 C 
ATOM      8  C   UNL     1      -8.520  14.969  68.353  0.00  0.00    +0.044 C 
ATOM      9  C   UNL     1     -11.459  16.218  70.121  0.00  0.00    +0.080 C 
ATOM     10  C   UNL     1     -11.569  14.641  70.520  0.00  0.00    +0.074 C 
ATOM     11  C   UNL     1     -11.866  14.154  69.017  0.00  0.00    +0.153 C 
ATOM     12  O   UNL     1     -12.284  12.998  69.040  0.00  0.00    -0.296 OA
ATOM     13  C   UNL     1     -10.843  14.468  67.966  0.00  0.00    +0.085 C 
ATOM     14  C   UNL     1      -8.690  15.918  67.218  0.00  0.00    -0.020 A 
ATOM     15  C   UNL     1      -7.587  16.554  66.648  0.00  0.00    +0.036 A 
ENDROOT
BRANCH   1  17
ATOM     16  C   UNL     1      -5.855  18.252  65.204  0.00  0.00    +0.253 C 
ATOM     17  O   UNL     1      -6.748  18.459  65.355  0.00  0.00    -0.468 OA
ENDBRANCH   1  17
BRANCH   2  18
ATOM     18  O   UNL     1      -8.945  19.915  66.393  0.00  0.00    -0.468 OA
ATOM     19  C   UNL     1      -9.749  20.515  67.406  0.00  0.00    +0.253 C 
ENDBRANCH   2  18
BRANCH  10  20
ATOM     20  C   UNL     1     -13.160  14.765  70.883  0.00  0.00    +0.009 C 
BRANCH  20  21
ATOM     21  C   UNL     1     -13.436  14.185  72.208  0.00  0.00    +0.000 C 
ATOM     22  C   UNL     1     -13.439  12.679  72.281  0.00  0.00    +0.000 C 
ATOM     23  C   UNL     1     -12.799  14.862  73.375  0.00  0.00    +0.000 C 
ENDBRANCH  20  21
ENDBRANCH  10  20
TORSDOF 4
ENDMDL
MODEL 3
REMARK VINA RESULT:      -6.1      2.591      6.946
REMARK  Name = 
REMARK  4 active torsions:
REMARK  status: ('A' for Active; 'I' for Inactive)
REMARK    1  A    between atoms: O_2  and  C_3
REMARK    2  A    between atoms: C_8  and  O_9
REMARK    3  A    between atoms: C_15  and  C_16
REMARK    4  A    between atoms: C_16  and  C_17
REMARK                            x       y       z     vdW  Elec       q    Type
REMARK                         _______ _______ _______ _____ _____    ______ ____
ROOT
ATOM      1  C   UNL     1     -12.074  15.125  72.237  0.00  0.00    +0.172 A 
ATOM      2  C   UNL     1     -13.150  14.663  71.491  0.00  0.00    +0.172 A 
ATOM      3  C   UNL     1     -13.133  15.051  70.156  0.00  0.00    +0.037 A 
ATOM      4  C   UNL     1     -11.978  15.564  69.568  0.00  0.00    -0.008 A 
ATOM      5  C   UNL     1     -12.017  15.154  68.011  0.00  0.00    +0.087 C 
ATOM      6  N   UNL     1     -11.117  13.881  68.210  0.00  0.00    -0.269 NA
ATOM      7  C   UNL     1      -9.816  14.181  68.556  0.00  0.00    +0.077 C 
ATOM      8  C   UNL     1      -9.543  15.282  69.516  0.00  0.00    +0.044 C 
ATOM      9  C   UNL     1     -11.193  13.380  66.872  0.00  0.00    +0.080 C 
ATOM     10  C   UNL     1     -10.024  14.092  65.987  0.00  0.00    +0.074 C 
ATOM     11  C   UNL     1     -10.605  15.578  66.186  0.00  0.00    +0.153 C 
ATOM     12  O   UNL     1     -10.072  16.334  65.376  0.00  0.00    -0.296 OA
ATOM     13  C   UNL     1     -10.736  16.094  67.588  0.00  0.00    +0.085 C 
ATOM     14  C   UNL     1     -10.818  15.559  70.235  0.00  0.00    -0.020 A 
ATOM     15  C   UNL     1     -10.880  15.495  71.627  0.00  0.00    +0.036 A 
ENDROOT
BRANCH   1  17
ATOM     16  C   UNL     1     -12.476  15.907  74.179  0.00  0.00    +0.253 C 
ATOM     17  O   UNL     1     -12.282  15.195  73.615  0.00  0.00    -0.468 OA
ENDBRANCH   1  17
BRANCH   2  18
ATOM     18  O   UNL     1     -13.997  13.657  71.967  0.00  0.00    -0.468 OA
ATOM     19  C   UNL     1     -13.528  12.316  72.071  0.00  0.00    +0.253 C 
ENDBRANCH   2  18
BRANCH  10  20
ATOM     20  C   UNL     1     -10.842  13.870  64.588  0.00  0.00    +0.009 C 
BRANCH  20  21
ATOM     21  C   UNL     1     -11.051  12.435  64.332  0.00  0.00    +0.000 C 
ATOM     22  C   UNL     1     -12.289  12.078  63.548  0.00  0.00    +0.000 C 
ATOM     23  C   UNL     1      -9.841  11.640  63.977  0.00  0.00    +0.000 C 
ENDBRANCH  20  21
ENDBRANCH  10  20
TORSDOF 4
ENDMDL
MODEL 4
REMARK VINA RESULT:      -6.1      3.554      5.380
REMARK  Name = 
REMARK  4 active torsions:
REMARK  status: ('A' for Active; 'I' for Inactive)
REMARK    1  A    between atoms: O_2  and  C_3
REMARK    2  A    between atoms: C_8  and  O_9
REMARK    3  A    between atoms: C_15  and  C_16
REMARK    4  A    between atoms: C_16  and  C_17
REMARK                            x       y       z     vdW  Elec       q    Type
REMARK                         _______ _______ _______ _____ _____    ______ ____
ROOT
ATOM      1  C   UNL     1     -11.187  12.779  67.247  0.00  0.00    +0.172 A 
ATOM      2  C   UNL     1     -10.978  13.359  66.002  0.00  0.00    +0.172 A 
ATOM      3  C   UNL     1     -11.021  14.749  66.002  0.00  0.00    +0.037 A 
ATOM      4  C   UNL     1     -10.946  15.474  67.190  0.00  0.00    -0.008 A 
ATOM      5  C   UNL     1     -10.234  16.876  66.844  0.00  0.00    +0.087 C 
ATOM      6  N   UNL     1      -8.806  16.386  67.281  0.00  0.00    -0.269 NA
ATOM      7  C   UNL     1      -8.698  16.156  68.637  0.00  0.00    +0.077 C 
ATOM      8  C   UNL     1      -9.819  15.511  69.367  0.00  0.00    +0.044 C 
ATOM      9  C   UNL     1      -8.074  17.552  66.895  0.00  0.00    +0.080 C 
ATOM     10  C   UNL     1      -8.107  18.615  68.130  0.00  0.00    +0.074 C 
ATOM     11  C   UNL     1      -9.706  18.782  68.107  0.00  0.00    +0.153 C 
ATOM     12  O   UNL     1     -10.021  19.768  68.770  0.00  0.00    -0.296 OA
ATOM     13  C   UNL     1     -10.539  17.552  68.312  0.00  0.00    +0.085 C 
ATOM     14  C   UNL     1     -10.683  14.854  68.347  0.00  0.00    -0.020 A 
ATOM     15  C   UNL     1     -10.964  13.490  68.420  0.00  0.00    +0.036 A 
ENDROOT
BRANCH   1  17
ATOM     16  C   UNL     1     -11.313  10.684  67.625  0.00  0.00    +0.253 C 
ATOM     17  O   UNL     1     -11.637  11.458  67.227  0.00  0.00    -0.468 OA
ENDBRANCH   1  17
BRANCH   2  18
ATOM     18  O   UNL     1     -10.471  12.626  64.925  0.00  0.00    -0.468 OA
ATOM     19  C   UNL     1     -11.281  12.388  63.776  0.00  0.00    +0.253 C 
ENDBRANCH   2  18
BRANCH  10  20
ATOM     20  C   UNL     1      -7.875  19.894  67.136  0.00  0.00    +0.009 C 
BRANCH  20  21
ATOM     21  C   UNL     1      -6.773  20.738  67.625  0.00  0.00    +0.000 C 
ATOM     22  C   UNL     1      -6.177  20.341  68.952  0.00  0.00    +0.000 C 
ATOM     23  C   UNL     1      -5.779  21.187  66.608  0.00  0.00    +0.000 C 
ENDBRANCH  20  21
ENDBRANCH  10  20
TORSDOF 4
ENDMDL
MODEL 5
REMARK VINA RESULT:      -6.0      3.525      5.609
REMARK  Name = 
REMARK  4 active torsions:
REMARK  status: ('A' for Active; 'I' for Inactive)
REMARK    1  A    between atoms: O_2  and  C_3
REMARK    2  A    between atoms: C_8  and  O_9
REMARK    3  A    between atoms: C_15  and  C_16
REMARK    4  A    between atoms: C_16  and  C_17
REMARK                            x       y       z     vdW  Elec       q    Type
REMARK                         _______ _______ _______ _____ _____    ______ ____
ROOT
ATOM      1  C   UNL     1     -11.618  12.625  68.067  0.00  0.00    +0.172 A 
ATOM      2  C   UNL     1     -11.762  13.094  66.767  0.00  0.00    +0.172 A 
ATOM      3  C   UNL     1     -11.743  14.479  66.652  0.00  0.00    +0.037 A 
ATOM      4  C   UNL     1     -11.289  15.286  67.693  0.00  0.00    -0.008 A 
ATOM      5  C   UNL     1     -10.652  16.606  67.027  0.00  0.00    +0.087 C 
ATOM      6  N   UNL     1      -9.181  16.053  67.071  0.00  0.00    -0.269 NA
ATOM      7  C   UNL     1      -8.686  15.920  68.352  0.00  0.00    +0.077 C 
ATOM      8  C   UNL     1      -9.566  15.410  69.434  0.00  0.00    +0.044 C 
ATOM      9  C   UNL     1      -8.547  17.134  66.382  0.00  0.00    +0.080 C 
ATOM     10  C   UNL     1      -8.167  18.288  67.470  0.00  0.00    +0.074 C 
ATOM     11  C   UNL     1      -9.692  18.561  67.899  0.00  0.00    +0.153 C 
ATOM     12  O   UNL     1      -9.753  19.614  68.531  0.00  0.00    -0.296 OA
ATOM     13  C   UNL     1     -10.479  17.410  68.451  0.00  0.00    +0.085 C 
ATOM     14  C   UNL     1     -10.721  14.738  68.775  0.00  0.00    -0.020 A 
ATOM     15  C   UNL     1     -11.026  13.406  69.053  0.00  0.00    +0.036 A 
ENDROOT
BRANCH   1  17
ATOM     16  C   UNL     1     -11.722  10.585  68.679  0.00  0.00    +0.253 C 
ATOM     17  O   UNL     1     -12.109  11.340  68.302  0.00  0.00    -0.468 OA
ENDBRANCH   1  17
BRANCH   2  18
ATOM     18  O   UNL     1     -11.630  12.249  65.662  0.00  0.00    -0.468 OA
ATOM     19  C   UNL     1     -12.352  12.518  64.463  0.00  0.00    +0.253 C 
ENDBRANCH   2  18
BRANCH  10  20
ATOM     20  C   UNL     1      -8.186  19.469  66.337  0.00  0.00    +0.009 C 
BRANCH  20  21
ATOM     21  C   UNL     1      -6.838  20.031  66.152  0.00  0.00    +0.000 C 
ATOM     22  C   UNL     1      -6.459  20.380  64.734  0.00  0.00    +0.000 C 
ATOM     23  C   UNL     1      -6.381  21.013  67.177  0.00  0.00    +0.000 C 
ENDBRANCH  20  21
ENDBRANCH  10  20
TORSDOF 4
ENDMDL
MODEL 6
REMARK VINA RESULT:      -5.9      2.370      4.193
REMARK  Name = 
REMARK  4 active torsions:
REMARK  status: ('A' for Active; 'I' for Inactive)
REMARK    1  A    between atoms: O_2  and  C_3
REMARK    2  A    between atoms: C_8  and  O_9
REMARK    3  A    between atoms: C_15  and  C_16
REMARK    4  A    between atoms: C_16  and  C_17
REMARK                            x       y       z     vdW  Elec       q    Type
REMARK                         _______ _______ _______ _____ _____    ______ ____
ROOT
ATOM      1  C   UNL     1     -10.137  10.469  65.974  0.00  0.00    +0.172 A 
ATOM      2  C   UNL     1     -10.812  11.142  64.963  0.00  0.00    +0.172 A 
ATOM      3  C   UNL     1     -11.377  12.349  65.356  0.00  0.00    +0.037 A 
ATOM      4  C   UNL     1     -11.009  12.966  66.550  0.00  0.00    -0.008 A 
ATOM      5  C   UNL     1     -11.162  14.554  66.330  0.00  0.00    +0.087 C 
ATOM      6  N   UNL     1      -9.644  14.763  65.980  0.00  0.00    -0.269 NA
ATOM      7  C   UNL     1      -8.801  14.543  67.049  0.00  0.00    +0.077 C 
ATOM      8  C   UNL     1      -9.067  13.414  67.978  0.00  0.00    +0.044 C 
ATOM      9  C   UNL     1      -9.711  16.153  65.652  0.00  0.00    +0.080 C 
ATOM     10  C   UNL     1      -9.533  17.016  67.024  0.00  0.00    +0.074 C 
ATOM     11  C   UNL     1     -10.855  16.421  67.718  0.00  0.00    +0.153 C 
ATOM     12  O   UNL     1     -11.151  17.112  68.690  0.00  0.00    -0.296 OA
ATOM     13  C   UNL     1     -10.933  14.935  67.913  0.00  0.00    +0.085 C 
ATOM     14  C   UNL     1      -9.994  12.483  67.277  0.00  0.00    -0.020 A 
ATOM     15  C   UNL     1      -9.654  11.143  67.090  0.00  0.00    +0.036 A 
ENDROOT
BRANCH   1  17
ATOM     16  C   UNL     1      -9.531   8.446  66.271  0.00  0.00    +0.253 C 
ATOM     17  O   UNL     1      -9.992   9.094  65.790  0.00  0.00    -0.468 OA
ENDBRANCH   1  17
BRANCH   2  18
ATOM     18  O   UNL     1     -10.669  10.783  63.620  0.00  0.00    -0.468 OA
ATOM     19  C   UNL     1      -9.469  11.098  62.917  0.00  0.00    +0.253 C 
ENDBRANCH   2  18
BRANCH  10  20
ATOM     20  C   UNL     1     -10.334  18.303  66.409  0.00  0.00    +0.009 C 
BRANCH  20  21
ATOM     21  C   UNL     1      -9.501  19.515  66.479  0.00  0.00    +0.000 C 
ATOM     22  C   UNL     1      -9.810  20.464  67.610  0.00  0.00    +0.000 C 
ATOM     23  C   UNL     1      -8.047  19.337  66.198  0.00  0.00    +0.000 C 
ENDBRANCH  20  21
ENDBRANCH  10  20
TORSDOF 4
ENDMDL
MODEL 7
REMARK VINA RESULT:      -5.8      2.942      5.377
REMARK  Name = 
REMARK  4 active torsions:
REMARK  status: ('A' for Active; 'I' for Inactive)
REMARK    1  A    between atoms: O_2  and  C_3
REMARK    2  A    between atoms: C_8  and  O_9
REMARK    3  A    between atoms: C_15  and  C_16
REMARK    4  A    between atoms: C_16  and  C_17
REMARK                            x       y       z     vdW  Elec       q    Type
REMARK                         _______ _______ _______ _____ _____    ______ ____
ROOT
ATOM      1  C   UNL     1     -12.174  11.697  69.908  0.00  0.00    +0.172 A 
ATOM      2  C   UNL     1     -11.747  11.532  68.597  0.00  0.00    +0.172 A 
ATOM      3  C   UNL     1     -11.726  12.704  67.848  0.00  0.00    +0.037 A 
ATOM      4  C   UNL     1     -11.803  13.953  68.460  0.00  0.00    -0.008 A 
ATOM      5  C   UNL     1     -10.982  14.985  67.536  0.00  0.00    +0.087 C 
ATOM      6  N   UNL     1      -9.664  14.868  68.384  0.00  0.00    -0.269 NA
ATOM      7  C   UNL     1      -9.779  15.402  69.650  0.00  0.00    +0.077 C 
ATOM      8  C   UNL     1     -11.029  15.197  70.426  0.00  0.00    +0.044 C 
ATOM      9  C   UNL     1      -8.828  15.679  67.554  0.00  0.00    +0.080 C 
ATOM     10  C   UNL     1      -9.004  17.235  68.009  0.00  0.00    +0.074 C 
ATOM     11  C   UNL     1     -10.570  17.292  67.651  0.00  0.00    +0.153 C 
ATOM     12  O   UNL     1     -10.939  18.465  67.626  0.00  0.00    -0.296 OA
ATOM     13  C   UNL     1     -11.481  16.325  68.348  0.00  0.00    +0.085 C 
ATOM     14  C   UNL     1     -11.753  14.059  69.794  0.00  0.00    -0.020 A 
ATOM     15  C   UNL     1     -12.103  12.934  70.539  0.00  0.00    +0.036 A 
ENDROOT
BRANCH   1  17
ATOM     16  C   UNL     1     -12.987  10.394  71.388  0.00  0.00    +0.253 C 
ATOM     17  O   UNL     1     -12.676  10.551  70.526  0.00  0.00    -0.468 OA
ENDBRANCH   1  17
BRANCH   2  18
ATOM     18  O   UNL     1     -11.114  10.361  68.171  0.00  0.00    -0.468 OA
ATOM     19  C   UNL     1      -9.758  10.107  68.531  0.00  0.00    +0.253 C 
ENDBRANCH   2  18
BRANCH  10  20
ATOM     20  C   UNL     1      -8.562  17.794  66.536  0.00  0.00    +0.009 C 
BRANCH  20  21
ATOM     21  C   UNL     1      -7.519  18.825  66.665  0.00  0.00    +0.000 C 
ATOM     22  C   UNL     1      -7.401  19.479  68.019  0.00  0.00    +0.000 C 
ATOM     23  C   UNL     1      -6.216  18.539  65.998  0.00  0.00    +0.000 C 
ENDBRANCH  20  21
ENDBRANCH  10  20
TORSDOF 4
ENDMDL
MODEL 8
REMARK VINA RESULT:      -5.8      4.115      7.401
REMARK  Name = 
REMARK  4 active torsions:
REMARK  status: ('A' for Active; 'I' for Inactive)
REMARK    1  A    between atoms: O_2  and  C_3
REMARK    2  A    between atoms: C_8  and  O_9
REMARK    3  A    between atoms: C_15  and  C_16
REMARK    4  A    between atoms: C_16  and  C_17
REMARK                            x       y       z     vdW  Elec       q    Type
REMARK                         _______ _______ _______ _____ _____    ______ ____
ROOT
ATOM      1  C   UNL     1      -7.339  19.830  66.721  0.00  0.00    +0.172 A 
ATOM      2  C   UNL     1      -6.794  19.012  65.739  0.00  0.00    +0.172 A 
ATOM      3  C   UNL     1      -6.899  17.651  66.002  0.00  0.00    +0.037 A 
ATOM      4  C   UNL     1      -7.761  17.169  66.985  0.00  0.00    -0.008 A 
ATOM      5  C   UNL     1      -8.245  15.707  66.515  0.00  0.00    +0.087 C 
ATOM      6  N   UNL     1      -9.581  16.233  65.876  0.00  0.00    -0.269 NA
ATOM      7  C   UNL     1     -10.477  16.719  66.805  0.00  0.00    +0.077 C 
ATOM      8  C   UNL     1      -9.986  17.526  67.952  0.00  0.00    +0.044 C 
ATOM      9  C   UNL     1     -10.032  14.994  65.323  0.00  0.00    +0.080 C 
ATOM     10  C   UNL     1     -10.873  14.193  66.467  0.00  0.00    +0.074 C 
ATOM     11  C   UNL     1      -9.626  14.070  67.474  0.00  0.00    +0.153 C 
ATOM     12  O   UNL     1      -9.886  13.241  68.344  0.00  0.00    -0.296 OA
ATOM     13  C   UNL     1      -8.978  15.339  67.941  0.00  0.00    +0.085 C 
ATOM     14  C   UNL     1      -8.617  17.995  67.599  0.00  0.00    -0.020 A 
ATOM     15  C   UNL     1      -8.307  19.354  67.598  0.00  0.00    +0.036 A 
ENDROOT
BRANCH   1  17
ATOM     16  C   UNL     1      -6.072  21.495  67.135  0.00  0.00    +0.253 C 
ATOM     17  O   UNL     1      -6.843  21.133  66.762  0.00  0.00    -0.468 OA
ENDBRANCH   1  17
BRANCH   2  18
ATOM     18  O   UNL     1      -6.453  19.507  64.476  0.00  0.00    -0.468 OA
ATOM     19  C   UNL     1      -5.267  19.057  63.826  0.00  0.00    +0.253 C 
ENDBRANCH   2  18
BRANCH  10  20
ATOM     20  C   UNL     1     -10.569  12.739  65.781  0.00  0.00    +0.009 C 
BRANCH  20  21
ATOM     21  C   UNL     1     -11.185  12.657  64.446  0.00  0.00    +0.000 C 
ATOM     22  C   UNL     1     -10.429  11.853  63.418  0.00  0.00    +0.000 C 
ATOM     23  C   UNL     1     -12.665  12.479  64.407  0.00  0.00    +0.000 C 
ENDBRANCH  20  21
ENDBRANCH  10  20
TORSDOF 4
ENDMDL
MODEL 9
REMARK VINA RESULT:      -5.8      5.747      8.265
REMARK  Name = 
REMARK  4 active torsions:
REMARK  status: ('A' for Active; 'I' for Inactive)
REMARK    1  A    between atoms: O_2  and  C_3
REMARK    2  A    between atoms: C_8  and  O_9
REMARK    3  A    between atoms: C_15  and  C_16
REMARK    4  A    between atoms: C_16  and  C_17
REMARK                            x       y       z     vdW  Elec       q    Type
REMARK                         _______ _______ _______ _____ _____    ______ ____
ROOT
ATOM      1  C   UNL     1     -11.719  10.867  68.964  0.00  0.00    +0.172 A 
ATOM      2  C   UNL     1     -10.731  10.025  68.470  0.00  0.00    +0.172 A 
ATOM      3  C   UNL     1     -10.065   9.288  69.443  0.00  0.00    +0.037 A 
ATOM      4  C   UNL     1     -10.574   9.168  70.734  0.00  0.00    -0.008 A 
ATOM      5  C   UNL     1     -10.103   7.736  71.298  0.00  0.00    +0.087 C 
ATOM      6  N   UNL     1     -11.446   7.017  70.910  0.00  0.00    -0.269 NA
ATOM      7  C   UNL     1     -12.530   7.449  71.646  0.00  0.00    +0.077 C 
ATOM      8  C   UNL     1     -12.676   8.892  71.967  0.00  0.00    +0.044 C 
ATOM      9  C   UNL     1     -11.068   5.688  71.278  0.00  0.00    +0.080 C 
ATOM     10  C   UNL     1     -11.392   5.479  72.862  0.00  0.00    +0.074 C 
ATOM     11  C   UNL     1     -10.379   6.629  73.348  0.00  0.00    +0.153 C 
ATOM     12  O   UNL     1     -10.190   6.519  74.558  0.00  0.00    -0.296 OA
ATOM     13  C   UNL     1     -10.607   8.021  72.837  0.00  0.00    +0.085 C 
ATOM     14  C   UNL     1     -11.793   9.638  71.027  0.00  0.00    -0.020 A 
ATOM     15  C   UNL     1     -12.311  10.634  70.200  0.00  0.00    +0.036 A 
ENDROOT
BRANCH   1  17
ATOM     16  C   UNL     1     -11.758  12.825  68.120  0.00  0.00    +0.253 C 
ATOM     17  O   UNL     1     -12.056  11.945  68.145  0.00  0.00    -0.468 OA
ENDBRANCH   1  17
BRANCH   2  18
ATOM     18  O   UNL     1     -10.634   9.727  67.107  0.00  0.00    -0.468 OA
ATOM     19  C   UNL     1     -10.326   8.401  66.684  0.00  0.00    +0.253 C 
ENDBRANCH   2  18
BRANCH  10  20
ATOM     20  C   UNL     1     -10.263   4.304  73.015  0.00  0.00    +0.009 C 
BRANCH  20  21
ATOM     21  C   UNL     1     -10.739   3.243  73.918  0.00  0.00    +0.000 C 
ATOM     22  C   UNL     1     -11.222   1.978  73.253  0.00  0.00    +0.000 C 
ATOM     23  C   UNL     1      -9.947   3.027  75.163  0.00  0.00    +0.000 C 
ENDBRANCH  20  21
ENDBRANCH  10  20
TORSDOF 4
ENDMDL
