MODEL 1
REMARK VINA RESULT:      -6.2      0.000      0.000
REMARK  Name = 
REMARK  10 active torsions:
REMARK  status: ('A' for Active; 'I' for Inactive)
REMARK    1  A    between atoms: O_2  and  C_3
REMARK    2  A    between atoms: C_3  and  C_4
REMARK    3  A    between atoms: C_4  and  C_5
REMARK    4  A    between atoms: C_5  and  C_6
REMARK    5  A    between atoms: C_6  and  C_7
REMARK    6  A    between atoms: C_7  and  C_13
REMARK    7  A    between atoms: N_8  and  O_9
REMARK    8  A    between atoms: O_9  and  C_10
REMARK    9  A    between atoms: C_10  and  C_11
REMARK   10  A    between atoms: C_16  and  C_17
REMARK                            x       y       z     vdW  Elec       q    Type
REMARK                         _______ _______ _______ _____ _____    ______ ____
ROOT
ATOM      1  C   UNL     1     -11.045  16.318  67.926  0.00  0.00    +0.097 C 
ATOM      2  N   UNL     1     -10.923  17.613  67.970  0.00  0.00    -0.087 NA
ENDROOT
BRANCH   1   3
ATOM      3  C   UNL     1     -11.251  15.647  69.216  0.00  0.00    +0.017 A 
ATOM      4  C   UNL     1     -11.720  14.344  69.306  0.00  0.00    +0.001 A 
ATOM      5  C   UNL     1     -12.630  14.008  70.301  0.00  0.00    +0.004 A 
ATOM      6  C   UNL     1     -12.913  14.922  71.311  0.00  0.00    +0.071 A 
ATOM      7  C   UNL     1     -11.912  15.862  71.526  0.00  0.00    +0.004 A 
ATOM      8  C   UNL     1     -11.237  16.353  70.411  0.00  0.00    +0.001 A 
BRANCH   6   9
ATOM      9  C   UNL     1     -14.233  14.982  71.992  0.00  0.00    +0.419 C 
ATOM     10  F   UNL     1     -14.115  15.883  73.024  0.00  0.00    -0.166 F 
ATOM     11  F   UNL     1     -15.244  15.395  71.152  0.00  0.00    -0.166 F 
ATOM     12  F   UNL     1     -14.472  13.743  72.522  0.00  0.00    -0.166 F 
ENDBRANCH   6   9
ENDBRANCH   1   3
BRANCH   1  13
ATOM     13  C   UNL     1     -10.061  15.627  67.029  0.00  0.00    +0.049 C 
BRANCH  13  14
ATOM     14  C   UNL     1     -10.812  15.394  65.724  0.00  0.00    +0.009 C 
BRANCH  14  15
ATOM     15  C   UNL     1     -11.204  13.927  65.702  0.00  0.00    +0.032 C 
BRANCH  15  16
ATOM     16  C   UNL     1     -12.698  13.898  65.402  0.00  0.00    +0.142 C 
BRANCH  16  18
ATOM     17  C   UNL     1     -12.250  12.420  63.755  0.00  0.00    +0.174 C 
ATOM     18  O   UNL     1     -12.972  12.606  64.924  0.00  0.00    -0.351 OA
ENDBRANCH  16  18
ENDBRANCH  15  16
ENDBRANCH  14  15
ENDBRANCH  13  14
ENDBRANCH   1  13
BRANCH   2  19
ATOM     19  O   UNL     1     -10.424  18.335  66.913  0.00  0.00    -0.376 OA
BRANCH  19  20
ATOM     20  C   UNL     1      -9.749  19.545  67.169  0.00  0.00    +0.259 C 
BRANCH  20  21
ATOM     21  C   UNL     1      -8.271  19.449  66.900  0.00  0.00    +0.159 C 
ATOM     22  N   UNL     1      -8.083  18.430  65.882  0.00  0.00    -0.127 NA
ENDBRANCH  20  21
ENDBRANCH  19  20
ENDBRANCH   2  19
TORSDOF 10
ENDMDL
MODEL 2
REMARK VINA RESULT:      -6.2      2.189      4.397
REMARK  Name = 
REMARK  10 active torsions:
REMARK  status: ('A' for Active; 'I' for Inactive)
REMARK    1  A    between atoms: O_2  and  C_3
REMARK    2  A    between atoms: C_3  and  C_4
REMARK    3  A    between atoms: C_4  and  C_5
REMARK    4  A    between atoms: C_5  and  C_6
REMARK    5  A    between atoms: C_6  and  C_7
REMARK    6  A    between atoms: C_7  and  C_13
REMARK    7  A    between atoms: N_8  and  O_9
REMARK    8  A    between atoms: O_9  and  C_10
REMARK    9  A    between atoms: C_10  and  C_11
REMARK   10  A    between atoms: C_16  and  C_17
REMARK                            x       y       z     vdW  Elec       q    Type
REMARK                         _______ _______ _______ _____ _____    ______ ____
ROOT
ATOM      1  C   UNL     1     -11.483  13.683  67.517  0.00  0.00    +0.097 C 
ATOM      2  N   UNL     1     -12.038  12.550  67.196  0.00  0.00    -0.087 NA
ENDROOT
BRANCH   1   3
ATOM      3  C   UNL     1     -11.585  14.071  68.930  0.00  0.00    +0.017 A 
ATOM      4  C   UNL     1     -11.724  13.135  69.946  0.00  0.00    +0.001 A 
ATOM      5  C   UNL     1     -12.573  13.401  71.014  0.00  0.00    +0.004 A 
ATOM      6  C   UNL     1     -13.124  14.670  71.155  0.00  0.00    +0.071 A 
ATOM      7  C   UNL     1     -12.397  15.679  70.534  0.00  0.00    +0.004 A 
ATOM      8  C   UNL     1     -11.806  15.389  69.307  0.00  0.00    +0.001 A 
BRANCH   6   9
ATOM      9  C   UNL     1     -14.451  14.903  71.781  0.00  0.00    +0.419 C 
ATOM     10  F   UNL     1     -14.268  15.823  72.788  0.00  0.00    -0.166 F 
ATOM     11  F   UNL     1     -15.378  15.396  70.890  0.00  0.00    -0.166 F 
ATOM     12  F   UNL     1     -14.848  13.720  72.341  0.00  0.00    -0.166 F 
ENDBRANCH   6   9
ENDBRANCH   1   3
BRANCH   1  13
ATOM     13  C   UNL     1     -11.748  14.804  66.557  0.00  0.00    +0.049 C 
BRANCH  13  14
ATOM     14  C   UNL     1     -10.383  15.158  65.978  0.00  0.00    +0.009 C 
BRANCH  14  15
ATOM     15  C   UNL     1     -10.495  16.569  65.427  0.00  0.00    +0.032 C 
BRANCH  15  16
ATOM     16  C   UNL     1     -10.054  17.495  66.555  0.00  0.00    +0.142 C 
BRANCH  16  18
ATOM     17  C   UNL     1     -10.358  19.697  66.162  0.00  0.00    +0.174 C 
ATOM     18  O   UNL     1      -9.504  18.628  65.933  0.00  0.00    -0.351 OA
ENDBRANCH  16  18
ENDBRANCH  15  16
ENDBRANCH  14  15
ENDBRANCH  13  14
ENDBRANCH   1  13
BRANCH   2  19
ATOM     19  O   UNL     1     -12.295  12.209  65.891  0.00  0.00    -0.376 OA
BRANCH  19  20
ATOM     20  C   UNL     1     -11.259  11.662  65.109  0.00  0.00    +0.259 C 
BRANCH  20  21
ATOM     21  C   UNL     1     -11.207  12.249  63.725  0.00  0.00    +0.159 C 
ATOM     22  N   UNL     1     -12.467  12.937  63.502  0.00  0.00    -0.127 NA
ENDBRANCH  20  21
ENDBRANCH  19  20
ENDBRANCH   2  19
TORSDOF 10
ENDMDL
MODEL 3
REMARK VINA RESULT:      -6.1      4.020      6.183
REMARK  Name = 
REMARK  10 active torsions:
REMARK  status: ('A' for Active; 'I' for Inactive)
REMARK    1  A    between atoms: O_2  and  C_3
REMARK    2  A    between atoms: C_3  and  C_4
REMARK    3  A    between atoms: C_4  and  C_5
REMARK    4  A    between atoms: C_5  and  C_6
REMARK    5  A    between atoms: C_6  and  C_7
REMARK    6  A    between atoms: C_7  and  C_13
REMARK    7  A    between atoms: N_8  and  O_9
REMARK    8  A    between atoms: O_9  and  C_10
REMARK    9  A    between atoms: C_10  and  C_11
REMARK   10  A    between atoms: C_16  and  C_17
REMARK                            x       y       z     vdW  Elec       q    Type
REMARK                         _______ _______ _______ _____ _____    ______ ____
ROOT
ATOM      1  C   UNL     1     -11.591  12.309  68.697  0.00  0.00    +0.097 C 
ATOM      2  N   UNL     1     -11.924  11.673  67.611  0.00  0.00    -0.087 NA
ENDROOT
BRANCH   1   3
ATOM      3  C   UNL     1     -11.697  11.546  69.947  0.00  0.00    +0.017 A 
ATOM      4  C   UNL     1     -11.063  10.324  70.124  0.00  0.00    +0.001 A 
ATOM      5  C   UNL     1     -11.717   9.302  70.803  0.00  0.00    +0.004 A 
ATOM      6  C   UNL     1     -12.911   9.570  71.463  0.00  0.00    +0.071 A 
ATOM      7  C   UNL     1     -13.082  10.904  71.815  0.00  0.00    +0.004 A 
ATOM      8  C   UNL     1     -12.634  11.871  70.918  0.00  0.00    +0.001 A 
BRANCH   6   9
ATOM      9  C   UNL     1     -13.977   8.549  71.637  0.00  0.00    +0.419 C 
ATOM     10  F   UNL     1     -13.388   7.317  71.470  0.00  0.00    -0.166 F 
ATOM     11  F   UNL     1     -14.561   8.599  72.884  0.00  0.00    -0.166 F 
ATOM     12  F   UNL     1     -14.885   8.736  70.631  0.00  0.00    -0.166 F 
ENDBRANCH   6   9
ENDBRANCH   1   3
BRANCH   1  13
ATOM     13  C   UNL     1     -12.120  13.709  68.791  0.00  0.00    +0.049 C 
BRANCH  13  14
ATOM     14  C   UNL     1     -10.944  14.544  69.282  0.00  0.00    +0.009 C 
BRANCH  14  15
ATOM     15  C   UNL     1     -11.514  15.878  69.733  0.00  0.00    +0.032 C 
BRANCH  15  16
ATOM     16  C   UNL     1     -11.891  15.699  71.199  0.00  0.00    +0.142 C 
BRANCH  16  18
ATOM     17  C   UNL     1     -13.702  15.458  72.523  0.00  0.00    +0.174 C 
ATOM     18  O   UNL     1     -13.284  15.861  71.264  0.00  0.00    -0.351 OA
ENDBRANCH  16  18
ENDBRANCH  15  16
ENDBRANCH  14  15
ENDBRANCH  13  14
ENDBRANCH   1  13
BRANCH   2  19
ATOM     19  O   UNL     1     -12.173  12.329  66.431  0.00  0.00    -0.376 OA
BRANCH  19  20
ATOM     20  C   UNL     1     -11.373  12.043  65.307  0.00  0.00    +0.259 C 
BRANCH  20  21
ATOM     21  C   UNL     1     -11.788  12.823  64.089  0.00  0.00    +0.159 C 
ATOM     22  N   UNL     1     -12.855  12.078  63.444  0.00  0.00    -0.127 NA
ENDBRANCH  20  21
ENDBRANCH  19  20
ENDBRANCH   2  19
TORSDOF 10
ENDMDL
MODEL 4
REMARK VINA RESULT:      -5.9      3.690      5.861
REMARK  Name = 
REMARK  10 active torsions:
REMARK  status: ('A' for Active; 'I' for Inactive)
REMARK    1  A    between atoms: O_2  and  C_3
REMARK    2  A    between atoms: C_3  and  C_4
REMARK    3  A    between atoms: C_4  and  C_5
REMARK    4  A    between atoms: C_5  and  C_6
REMARK    5  A    between atoms: C_6  and  C_7
REMARK    6  A    between atoms: C_7  and  C_13
REMARK    7  A    between atoms: N_8  and  O_9
REMARK    8  A    between atoms: O_9  and  C_10
REMARK    9  A    between atoms: C_10  and  C_11
REMARK   10  A    between atoms: C_16  and  C_17
REMARK                            x       y       z     vdW  Elec       q    Type
REMARK                         _______ _______ _______ _____ _____    ______ ____
ROOT
ATOM      1  C   UNL     1     -10.700  15.579  68.070  0.00  0.00    +0.097 C 
ATOM      2  N   UNL     1     -10.503  16.687  67.415  0.00  0.00    -0.087 NA
ENDROOT
BRANCH   1   3
ATOM      3  C   UNL     1     -10.571  14.341  67.292  0.00  0.00    +0.017 A 
ATOM      4  C   UNL     1      -9.748  14.248  66.178  0.00  0.00    +0.001 A 
ATOM      5  C   UNL     1     -10.174  13.533  65.065  0.00  0.00    +0.004 A 
ATOM      6  C   UNL     1     -11.328  12.759  65.146  0.00  0.00    +0.071 A 
ATOM      7  C   UNL     1     -11.661  12.366  66.437  0.00  0.00    +0.004 A 
ATOM      8  C   UNL     1     -11.451  13.280  67.466  0.00  0.00    +0.001 A 
BRANCH   6   9
ATOM      9  C   UNL     1     -12.208  12.508  63.975  0.00  0.00    +0.419 C 
ATOM     10  F   UNL     1     -13.451  12.181  64.466  0.00  0.00    -0.166 F 
ATOM     11  F   UNL     1     -12.326  13.608  63.155  0.00  0.00    -0.166 F 
ATOM     12  F   UNL     1     -11.703  11.421  63.314  0.00  0.00    -0.166 F 
ENDBRANCH   6   9
ENDBRANCH   1   3
BRANCH   1  13
ATOM     13  C   UNL     1     -11.881  15.600  68.993  0.00  0.00    +0.049 C 
BRANCH  13  14
ATOM     14  C   UNL     1     -11.289  15.493  70.394  0.00  0.00    +0.009 C 
BRANCH  14  15
ATOM     15  C   UNL     1     -12.228  14.612  71.198  0.00  0.00    +0.032 C 
BRANCH  15  16
ATOM     16  C   UNL     1     -12.679  15.454  72.386  0.00  0.00    +0.142 C 
BRANCH  16  18
ATOM     17  C   UNL     1     -14.717  14.809  71.664  0.00  0.00    +0.174 C 
ATOM     18  O   UNL     1     -13.972  15.904  72.075  0.00  0.00    -0.351 OA
ENDBRANCH  16  18
ENDBRANCH  15  16
ENDBRANCH  14  15
ENDBRANCH  13  14
ENDBRANCH   1  13
BRANCH   2  19
ATOM     19  O   UNL     1     -10.886  17.907  67.915  0.00  0.00    -0.376 OA
BRANCH  19  20
ATOM     20  C   UNL     1      -9.897  18.864  68.216  0.00  0.00    +0.259 C 
BRANCH  20  21
ATOM     21  C   UNL     1     -10.123  20.171  67.505  0.00  0.00    +0.159 C 
ATOM     22  N   UNL     1     -10.260  19.873  66.090  0.00  0.00    -0.127 NA
ENDBRANCH  20  21
ENDBRANCH  19  20
ENDBRANCH   2  19
TORSDOF 10
ENDMDL
MODEL 5
REMARK VINA RESULT:      -5.9      4.167      6.221
REMARK  Name = 
REMARK  10 active torsions:
REMARK  status: ('A' for Active; 'I' for Inactive)
REMARK    1  A    between atoms: O_2  and  C_3
REMARK    2  A    between atoms: C_3  and  C_4
REMARK    3  A    between atoms: C_4  and  C_5
REMARK    4  A    between atoms: C_5  and  C_6
REMARK    5  A    between atoms: C_6  and  C_7
REMARK    6  A    between atoms: C_7  and  C_13
REMARK    7  A    between atoms: N_8  and  O_9
REMARK    8  A    between atoms: O_9  and  C_10
REMARK    9  A    between atoms: C_10  and  C_11
REMARK   10  A    between atoms: C_16  and  C_17
REMARK                            x       y       z     vdW  Elec       q    Type
REMARK                         _______ _______ _______ _____ _____    ______ ____
ROOT
ATOM      1  C   UNL     1     -10.951  15.007  68.297  0.00  0.00    +0.097 C 
ATOM      2  N   UNL     1     -11.132  16.208  67.828  0.00  0.00    -0.087 NA
ENDROOT
BRANCH   1   3
ATOM      3  C   UNL     1     -11.608  13.922  67.558  0.00  0.00    +0.017 A 
ATOM      4  C   UNL     1     -11.327  12.585  67.800  0.00  0.00    +0.001 A 
ATOM      5  C   UNL     1     -11.243  11.695  66.735  0.00  0.00    +0.004 A 
ATOM      6  C   UNL     1     -11.630  12.107  65.464  0.00  0.00    +0.071 A 
ATOM      7  C   UNL     1     -12.525  13.171  65.457  0.00  0.00    +0.004 A 
ATOM      8  C   UNL     1     -12.348  14.171  66.409  0.00  0.00    +0.001 A 
BRANCH   6   9
ATOM      9  C   UNL     1     -11.020  11.560  64.224  0.00  0.00    +0.419 C 
ATOM     10  F   UNL     1     -10.056  12.454  63.819  0.00  0.00    -0.166 F 
ATOM     11  F   UNL     1     -10.434  10.329  64.420  0.00  0.00    -0.166 F 
ATOM     12  F   UNL     1     -12.003  11.521  63.272  0.00  0.00    -0.166 F 
ENDBRANCH   6   9
ENDBRANCH   1   3
BRANCH   1  13
ATOM     13  C   UNL     1     -11.075  14.892  69.787  0.00  0.00    +0.049 C 
BRANCH  13  14
ATOM     14  C   UNL     1     -12.564  15.038  70.072  0.00  0.00    +0.009 C 
BRANCH  14  15
ATOM     15  C   UNL     1     -12.686  15.713  71.427  0.00  0.00    +0.032 C 
BRANCH  15  16
ATOM     16  C   UNL     1     -13.864  15.042  72.125  0.00  0.00    +0.142 C 
BRANCH  16  18
ATOM     17  C   UNL     1     -12.506  15.390  73.893  0.00  0.00    +0.174 C 
ATOM     18  O   UNL     1     -13.343  14.462  73.294  0.00  0.00    -0.351 OA
ENDBRANCH  16  18
ENDBRANCH  15  16
ENDBRANCH  14  15
ENDBRANCH  13  14
ENDBRANCH   1  13
BRANCH   2  19
ATOM     19  O   UNL     1     -10.850  17.329  68.569  0.00  0.00    -0.376 OA
BRANCH  19  20
ATOM     20  C   UNL     1      -9.946  18.280  68.055  0.00  0.00    +0.259 C 
BRANCH  20  21
ATOM     21  C   UNL     1     -10.628  19.343  67.238  0.00  0.00    +0.159 C 
ATOM     22  N   UNL     1     -10.257  19.124  65.850  0.00  0.00    -0.127 NA
ENDBRANCH  20  21
ENDBRANCH  19  20
ENDBRANCH   2  19
TORSDOF 10
ENDMDL
MODEL 6
REMARK VINA RESULT:      -5.8      2.064      4.490
REMARK  Name = 
REMARK  10 active torsions:
REMARK  status: ('A' for Active; 'I' for Inactive)
REMARK    1  A    between atoms: O_2  and  C_3
REMARK    2  A    between atoms: C_3  and  C_4
REMARK    3  A    between atoms: C_4  and  C_5
REMARK    4  A    between atoms: C_5  and  C_6
REMARK    5  A    between atoms: C_6  and  C_7
REMARK    6  A    between atoms: C_7  and  C_13
REMARK    7  A    between atoms: N_8  and  O_9
REMARK    8  A    between atoms: O_9  and  C_10
REMARK    9  A    between atoms: C_10  and  C_11
REMARK   10  A    between atoms: C_16  and  C_17
REMARK                            x       y       z     vdW  Elec       q    Type
REMARK                         _______ _______ _______ _____ _____    ______ ____
ROOT
ATOM      1  C   UNL     1     -11.098  14.920  67.609  0.00  0.00    +0.097 C 
ATOM      2  N   UNL     1     -11.946  14.246  66.887  0.00  0.00    -0.087 NA
ENDROOT
BRANCH   1   3
ATOM      3  C   UNL     1     -11.274  14.823  69.064  0.00  0.00    +0.017 A 
ATOM      4  C   UNL     1     -11.583  13.626  69.694  0.00  0.00    +0.001 A 
ATOM      5  C   UNL     1     -12.486  13.619  70.752  0.00  0.00    +0.004 A 
ATOM      6  C   UNL     1     -12.919  14.824  71.293  0.00  0.00    +0.071 A 
ATOM      7  C   UNL     1     -12.051  15.889  71.084  0.00  0.00    +0.004 A 
ATOM      8  C   UNL     1     -11.396  15.957  69.857  0.00  0.00    +0.001 A 
BRANCH   6   9
ATOM      9  C   UNL     1     -14.264  14.990  71.905  0.00  0.00    +0.419 C 
ATOM     10  F   UNL     1     -14.137  15.916  72.915  0.00  0.00    -0.166 F 
ATOM     11  F   UNL     1     -15.204  15.439  71.004  0.00  0.00    -0.166 F 
ATOM     12  F   UNL     1     -14.608  13.787  72.460  0.00  0.00    -0.166 F 
ENDBRANCH   6   9
ENDBRANCH   1   3
BRANCH   1  13
ATOM     13  C   UNL     1     -10.825  16.311  67.119  0.00  0.00    +0.049 C 
BRANCH  13  14
ATOM     14  C   UNL     1      -9.349  16.313  66.740  0.00  0.00    +0.009 C 
BRANCH  14  15
ATOM     15  C   UNL     1      -8.852  17.735  66.928  0.00  0.00    +0.032 C 
BRANCH  15  16
ATOM     16  C   UNL     1      -8.406  17.835  68.383  0.00  0.00    +0.142 C 
BRANCH  16  18
ATOM     17  C   UNL     1      -9.784  19.622  68.402  0.00  0.00    +0.174 C 
ATOM     18  O   UNL     1      -8.507  19.192  68.728  0.00  0.00    -0.351 OA
ENDBRANCH  16  18
ENDBRANCH  15  16
ENDBRANCH  14  15
ENDBRANCH  13  14
ENDBRANCH   1  13
BRANCH   2  19
ATOM     19  O   UNL     1     -12.105  14.479  65.543  0.00  0.00    -0.376 OA
BRANCH  19  20
ATOM     20  C   UNL     1     -11.348  13.725  64.624  0.00  0.00    +0.259 C 
BRANCH  20  21
ATOM     21  C   UNL     1     -11.788  12.288  64.554  0.00  0.00    +0.159 C 
ATOM     22  N   UNL     1     -13.070  12.263  63.871  0.00  0.00    -0.127 NA
ENDBRANCH  20  21
ENDBRANCH  19  20
ENDBRANCH   2  19
TORSDOF 10
ENDMDL
MODEL 7
REMARK VINA RESULT:      -5.8      3.730      5.712
REMARK  Name = 
REMARK  10 active torsions:
REMARK  status: ('A' for Active; 'I' for Inactive)
REMARK    1  A    between atoms: O_2  and  C_3
REMARK    2  A    between atoms: C_3  and  C_4
REMARK    3  A    between atoms: C_4  and  C_5
REMARK    4  A    between atoms: C_5  and  C_6
REMARK    5  A    between atoms: C_6  and  C_7
REMARK    6  A    between atoms: C_7  and  C_13
REMARK    7  A    between atoms: N_8  and  O_9
REMARK    8  A    between atoms: O_9  and  C_10
REMARK    9  A    between atoms: C_10  and  C_11
REMARK   10  A    between atoms: C_16  and  C_17
REMARK                            x       y       z     vdW  Elec       q    Type
REMARK                         _______ _______ _______ _____ _____    ______ ____
ROOT
ATOM      1  C   UNL     1     -11.129  14.804  68.650  0.00  0.00    +0.097 C 
ATOM      2  N   UNL     1     -11.729  15.190  69.738  0.00  0.00    -0.087 NA
ENDROOT
BRANCH   1   3
ATOM      3  C   UNL     1     -10.233  15.787  68.026  0.00  0.00    +0.017 A 
ATOM      4  C   UNL     1      -9.465  16.667  68.775  0.00  0.00    +0.001 A 
ATOM      5  C   UNL     1      -9.309  17.980  68.346  0.00  0.00    +0.004 A 
ATOM      6  C   UNL     1      -9.757  18.348  67.082  0.00  0.00    +0.071 A 
ATOM      7  C   UNL     1      -9.852  17.293  66.181  0.00  0.00    +0.004 A 
ATOM      8  C   UNL     1     -10.295  16.066  66.668  0.00  0.00    +0.001 A 
BRANCH   6   9
ATOM      9  C   UNL     1     -10.239  19.719  66.769  0.00  0.00    +0.419 C 
ATOM     10  F   UNL     1      -9.307  20.599  67.268  0.00  0.00    -0.166 F 
ATOM     11  F   UNL     1     -10.380  19.936  65.416  0.00  0.00    -0.166 F 
ATOM     12  F   UNL     1     -11.413  19.900  67.448  0.00  0.00    -0.166 F 
ENDBRANCH   6   9
ENDBRANCH   1   3
BRANCH   1  13
ATOM     13  C   UNL     1     -12.006  14.075  67.676  0.00  0.00    +0.049 C 
BRANCH  13  14
ATOM     14  C   UNL     1     -11.471  12.648  67.654  0.00  0.00    +0.009 C 
BRANCH  14  15
ATOM     15  C   UNL     1     -11.534  12.180  66.211  0.00  0.00    +0.032 C 
BRANCH  15  16
ATOM     16  C   UNL     1     -12.424  13.182  65.484  0.00  0.00    +0.142 C 
BRANCH  16  18
ATOM     17  C   UNL     1     -12.366  12.127  63.490  0.00  0.00    +0.174 C 
ATOM     18  O   UNL     1     -13.182  12.435  64.568  0.00  0.00    -0.351 OA
ENDBRANCH  16  18
ENDBRANCH  15  16
ENDBRANCH  14  15
ENDBRANCH  13  14
ENDBRANCH   1  13
BRANCH   2  19
ATOM     19  O   UNL     1     -12.811  14.517  70.251  0.00  0.00    -0.376 OA
BRANCH  19  20
ATOM     20  C   UNL     1     -12.793  14.124  71.604  0.00  0.00    +0.259 C 
BRANCH  20  21
ATOM     21  C   UNL     1     -13.616  15.030  72.480  0.00  0.00    +0.159 C 
ATOM     22  N   UNL     1     -14.721  15.520  71.674  0.00  0.00    -0.127 NA
ENDBRANCH  20  21
ENDBRANCH  19  20
ENDBRANCH   2  19
TORSDOF 10
ENDMDL
MODEL 8
REMARK VINA RESULT:      -5.6      4.091      6.091
REMARK  Name = 
REMARK  10 active torsions:
REMARK  status: ('A' for Active; 'I' for Inactive)
REMARK    1  A    between atoms: O_2  and  C_3
REMARK    2  A    between atoms: C_3  and  C_4
REMARK    3  A    between atoms: C_4  and  C_5
REMARK    4  A    between atoms: C_5  and  C_6
REMARK    5  A    between atoms: C_6  and  C_7
REMARK    6  A    between atoms: C_7  and  C_13
REMARK    7  A    between atoms: N_8  and  O_9
REMARK    8  A    between atoms: O_9  and  C_10
REMARK    9  A    between atoms: C_10  and  C_11
REMARK   10  A    between atoms: C_16  and  C_17
REMARK                            x       y       z     vdW  Elec       q    Type
REMARK                         _______ _______ _______ _____ _____    ______ ____
ROOT
ATOM      1  C   UNL     1     -10.943  15.990  68.392  0.00  0.00    +0.097 C 
ATOM      2  N   UNL     1     -11.488  16.525  69.446  0.00  0.00    -0.087 NA
ENDROOT
BRANCH   1   3
ATOM      3  C   UNL     1     -10.218  16.910  67.506  0.00  0.00    +0.017 A 
ATOM      4  C   UNL     1      -8.984  16.590  66.958  0.00  0.00    +0.001 A 
ATOM      5  C   UNL     1      -8.000  17.567  66.861  0.00  0.00    +0.004 A 
ATOM      6  C   UNL     1      -8.320  18.893  67.133  0.00  0.00    +0.071 A 
ATOM      7  C   UNL     1      -9.667  19.198  66.979  0.00  0.00    +0.004 A 
ATOM      8  C   UNL     1     -10.596  18.239  67.374  0.00  0.00    +0.001 A 
BRANCH   6   9
ATOM      9  C   UNL     1      -7.335  19.858  67.688  0.00  0.00    +0.419 C 
ATOM     10  F   UNL     1      -6.091  19.459  67.258  0.00  0.00    -0.166 F 
ATOM     11  F   UNL     1      -7.560  21.149  67.263  0.00  0.00    -0.166 F 
ATOM     12  F   UNL     1      -7.380  19.744  69.051  0.00  0.00    -0.166 F 
ENDBRANCH   6   9
ENDBRANCH   1   3
BRANCH   1  13
ATOM     13  C   UNL     1     -11.814  15.006  67.669  0.00  0.00    +0.049 C 
BRANCH  13  14
ATOM     14  C   UNL     1     -11.004  13.716  67.631  0.00  0.00    +0.009 C 
BRANCH  14  15
ATOM     15  C   UNL     1     -11.778  12.740  66.763  0.00  0.00    +0.032 C 
BRANCH  15  16
ATOM     16  C   UNL     1     -12.428  13.577  65.668  0.00  0.00    +0.142 C 
BRANCH  16  18
ATOM     17  C   UNL     1     -12.224  12.278  63.834  0.00  0.00    +0.174 C 
ATOM     18  O   UNL     1     -13.101  12.670  64.833  0.00  0.00    -0.351 OA
ENDBRANCH  16  18
ENDBRANCH  15  16
ENDBRANCH  14  15
ENDBRANCH  13  14
ENDBRANCH   1  13
BRANCH   2  19
ATOM     19  O   UNL     1     -12.441  15.869  70.186  0.00  0.00    -0.376 OA
BRANCH  19  20
ATOM     20  C   UNL     1     -12.324  15.850  71.590  0.00  0.00    +0.259 C 
BRANCH  20  21
ATOM     21  C   UNL     1     -13.470  15.138  72.256  0.00  0.00    +0.159 C 
ATOM     22  N   UNL     1     -14.675  15.481  71.519  0.00  0.00    -0.127 NA
ENDBRANCH  20  21
ENDBRANCH  19  20
ENDBRANCH   2  19
TORSDOF 10
ENDMDL
MODEL 9
REMARK VINA RESULT:      -5.6      4.023      6.638
REMARK  Name = 
REMARK  10 active torsions:
REMARK  status: ('A' for Active; 'I' for Inactive)
REMARK    1  A    between atoms: O_2  and  C_3
REMARK    2  A    between atoms: C_3  and  C_4
REMARK    3  A    between atoms: C_4  and  C_5
REMARK    4  A    between atoms: C_5  and  C_6
REMARK    5  A    between atoms: C_6  and  C_7
REMARK    6  A    between atoms: C_7  and  C_13
REMARK    7  A    between atoms: N_8  and  O_9
REMARK    8  A    between atoms: O_9  and  C_10
REMARK    9  A    between atoms: C_10  and  C_11
REMARK   10  A    between atoms: C_16  and  C_17
REMARK                            x       y       z     vdW  Elec       q    Type
REMARK                         _______ _______ _______ _____ _____    ______ ____
ROOT
ATOM      1  C   UNL     1     -11.303  15.694  68.534  0.00  0.00    +0.097 C 
ATOM      2  N   UNL     1     -12.038  15.422  69.573  0.00  0.00    -0.087 NA
ENDROOT
BRANCH   1   3
ATOM      3  C   UNL     1     -10.970  14.557  67.667  0.00  0.00    +0.017 A 
ATOM      4  C   UNL     1      -9.999  14.639  66.679  0.00  0.00    +0.001 A 
ATOM      5  C   UNL     1     -10.210  14.019  65.452  0.00  0.00    +0.004 A 
ATOM      6  C   UNL     1     -11.297  13.166  65.293  0.00  0.00    +0.071 A 
ATOM      7  C   UNL     1     -11.770  12.616  66.479  0.00  0.00    +0.004 A 
ATOM      8  C   UNL     1     -11.775  13.427  67.610  0.00  0.00    +0.001 A 
BRANCH   6   9
ATOM      9  C   UNL     1     -11.987  12.982  63.989  0.00  0.00    +0.419 C 
ATOM     10  F   UNL     1     -13.015  12.092  64.197  0.00  0.00    -0.166 F 
ATOM     11  F   UNL     1     -12.507  14.157  63.494  0.00  0.00    -0.166 F 
ATOM     12  F   UNL     1     -11.086  12.411  63.131  0.00  0.00    -0.166 F 
ENDBRANCH   6   9
ENDBRANCH   1   3
BRANCH   1  13
ATOM     13  C   UNL     1     -10.148  16.611  68.807  0.00  0.00    +0.049 C 
BRANCH  13  14
ATOM     14  C   UNL     1     -10.423  17.852  67.965  0.00  0.00    +0.009 C 
BRANCH  14  15
ATOM     15  C   UNL     1      -9.839  19.031  68.723  0.00  0.00    +0.032 C 
BRANCH  15  16
ATOM     16  C   UNL     1      -8.533  19.377  68.017  0.00  0.00    +0.142 C 
BRANCH  16  18
ATOM     17  C   UNL     1      -7.665  19.527  65.939  0.00  0.00    +0.174 C 
ATOM     18  O   UNL     1      -8.851  19.513  66.656  0.00  0.00    -0.351 OA
ENDBRANCH  16  18
ENDBRANCH  15  16
ENDBRANCH  14  15
ENDBRANCH  13  14
ENDBRANCH   1  13
BRANCH   2  19
ATOM     19  O   UNL     1     -12.168  16.298  70.622  0.00  0.00    -0.376 OA
BRANCH  19  20
ATOM     20  C   UNL     1     -12.267  15.788  71.932  0.00  0.00    +0.259 C 
BRANCH  20  21
ATOM     21  C   UNL     1     -13.685  15.472  72.324  0.00  0.00    +0.159 C 
ATOM     22  N   UNL     1     -13.725  14.069  72.702  0.00  0.00    -0.127 NA
ENDBRANCH  20  21
ENDBRANCH  19  20
ENDBRANCH   2  19
TORSDOF 10
ENDMDL
