MODEL 1
REMARK VINA RESULT:      -8.3      0.000      0.000
REMARK  Name = 
REMARK  8 active torsions:
REMARK  status: ('A' for Active; 'I' for Inactive)
REMARK    1  A    between atoms: O_2  and  C_3
REMARK    2  A    between atoms: C_3  and  C_5
REMARK    3  A    between atoms: C_15  and  N_16
REMARK    4  A    between atoms: C_15  and  C_35
REMARK    5  A    between atoms: N_16  and  C_17
REMARK    6  A    between atoms: C_20  and  N_21
REMARK    7  A    between atoms: C_23  and  C_25
REMARK    8  A    between atoms: C_25  and  N_26
REMARK                            x       y       z     vdW  Elec       q    Type
REMARK                         _______ _______ _______ _____ _____    ______ ____
ROOT
ATOM      1  C   UNL     1     -12.415   9.490  71.207  0.00  0.00    +0.077 A 
ATOM      2  C   UNL     1     -11.578   9.501  70.110  0.00  0.00    +0.023 A 
ATOM      3  C   UNL     1     -11.213  10.746  69.616  0.00  0.00    +0.074 A 
ATOM      4  N   UNL     1     -10.404  11.045  68.474  0.00  0.00    -0.175 NA
ATOM      5  C   UNL     1     -10.426  12.461  68.279  0.00  0.00    +0.270 C 
ATOM      6  C   UNL     1     -11.317  13.032  69.285  0.00  0.00    +0.072 C 
ATOM      7  C   UNL     1     -11.711  14.304  69.345  0.00  0.00    +0.075 C 
ATOM      8  O   UNL     1      -9.778  13.125  67.427  0.00  0.00    -0.268 OA
ATOM      9  C   UNL     1     -11.697  11.925  70.170  0.00  0.00    +0.021 A 
ATOM     10  C   UNL     1     -12.582  11.860  71.239  0.00  0.00    +0.002 A 
ATOM     11  C   UNL     1     -13.152  10.619  71.494  0.00  0.00    +0.007 A 
ENDROOT
BRANCH   7  12
ATOM     12  C   UNL     1     -12.268  14.763  70.599  0.00  0.00    +0.015 A 
ATOM     13  C   UNL     1     -11.480  15.083  71.684  0.00  0.00    +0.001 A 
ATOM     14  C   UNL     1     -12.010  15.415  72.912  0.00  0.00    +0.000 A 
ATOM     15  C   UNL     1     -13.337  15.802  72.933  0.00  0.00    +0.000 A 
ATOM     16  C   UNL     1     -14.195  15.328  71.964  0.00  0.00    +0.000 A 
ATOM     17  C   UNL     1     -13.636  14.865  70.779  0.00  0.00    +0.001 A 
ENDBRANCH   7  12
BRANCH   1  18
ATOM     18  C   UNL     1     -12.431   8.294  72.059  0.00  0.00    +0.341 C 
ATOM     19  O   UNL     1     -11.464   8.059  72.839  0.00  0.00    -0.245 OA
BRANCH  18  21
ATOM     20  C   UNL     1     -14.649   7.380  71.716  0.00  0.00    +0.256 C 
ATOM     21  O   UNL     1     -13.245   7.216  71.748  0.00  0.00    -0.441 OA
ENDBRANCH  18  21
ENDBRANCH   1  18
BRANCH   7  22
ATOM     22  N   UNL     1     -11.771  15.010  68.125  0.00  0.00    -0.212 NA
BRANCH  22  23
ATOM     23  C   UNL     1     -11.067  16.200  67.841  0.00  0.00    +0.071 A 
ATOM     24  C   UNL     1     -10.585  16.917  68.927  0.00  0.00    +0.018 A 
ATOM     25  C   UNL     1      -9.619  17.873  68.739  0.00  0.00    +0.016 A 
ATOM     26  C   UNL     1      -9.191  18.153  67.451  0.00  0.00    +0.054 A 
ATOM     27  C   UNL     1     -10.001  17.723  66.408  0.00  0.00    +0.016 A 
ATOM     28  C   UNL     1     -11.012  16.791  66.599  0.00  0.00    +0.018 A 
BRANCH  26  29
ATOM     29  N   UNL     1      -7.903  18.724  67.195  0.00  0.00    -0.256 N 
ATOM     30  C   UNL     1      -6.919  17.893  66.569  0.00  0.00    +0.246 C 
ATOM     31  O   UNL     1      -6.814  18.029  65.314  0.00  0.00    -0.273 OA
ATOM     32  C   UNL     1      -7.856  20.137  66.832  0.00  0.00    +0.120 C 
BRANCH  30  33
ATOM     33  C   UNL     1      -6.630  16.541  67.115  0.00  0.00    +0.159 C 
BRANCH  33  34
ATOM     34  N   UNL     1      -5.743  16.578  68.250  0.00  0.00    -0.263 NA
ATOM     35  C   UNL     1      -6.435  16.425  69.513  0.00  0.00    +0.090 C 
ATOM     36  C   UNL     1      -5.374  16.139  70.568  0.00  0.00    +0.090 C 
ATOM     37  N   UNL     1      -4.403  17.208  70.637  0.00  0.00    -0.269 NA
ATOM     38  C   UNL     1      -5.091  18.366  71.205  0.00  0.00    +0.090 C 
ATOM     39  C   UNL     1      -3.850  17.548  69.350  0.00  0.00    +0.090 C 
ATOM     40  C   UNL     1      -4.925  17.764  68.298  0.00  0.00    +0.090 C 
ENDBRANCH  33  34
ENDBRANCH  30  33
ENDBRANCH  26  29
ENDBRANCH  22  23
ENDBRANCH   7  22
TORSDOF 8
ENDMDL
MODEL 2
REMARK VINA RESULT:      -8.3      2.760      4.465
REMARK  Name = 
REMARK  8 active torsions:
REMARK  status: ('A' for Active; 'I' for Inactive)
REMARK    1  A    between atoms: O_2  and  C_3
REMARK    2  A    between atoms: C_3  and  C_5
REMARK    3  A    between atoms: C_15  and  N_16
REMARK    4  A    between atoms: C_15  and  C_35
REMARK    5  A    between atoms: N_16  and  C_17
REMARK    6  A    between atoms: C_20  and  N_21
REMARK    7  A    between atoms: C_23  and  C_25
REMARK    8  A    between atoms: C_25  and  N_26
REMARK                            x       y       z     vdW  Elec       q    Type
REMARK                         _______ _______ _______ _____ _____    ______ ____
ROOT
ATOM      1  C   UNL     1     -12.605  10.102  71.246  0.00  0.00    +0.077 A 
ATOM      2  C   UNL     1     -13.120  11.123  72.020  0.00  0.00    +0.023 A 
ATOM      3  C   UNL     1     -12.991  12.412  71.520  0.00  0.00    +0.074 A 
ATOM      4  N   UNL     1     -13.388  13.644  72.130  0.00  0.00    -0.175 NA
ATOM      5  C   UNL     1     -12.922  14.713  71.304  0.00  0.00    +0.270 C 
ATOM      6  C   UNL     1     -12.171  14.123  70.199  0.00  0.00    +0.072 C 
ATOM      7  C   UNL     1     -11.459  14.795  69.294  0.00  0.00    +0.075 C 
ATOM      8  O   UNL     1     -13.135  15.945  71.456  0.00  0.00    -0.268 OA
ATOM      9  C   UNL     1     -12.340  12.670  70.320  0.00  0.00    +0.021 A 
ATOM     10  C   UNL     1     -11.788  11.615  69.605  0.00  0.00    +0.002 A 
ATOM     11  C   UNL     1     -11.669  10.407  70.280  0.00  0.00    +0.007 A 
ENDROOT
BRANCH   7  12
ATOM     12  C   UNL     1     -11.108  14.094  68.079  0.00  0.00    +0.015 A 
ATOM     13  C   UNL     1      -9.908  13.432  67.927  0.00  0.00    +0.001 A 
ATOM     14  C   UNL     1      -9.524  12.858  66.736  0.00  0.00    +0.000 A 
ATOM     15  C   UNL     1     -10.523  12.616  65.811  0.00  0.00    +0.000 A 
ATOM     16  C   UNL     1     -11.653  13.404  65.815  0.00  0.00    +0.000 A 
ATOM     17  C   UNL     1     -11.956  14.091  66.985  0.00  0.00    +0.001 A 
ENDBRANCH   7  12
BRANCH   1  18
ATOM     18  C   UNL     1     -13.130   8.746  71.443  0.00  0.00    +0.341 C 
ATOM     19  O   UNL     1     -12.365   7.747  71.330  0.00  0.00    -0.245 OA
BRANCH  18  21
ATOM     20  C   UNL     1     -15.044   7.349  71.954  0.00  0.00    +0.256 C 
ATOM     21  O   UNL     1     -14.490   8.493  71.336  0.00  0.00    -0.441 OA
ENDBRANCH  18  21
ENDBRANCH   1  18
BRANCH   7  22
ATOM     22  N   UNL     1     -10.914  16.031  69.702  0.00  0.00    -0.212 NA
BRANCH  22  23
ATOM     23  C   UNL     1      -9.810  16.669  69.099  0.00  0.00    +0.071 A 
ATOM     24  C   UNL     1     -10.073  17.819  68.366  0.00  0.00    +0.018 A 
ATOM     25  C   UNL     1      -9.049  18.673  68.045  0.00  0.00    +0.016 A 
ATOM     26  C   UNL     1      -7.753  18.334  68.401  0.00  0.00    +0.054 A 
ATOM     27  C   UNL     1      -7.515  17.007  68.735  0.00  0.00    +0.016 A 
ATOM     28  C   UNL     1      -8.549  16.123  69.016  0.00  0.00    +0.018 A 
BRANCH  26  29
ATOM     29  N   UNL     1      -6.736  19.328  68.566  0.00  0.00    -0.256 N 
ATOM     30  C   UNL     1      -6.368  20.101  67.418  0.00  0.00    +0.246 C 
ATOM     31  O   UNL     1      -6.931  21.231  67.322  0.00  0.00    -0.273 OA
ATOM     32  C   UNL     1      -6.690  20.037  69.842  0.00  0.00    +0.120 C 
BRANCH  30  33
ATOM     33  C   UNL     1      -6.026  19.420  66.141  0.00  0.00    +0.159 C 
BRANCH  33  34
ATOM     34  N   UNL     1      -5.531  20.330  65.140  0.00  0.00    -0.263 NA
ATOM     35  C   UNL     1      -6.015  20.023  63.810  0.00  0.00    +0.090 C 
ATOM     36  C   UNL     1      -5.706  21.232  62.936  0.00  0.00    +0.090 C 
ATOM     37  N   UNL     1      -4.289  21.517  62.918  0.00  0.00    -0.269 NA
ATOM     38  C   UNL     1      -3.652  20.433  62.172  0.00  0.00    +0.090 C 
ATOM     39  C   UNL     1      -3.717  21.607  64.237  0.00  0.00    +0.090 C 
ATOM     40  C   UNL     1      -4.092  20.422  65.111  0.00  0.00    +0.090 C 
ENDBRANCH  33  34
ENDBRANCH  30  33
ENDBRANCH  26  29
ENDBRANCH  22  23
ENDBRANCH   7  22
TORSDOF 8
ENDMDL
MODEL 3
REMARK VINA RESULT:      -8.2      2.012      3.549
REMARK  Name = 
REMARK  8 active torsions:
REMARK  status: ('A' for Active; 'I' for Inactive)
REMARK    1  A    between atoms: O_2  and  C_3
REMARK    2  A    between atoms: C_3  and  C_5
REMARK    3  A    between atoms: C_15  and  N_16
REMARK    4  A    between atoms: C_15  and  C_35
REMARK    5  A    between atoms: N_16  and  C_17
REMARK    6  A    between atoms: C_20  and  N_21
REMARK    7  A    between atoms: C_23  and  C_25
REMARK    8  A    between atoms: C_25  and  N_26
REMARK                            x       y       z     vdW  Elec       q    Type
REMARK                         _______ _______ _______ _____ _____    ______ ____
ROOT
ATOM      1  C   UNL     1     -12.802  10.318  71.323  0.00  0.00    +0.077 A 
ATOM      2  C   UNL     1     -13.181  11.436  72.038  0.00  0.00    +0.023 A 
ATOM      3  C   UNL     1     -12.950  12.668  71.440  0.00  0.00    +0.074 A 
ATOM      4  N   UNL     1     -13.198  13.973  71.971  0.00  0.00    -0.175 NA
ATOM      5  C   UNL     1     -12.668  14.930  71.051  0.00  0.00    +0.270 C 
ATOM      6  C   UNL     1     -12.028  14.192  69.966  0.00  0.00    +0.072 C 
ATOM      7  C   UNL     1     -11.295  14.724  68.987  0.00  0.00    +0.075 C 
ATOM      8  O   UNL     1     -12.753  16.185  71.120  0.00  0.00    -0.268 OA
ATOM      9  C   UNL     1     -12.331  12.775  70.200  0.00  0.00    +0.021 A 
ATOM     10  C   UNL     1     -11.917  11.622  69.545  0.00  0.00    +0.002 A 
ATOM     11  C   UNL     1     -11.886  10.459  70.303  0.00  0.00    +0.007 A 
ENDROOT
BRANCH   7  12
ATOM     12  C   UNL     1     -11.069  13.908  67.814  0.00  0.00    +0.015 A 
ATOM     13  C   UNL     1     -11.994  13.804  66.797  0.00  0.00    +0.001 A 
ATOM     14  C   UNL     1     -11.831  12.945  65.733  0.00  0.00    +0.000 A 
ATOM     15  C   UNL     1     -10.550  12.478  65.500  0.00  0.00    +0.000 A 
ATOM     16  C   UNL     1      -9.664  12.383  66.551  0.00  0.00    +0.000 A 
ATOM     17  C   UNL     1      -9.917  13.154  67.679  0.00  0.00    +0.001 A 
ENDBRANCH   7  12
BRANCH   1  18
ATOM     18  C   UNL     1     -13.447   9.038  71.640  0.00  0.00    +0.341 C 
ATOM     19  O   UNL     1     -14.355   8.985  72.517  0.00  0.00    -0.245 OA
BRANCH  18  21
ATOM     20  C   UNL     1     -11.855   7.298  72.200  0.00  0.00    +0.256 C 
ATOM     21  O   UNL     1     -12.826   7.838  71.326  0.00  0.00    -0.441 OA
ENDBRANCH  18  21
ENDBRANCH   1  18
BRANCH   7  22
ATOM     22  N   UNL     1     -10.616  15.926  69.281  0.00  0.00    -0.212 NA
BRANCH  22  23
ATOM     23  C   UNL     1      -9.941  16.728  68.337  0.00  0.00    +0.071 A 
ATOM     24  C   UNL     1      -9.999  18.102  68.527  0.00  0.00    +0.018 A 
ATOM     25  C   UNL     1      -9.110  18.919  67.876  0.00  0.00    +0.016 A 
ATOM     26  C   UNL     1      -8.211  18.358  66.982  0.00  0.00    +0.054 A 
ATOM     27  C   UNL     1      -8.489  17.076  66.526  0.00  0.00    +0.016 A 
ATOM     28  C   UNL     1      -9.422  16.259  67.151  0.00  0.00    +0.018 A 
BRANCH  26  29
ATOM     29  N   UNL     1      -6.974  19.003  66.657  0.00  0.00    -0.256 N 
ATOM     30  C   UNL     1      -5.760  18.346  67.040  0.00  0.00    +0.246 C 
ATOM     31  O   UNL     1      -5.207  17.658  66.133  0.00  0.00    -0.273 OA
ATOM     32  C   UNL     1      -6.916  19.750  65.404  0.00  0.00    +0.120 C 
BRANCH  30  33
ATOM     33  C   UNL     1      -5.581  17.870  68.437  0.00  0.00    +0.159 C 
BRANCH  33  34
ATOM     34  N   UNL     1      -5.550  18.948  69.392  0.00  0.00    -0.263 NA
ATOM     35  C   UNL     1      -4.580  19.970  69.060  0.00  0.00    +0.090 C 
ATOM     36  C   UNL     1      -4.892  21.179  69.934  0.00  0.00    +0.090 C 
ATOM     37  N   UNL     1      -4.824  20.840  71.338  0.00  0.00    -0.269 NA
ATOM     38  C   UNL     1      -3.416  20.598  71.646  0.00  0.00    +0.090 C 
ATOM     39  C   UNL     1      -5.607  19.677  71.674  0.00  0.00    +0.090 C 
ATOM     40  C   UNL     1      -5.327  18.505  70.747  0.00  0.00    +0.090 C 
ENDBRANCH  33  34
ENDBRANCH  30  33
ENDBRANCH  26  29
ENDBRANCH  22  23
ENDBRANCH   7  22
TORSDOF 8
ENDMDL
MODEL 4
REMARK VINA RESULT:      -8.1      2.540      4.575
REMARK  Name = 
REMARK  8 active torsions:
REMARK  status: ('A' for Active; 'I' for Inactive)
REMARK    1  A    between atoms: O_2  and  C_3
REMARK    2  A    between atoms: C_3  and  C_5
REMARK    3  A    between atoms: C_15  and  N_16
REMARK    4  A    between atoms: C_15  and  C_35
REMARK    5  A    between atoms: N_16  and  C_17
REMARK    6  A    between atoms: C_20  and  N_21
REMARK    7  A    between atoms: C_23  and  C_25
REMARK    8  A    between atoms: C_25  and  N_26
REMARK                            x       y       z     vdW  Elec       q    Type
REMARK                         _______ _______ _______ _____ _____    ______ ____
ROOT
ATOM      1  C   UNL     1     -12.123  10.484  70.557  0.00  0.00    +0.077 A 
ATOM      2  C   UNL     1     -12.367  11.684  71.192  0.00  0.00    +0.023 A 
ATOM      3  C   UNL     1     -12.290  12.831  70.412  0.00  0.00    +0.074 A 
ATOM      4  N   UNL     1     -12.448  14.193  70.819  0.00  0.00    -0.175 NA
ATOM      5  C   UNL     1     -12.140  15.025  69.698  0.00  0.00    +0.270 C 
ATOM      6  C   UNL     1     -11.726  14.154  68.602  0.00  0.00    +0.072 C 
ATOM      7  C   UNL     1     -11.224  14.555  67.434  0.00  0.00    +0.075 C 
ATOM      8  O   UNL     1     -12.234  16.279  69.628  0.00  0.00    -0.268 OA
ATOM      9  C   UNL     1     -11.945  12.779  69.067  0.00  0.00    +0.021 A 
ATOM     10  C   UNL     1     -11.653  11.551  68.486  0.00  0.00    +0.002 A 
ATOM     11  C   UNL     1     -11.442  10.491  69.358  0.00  0.00    +0.007 A 
ENDROOT
BRANCH   7  12
ATOM     12  C   UNL     1     -11.231  13.599  66.349  0.00  0.00    +0.015 A 
ATOM     13  C   UNL     1     -10.114  12.868  66.001  0.00  0.00    +0.001 A 
ATOM     14  C   UNL     1     -10.085  12.039  64.902  0.00  0.00    +0.000 A 
ATOM     15  C   UNL     1     -11.306  11.650  64.382  0.00  0.00    +0.000 A 
ATOM     16  C   UNL     1     -12.401  12.471  64.546  0.00  0.00    +0.000 A 
ATOM     17  C   UNL     1     -12.362  13.402  65.576  0.00  0.00    +0.001 A 
ENDBRANCH   7  12
BRANCH   1  18
ATOM     18  C   UNL     1     -12.662   9.257  71.156  0.00  0.00    +0.341 C 
ATOM     19  O   UNL     1     -12.074   8.153  70.979  0.00  0.00    -0.245 OA
BRANCH  18  21
ATOM     20  C   UNL     1     -14.599   7.930  71.761  0.00  0.00    +0.256 C 
ATOM     21  O   UNL     1     -13.990   9.189  71.550  0.00  0.00    -0.441 OA
ENDBRANCH  18  21
ENDBRANCH   1  18
BRANCH   7  22
ATOM     22  N   UNL     1     -10.522  15.780  67.430  0.00  0.00    -0.212 NA
BRANCH  22  23
ATOM     23  C   UNL     1      -9.140  15.923  67.676  0.00  0.00    +0.071 A 
ATOM     24  C   UNL     1      -8.316  16.055  66.566  0.00  0.00    +0.018 A 
ATOM     25  C   UNL     1      -7.039  16.533  66.717  0.00  0.00    +0.016 A 
ATOM     26  C   UNL     1      -6.571  16.812  67.992  0.00  0.00    +0.054 A 
ATOM     27  C   UNL     1      -7.272  16.263  69.057  0.00  0.00    +0.016 A 
ATOM     28  C   UNL     1      -8.547  15.734  68.904  0.00  0.00    +0.018 A 
BRANCH  26  29
ATOM     29  N   UNL     1      -5.507  17.744  68.213  0.00  0.00    -0.256 N 
ATOM     30  C   UNL     1      -5.860  19.110  68.463  0.00  0.00    +0.246 C 
ATOM     31  O   UNL     1      -5.904  19.444  69.683  0.00  0.00    -0.273 OA
ATOM     32  C   UNL     1      -4.327  17.260  68.923  0.00  0.00    +0.120 C 
BRANCH  30  33
ATOM     33  C   UNL     1      -6.795  19.816  67.548  0.00  0.00    +0.159 C 
BRANCH  33  34
ATOM     34  N   UNL     1      -6.124  20.432  66.432  0.00  0.00    -0.263 NA
ATOM     35  C   UNL     1      -6.421  19.789  65.169  0.00  0.00    +0.090 C 
ATOM     36  C   UNL     1      -5.939  20.727  64.069  0.00  0.00    +0.090 C 
ATOM     37  N   UNL     1      -4.524  20.995  64.193  0.00  0.00    -0.269 NA
ATOM     38  C   UNL     1      -3.829  19.753  63.857  0.00  0.00    +0.090 C 
ATOM     39  C   UNL     1      -4.146  21.426  65.515  0.00  0.00    +0.090 C 
ATOM     40  C   UNL     1      -4.693  20.511  66.599  0.00  0.00    +0.090 C 
ENDBRANCH  33  34
ENDBRANCH  30  33
ENDBRANCH  26  29
ENDBRANCH  22  23
ENDBRANCH   7  22
TORSDOF 8
ENDMDL
MODEL 5
REMARK VINA RESULT:      -8.0      2.381      3.818
REMARK  Name = 
REMARK  8 active torsions:
REMARK  status: ('A' for Active; 'I' for Inactive)
REMARK    1  A    between atoms: O_2  and  C_3
REMARK    2  A    between atoms: C_3  and  C_5
REMARK    3  A    between atoms: C_15  and  N_16
REMARK    4  A    between atoms: C_15  and  C_35
REMARK    5  A    between atoms: N_16  and  C_17
REMARK    6  A    between atoms: C_20  and  N_21
REMARK    7  A    between atoms: C_23  and  C_25
REMARK    8  A    between atoms: C_25  and  N_26
REMARK                            x       y       z     vdW  Elec       q    Type
REMARK                         _______ _______ _______ _____ _____    ______ ____
ROOT
ATOM      1  C   UNL     1     -10.828   9.522  69.488  0.00  0.00    +0.077 A 
ATOM      2  C   UNL     1     -11.422  10.223  70.517  0.00  0.00    +0.023 A 
ATOM      3  C   UNL     1     -11.855  11.510  70.227  0.00  0.00    +0.074 A 
ATOM      4  N   UNL     1     -12.454  12.464  71.110  0.00  0.00    -0.175 NA
ATOM      5  C   UNL     1     -12.596  13.694  70.395  0.00  0.00    +0.270 C 
ATOM      6  C   UNL     1     -12.014  13.505  69.069  0.00  0.00    +0.072 C 
ATOM      7  C   UNL     1     -11.824  14.459  68.157  0.00  0.00    +0.075 C 
ATOM      8  O   UNL     1     -13.149  14.753  70.797  0.00  0.00    -0.268 OA
ATOM      9  C   UNL     1     -11.664  12.083  68.976  0.00  0.00    +0.021 A 
ATOM     10  C   UNL     1     -11.009  11.356  67.989  0.00  0.00    +0.002 A 
ATOM     11  C   UNL     1     -10.332  10.218  68.407  0.00  0.00    +0.007 A 
ENDROOT
BRANCH   7  12
ATOM     12  C   UNL     1     -11.599  14.033  66.794  0.00  0.00    +0.015 A 
ATOM     13  C   UNL     1     -10.339  13.968  66.238  0.00  0.00    +0.001 A 
ATOM     14  C   UNL     1     -10.130  13.669  64.910  0.00  0.00    +0.000 A 
ATOM     15  C   UNL     1     -11.170  13.054  64.239  0.00  0.00    +0.000 A 
ATOM     16  C   UNL     1     -12.466  13.268  64.658  0.00  0.00    +0.000 A 
ATOM     17  C   UNL     1     -12.657  13.705  65.963  0.00  0.00    +0.001 A 
ENDBRANCH   7  12
BRANCH   1  18
ATOM     18  C   UNL     1     -10.813   8.056  69.562  0.00  0.00    +0.341 C 
ATOM     19  O   UNL     1     -10.563   7.371  68.530  0.00  0.00    -0.245 OA
BRANCH  18  21
ATOM     20  C   UNL     1     -10.731   6.532  71.446  0.00  0.00    +0.256 C 
ATOM     21  O   UNL     1     -11.460   7.395  70.595  0.00  0.00    -0.441 OA
ENDBRANCH  18  21
ENDBRANCH   1  18
BRANCH   7  22
ATOM     22  N   UNL     1     -11.623  15.770  68.640  0.00  0.00    -0.212 NA
BRANCH  22  23
ATOM     23  C   UNL     1     -10.390  16.455  68.635  0.00  0.00    +0.071 A 
ATOM     24  C   UNL     1      -9.279  15.752  69.083  0.00  0.00    +0.018 A 
ATOM     25  C   UNL     1      -8.019  16.210  68.795  0.00  0.00    +0.016 A 
ATOM     26  C   UNL     1      -7.878  17.411  68.117  0.00  0.00    +0.054 A 
ATOM     27  C   UNL     1      -8.983  18.252  68.084  0.00  0.00    +0.016 A 
ATOM     28  C   UNL     1     -10.255  17.809  68.420  0.00  0.00    +0.018 A 
BRANCH  26  29
ATOM     29  N   UNL     1      -6.703  17.710  67.356  0.00  0.00    -0.256 N 
ATOM     30  C   UNL     1      -5.463  17.145  67.798  0.00  0.00    +0.246 C 
ATOM     31  O   UNL     1      -5.115  16.077  67.213  0.00  0.00    -0.273 OA
ATOM     32  C   UNL     1      -6.854  17.840  65.910  0.00  0.00    +0.120 C 
BRANCH  30  33
ATOM     33  C   UNL     1      -5.041  17.293  69.216  0.00  0.00    +0.159 C 
BRANCH  33  34
ATOM     34  N   UNL     1      -5.255  18.624  69.724  0.00  0.00    -0.263 NA
ATOM     35  C   UNL     1      -4.322  19.591  69.183  0.00  0.00    +0.090 C 
ATOM     36  C   UNL     1      -4.867  20.972  69.525  0.00  0.00    +0.090 C 
ATOM     37  N   UNL     1      -5.014  21.138  70.954  0.00  0.00    -0.269 NA
ATOM     38  C   UNL     1      -3.664  21.199  71.511  0.00  0.00    +0.090 C 
ATOM     39  C   UNL     1      -5.752  20.066  71.571  0.00  0.00    +0.090 C 
ATOM     40  C   UNL     1      -5.231  18.697  71.164  0.00  0.00    +0.090 C 
ENDBRANCH  33  34
ENDBRANCH  30  33
ENDBRANCH  26  29
ENDBRANCH  22  23
ENDBRANCH   7  22
TORSDOF 8
ENDMDL
MODEL 6
REMARK VINA RESULT:      -8.0      2.709      4.993
REMARK  Name = 
REMARK  8 active torsions:
REMARK  status: ('A' for Active; 'I' for Inactive)
REMARK    1  A    between atoms: O_2  and  C_3
REMARK    2  A    between atoms: C_3  and  C_5
REMARK    3  A    between atoms: C_15  and  N_16
REMARK    4  A    between atoms: C_15  and  C_35
REMARK    5  A    between atoms: N_16  and  C_17
REMARK    6  A    between atoms: C_20  and  N_21
REMARK    7  A    between atoms: C_23  and  C_25
REMARK    8  A    between atoms: C_25  and  N_26
REMARK                            x       y       z     vdW  Elec       q    Type
REMARK                         _______ _______ _______ _____ _____    ______ ____
ROOT
ATOM      1  C   UNL     1     -12.131  10.386  70.686  0.00  0.00    +0.077 A 
ATOM      2  C   UNL     1     -12.438  11.556  71.351  0.00  0.00    +0.023 A 
ATOM      3  C   UNL     1     -12.409  12.725  70.601  0.00  0.00    +0.074 A 
ATOM      4  N   UNL     1     -12.636  14.067  71.043  0.00  0.00    -0.175 NA
ATOM      5  C   UNL     1     -12.359  14.942  69.947  0.00  0.00    +0.270 C 
ATOM      6  C   UNL     1     -11.894  14.122  68.833  0.00  0.00    +0.072 C 
ATOM      7  C   UNL     1     -11.402  14.578  67.681  0.00  0.00    +0.075 C 
ATOM      8  O   UNL     1     -12.513  16.192  69.910  0.00  0.00    -0.268 OA
ATOM      9  C   UNL     1     -12.051  12.726  69.259  0.00  0.00    +0.021 A 
ATOM     10  C   UNL     1     -11.695  11.530  68.649  0.00  0.00    +0.002 A 
ATOM     11  C   UNL     1     -11.441  10.457  69.495  0.00  0.00    +0.007 A 
ENDROOT
BRANCH   7  12
ATOM     12  C   UNL     1     -11.354  13.652  66.571  0.00  0.00    +0.015 A 
ATOM     13  C   UNL     1     -10.216  12.942  66.251  0.00  0.00    +0.001 A 
ATOM     14  C   UNL     1     -10.132  12.143  65.132  0.00  0.00    +0.000 A 
ATOM     15  C   UNL     1     -11.326  11.757  64.551  0.00  0.00    +0.000 A 
ATOM     16  C   UNL     1     -12.436  12.562  64.691  0.00  0.00    +0.000 A 
ATOM     17  C   UNL     1     -12.449  13.465  65.747  0.00  0.00    +0.001 A 
ENDBRANCH   7  12
BRANCH   1  18
ATOM     18  C   UNL     1     -12.615   9.119  71.247  0.00  0.00    +0.341 C 
ATOM     19  O   UNL     1     -12.150   8.021  70.830  0.00  0.00    -0.245 OA
BRANCH  18  21
ATOM     20  C   UNL     1     -14.687   7.947  71.708  0.00  0.00    +0.256 C 
ATOM     21  O   UNL     1     -13.836   9.059  71.904  0.00  0.00    -0.441 OA
ENDBRANCH  18  21
ENDBRANCH   1  18
BRANCH   7  22
ATOM     22  N   UNL     1     -10.760  15.834  67.716  0.00  0.00    -0.212 NA
BRANCH  22  23
ATOM     23  C   UNL     1      -9.363  16.030  67.765  0.00  0.00    +0.071 A 
ATOM     24  C   UNL     1      -8.812  16.301  69.011  0.00  0.00    +0.018 A 
ATOM     25  C   UNL     1      -7.461  16.165  69.203  0.00  0.00    +0.016 A 
ATOM     26  C   UNL     1      -6.659  15.825  68.125  0.00  0.00    +0.054 A 
ATOM     27  C   UNL     1      -7.199  15.991  66.856  0.00  0.00    +0.016 A 
ATOM     28  C   UNL     1      -8.561  16.176  66.656  0.00  0.00    +0.018 A 
BRANCH  26  29
ATOM     29  N   UNL     1      -5.388  15.189  68.305  0.00  0.00    -0.256 N 
ATOM     30  C   UNL     1      -5.360  13.758  68.346  0.00  0.00    +0.246 C 
ATOM     31  O   UNL     1      -5.067  13.190  67.252  0.00  0.00    -0.273 OA
ATOM     32  C   UNL     1      -4.226  15.824  67.690  0.00  0.00    +0.120 C 
BRANCH  30  33
ATOM     33  C   UNL     1      -6.282  13.021  69.249  0.00  0.00    +0.159 C 
BRANCH  33  34
ATOM     34  N   UNL     1      -6.510  11.663  68.825  0.00  0.00    -0.263 NA
ATOM     35  C   UNL     1      -7.908  11.372  68.588  0.00  0.00    +0.090 C 
ATOM     36  C   UNL     1      -7.965  10.050  67.832  0.00  0.00    +0.090 C 
ATOM     37  N   UNL     1      -7.338   8.989  68.588  0.00  0.00    -0.269 NA
ATOM     38  C   UNL     1      -8.203   8.720  69.734  0.00  0.00    +0.090 C 
ATOM     39  C   UNL     1      -6.013   9.329  69.042  0.00  0.00    +0.090 C 
ATOM     40  C   UNL     1      -5.970  10.682  69.734  0.00  0.00    +0.090 C 
ENDBRANCH  33  34
ENDBRANCH  30  33
ENDBRANCH  26  29
ENDBRANCH  22  23
ENDBRANCH   7  22
TORSDOF 8
ENDMDL
MODEL 7
REMARK VINA RESULT:      -7.9      2.115      3.671
REMARK  Name = 
REMARK  8 active torsions:
REMARK  status: ('A' for Active; 'I' for Inactive)
REMARK    1  A    between atoms: O_2  and  C_3
REMARK    2  A    between atoms: C_3  and  C_5
REMARK    3  A    between atoms: C_15  and  N_16
REMARK    4  A    between atoms: C_15  and  C_35
REMARK    5  A    between atoms: N_16  and  C_17
REMARK    6  A    between atoms: C_20  and  N_21
REMARK    7  A    between atoms: C_23  and  C_25
REMARK    8  A    between atoms: C_25  and  N_26
REMARK                            x       y       z     vdW  Elec       q    Type
REMARK                         _______ _______ _______ _____ _____    ______ ____
ROOT
ATOM      1  C   UNL     1     -11.314   8.187  70.689  0.00  0.00    +0.077 A 
ATOM      2  C   UNL     1     -12.046   8.996  71.535  0.00  0.00    +0.023 A 
ATOM      3  C   UNL     1     -12.248  10.307  71.126  0.00  0.00    +0.074 A 
ATOM      4  N   UNL     1     -12.921  11.360  71.823  0.00  0.00    -0.175 NA
ATOM      5  C   UNL     1     -12.751  12.563  71.070  0.00  0.00    +0.270 C 
ATOM      6  C   UNL     1     -11.905  12.251  69.922  0.00  0.00    +0.072 C 
ATOM      7  C   UNL     1     -11.401  13.135  69.061  0.00  0.00    +0.075 C 
ATOM      8  O   UNL     1     -13.256  13.693  71.310  0.00  0.00    -0.268 OA
ATOM      9  C   UNL     1     -11.709  10.796  69.942  0.00  0.00    +0.021 A 
ATOM     10  C   UNL     1     -10.933   9.959  69.152  0.00  0.00    +0.002 A 
ATOM     11  C   UNL     1     -10.505   8.775  69.740  0.00  0.00    +0.007 A 
ENDROOT
BRANCH   7  12
ATOM     12  C   UNL     1     -10.919  12.624  67.797  0.00  0.00    +0.015 A 
ATOM     13  C   UNL     1      -9.591  12.322  67.580  0.00  0.00    +0.001 A 
ATOM     14  C   UNL     1      -9.109  11.940  66.348  0.00  0.00    +0.000 A 
ATOM     15  C   UNL     1     -10.038  11.487  65.430  0.00  0.00    +0.000 A 
ATOM     16  C   UNL     1     -11.339  11.938  65.506  0.00  0.00    +0.000 A 
ATOM     17  C   UNL     1     -11.773  12.451  66.722  0.00  0.00    +0.001 A 
ENDBRANCH   7  12
BRANCH   1  18
ATOM     18  C   UNL     1     -11.486   6.733  70.794  0.00  0.00    +0.341 C 
ATOM     19  O   UNL     1     -11.463   6.015  69.755  0.00  0.00    -0.245 OA
BRANCH  18  21
ATOM     20  C   UNL     1     -11.289   5.457  72.845  0.00  0.00    +0.256 C 
ATOM     21  O   UNL     1     -12.078   6.172  71.916  0.00  0.00    -0.441 OA
ENDBRANCH  18  21
ENDBRANCH   1  18
BRANCH   7  22
ATOM     22  N   UNL     1     -11.167  14.438  69.550  0.00  0.00    -0.212 NA
BRANCH  22  23
ATOM     23  C   UNL     1     -10.362  15.409  68.918  0.00  0.00    +0.071 A 
ATOM     24  C   UNL     1     -10.862  15.975  67.752  0.00  0.00    +0.018 A 
ATOM     25  C   UNL     1     -10.323  17.142  67.274  0.00  0.00    +0.016 A 
ATOM     26  C   UNL     1      -9.237  17.700  67.931  0.00  0.00    +0.054 A 
ATOM     27  C   UNL     1      -8.535  16.879  68.804  0.00  0.00    +0.016 A 
ATOM     28  C   UNL     1      -9.054  15.673  69.256  0.00  0.00    +0.018 A 
BRANCH  26  29
ATOM     29  N   UNL     1      -8.938  19.097  67.834  0.00  0.00    -0.256 N 
ATOM     30  C   UNL     1      -7.875  19.491  66.958  0.00  0.00    +0.246 C 
ATOM     31  O   UNL     1      -8.236  19.871  65.805  0.00  0.00    -0.273 OA
ATOM     32  C   UNL     1     -10.057  20.031  67.924  0.00  0.00    +0.120 C 
BRANCH  30  33
ATOM     33  C   UNL     1      -6.548  18.828  67.053  0.00  0.00    +0.159 C 
BRANCH  33  34
ATOM     34  N   UNL     1      -5.842  19.166  68.261  0.00  0.00    -0.263 NA
ATOM     35  C   UNL     1      -5.637  20.592  68.415  0.00  0.00    +0.090 C 
ATOM     36  C   UNL     1      -5.204  20.825  69.857  0.00  0.00    +0.090 C 
ATOM     37  N   UNL     1      -3.996  20.093  70.166  0.00  0.00    -0.269 NA
ATOM     38  C   UNL     1      -2.915  20.732  69.418  0.00  0.00    +0.090 C 
ATOM     39  C   UNL     1      -4.079  18.698  69.814  0.00  0.00    +0.090 C 
ATOM     40  C   UNL     1      -4.576  18.489  68.393  0.00  0.00    +0.090 C 
ENDBRANCH  33  34
ENDBRANCH  30  33
ENDBRANCH  26  29
ENDBRANCH  22  23
ENDBRANCH   7  22
TORSDOF 8
ENDMDL
MODEL 8
REMARK VINA RESULT:      -7.9      1.872      3.409
REMARK  Name = 
REMARK  8 active torsions:
REMARK  status: ('A' for Active; 'I' for Inactive)
REMARK    1  A    between atoms: O_2  and  C_3
REMARK    2  A    between atoms: C_3  and  C_5
REMARK    3  A    between atoms: C_15  and  N_16
REMARK    4  A    between atoms: C_15  and  C_35
REMARK    5  A    between atoms: N_16  and  C_17
REMARK    6  A    between atoms: C_20  and  N_21
REMARK    7  A    between atoms: C_23  and  C_25
REMARK    8  A    between atoms: C_25  and  N_26
REMARK                            x       y       z     vdW  Elec       q    Type
REMARK                         _______ _______ _______ _____ _____    ______ ____
ROOT
ATOM      1  C   UNL     1     -12.483  10.105  71.113  0.00  0.00    +0.077 A 
ATOM      2  C   UNL     1     -12.998  11.147  71.856  0.00  0.00    +0.023 A 
ATOM      3  C   UNL     1     -12.912  12.416  71.297  0.00  0.00    +0.074 A 
ATOM      4  N   UNL     1     -13.319  13.665  71.864  0.00  0.00    -0.175 NA
ATOM      5  C   UNL     1     -12.900  14.705  70.978  0.00  0.00    +0.270 C 
ATOM      6  C   UNL     1     -12.168  14.083  69.879  0.00  0.00    +0.072 C 
ATOM      7  C   UNL     1     -11.498  14.728  68.924  0.00  0.00    +0.075 C 
ATOM      8  O   UNL     1     -13.136  15.939  71.083  0.00  0.00    -0.268 OA
ATOM      9  C   UNL     1     -12.302  12.634  70.068  0.00  0.00    +0.021 A 
ATOM     10  C   UNL     1     -11.747  11.559  69.384  0.00  0.00    +0.002 A 
ATOM     11  C   UNL     1     -11.582  10.385  70.107  0.00  0.00    +0.007 A 
ENDROOT
BRANCH   7  12
ATOM     12  C   UNL     1     -11.167  13.982  67.730  0.00  0.00    +0.015 A 
ATOM     13  C   UNL     1     -12.062  13.808  66.696  0.00  0.00    +0.001 A 
ATOM     14  C   UNL     1     -11.790  13.008  65.608  0.00  0.00    +0.000 A 
ATOM     15  C   UNL     1     -10.463  12.695  65.381  0.00  0.00    +0.000 A 
ATOM     16  C   UNL     1      -9.584  12.665  66.443  0.00  0.00    +0.000 A 
ATOM     17  C   UNL     1      -9.936  13.366  67.590  0.00  0.00    +0.001 A 
ENDBRANCH   7  12
BRANCH   1  18
ATOM     18  C   UNL     1     -12.972   8.748  71.385  0.00  0.00    +0.341 C 
ATOM     19  O   UNL     1     -14.142   8.572  71.828  0.00  0.00    -0.245 OA
BRANCH  18  21
ATOM     20  C   UNL     1     -11.233   7.689  72.701  0.00  0.00    +0.256 C 
ATOM     21  O   UNL     1     -12.082   7.701  71.570  0.00  0.00    -0.441 OA
ENDBRANCH  18  21
ENDBRANCH   1  18
BRANCH   7  22
ATOM     22  N   UNL     1     -10.969  15.993  69.261  0.00  0.00    -0.212 NA
BRANCH  22  23
ATOM     23  C   UNL     1     -10.301  16.857  68.367  0.00  0.00    +0.071 A 
ATOM     24  C   UNL     1     -10.186  18.187  68.750  0.00  0.00    +0.018 A 
ATOM     25  C   UNL     1      -9.276  19.000  68.124  0.00  0.00    +0.016 A 
ATOM     26  C   UNL     1      -8.534  18.493  67.068  0.00  0.00    +0.054 A 
ATOM     27  C   UNL     1      -8.996  17.326  66.473  0.00  0.00    +0.016 A 
ATOM     28  C   UNL     1      -9.952  16.521  67.079  0.00  0.00    +0.018 A 
BRANCH  26  29
ATOM     29  N   UNL     1      -7.269  19.055  66.701  0.00  0.00    -0.256 N 
ATOM     30  C   UNL     1      -6.087  18.350  67.099  0.00  0.00    +0.246 C 
ATOM     31  O   UNL     1      -5.584  17.594  66.218  0.00  0.00    -0.273 OA
ATOM     32  C   UNL     1      -7.188  19.743  65.416  0.00  0.00    +0.120 C 
BRANCH  30  33
ATOM     33  C   UNL     1      -5.915  17.927  68.514  0.00  0.00    +0.159 C 
BRANCH  33  34
ATOM     34  N   UNL     1      -5.906  16.494  68.668  0.00  0.00    -0.263 NA
ATOM     35  C   UNL     1      -6.986  16.010  69.503  0.00  0.00    +0.090 C 
ATOM     36  C   UNL     1      -7.061  14.502  69.300  0.00  0.00    +0.090 C 
ATOM     37  N   UNL     1      -5.812  13.864  69.650  0.00  0.00    -0.269 NA
ATOM     38  C   UNL     1      -5.678  13.968  71.102  0.00  0.00    +0.090 C 
ATOM     39  C   UNL     1      -4.673  14.469  69.008  0.00  0.00    +0.090 C 
ATOM     40  C   UNL     1      -4.655  15.980  69.168  0.00  0.00    +0.090 C 
ENDBRANCH  33  34
ENDBRANCH  30  33
ENDBRANCH  26  29
ENDBRANCH  22  23
ENDBRANCH   7  22
TORSDOF 8
ENDMDL
MODEL 9
REMARK VINA RESULT:      -7.8      4.372      8.357
REMARK  Name = 
REMARK  8 active torsions:
REMARK  status: ('A' for Active; 'I' for Inactive)
REMARK    1  A    between atoms: O_2  and  C_3
REMARK    2  A    between atoms: C_3  and  C_5
REMARK    3  A    between atoms: C_15  and  N_16
REMARK    4  A    between atoms: C_15  and  C_35
REMARK    5  A    between atoms: N_16  and  C_17
REMARK    6  A    between atoms: C_20  and  N_21
REMARK    7  A    between atoms: C_23  and  C_25
REMARK    8  A    between atoms: C_25  and  N_26
REMARK                            x       y       z     vdW  Elec       q    Type
REMARK                         _______ _______ _______ _____ _____    ______ ____
ROOT
ATOM      1  C   UNL     1     -13.171  14.717  71.285  0.00  0.00    +0.077 A 
ATOM      2  C   UNL     1     -13.063  13.362  71.521  0.00  0.00    +0.023 A 
ATOM      3  C   UNL     1     -12.276  12.634  70.638  0.00  0.00    +0.074 A 
ATOM      4  N   UNL     1     -12.033  11.224  70.622  0.00  0.00    -0.175 NA
ATOM      5  C   UNL     1     -11.279  10.923  69.445  0.00  0.00    +0.270 C 
ATOM      6  C   UNL     1     -11.111  12.166  68.697  0.00  0.00    +0.072 C 
ATOM      7  C   UNL     1     -10.588  12.276  67.476  0.00  0.00    +0.075 C 
ATOM      8  O   UNL     1     -10.802   9.806  69.108  0.00  0.00    -0.268 OA
ATOM      9  C   UNL     1     -11.659  13.231  69.545  0.00  0.00    +0.021 A 
ATOM     10  C   UNL     1     -11.845  14.588  69.317  0.00  0.00    +0.002 A 
ATOM     11  C   UNL     1     -12.868  15.200  70.029  0.00  0.00    +0.007 A 
ENDROOT
BRANCH   7  12
ATOM     12  C   UNL     1     -10.156  13.592  67.060  0.00  0.00    +0.015 A 
ATOM     13  C   UNL     1     -10.865  14.348  66.150  0.00  0.00    +0.001 A 
ATOM     14  C   UNL     1     -10.402  15.553  65.668  0.00  0.00    +0.000 A 
ATOM     15  C   UNL     1      -9.410  16.177  66.401  0.00  0.00    +0.000 A 
ATOM     16  C   UNL     1      -8.554  15.414  67.167  0.00  0.00    +0.000 A 
ATOM     17  C   UNL     1      -8.977  14.141  67.531  0.00  0.00    +0.001 A 
ENDBRANCH   7  12
BRANCH   1  18
ATOM     18  C   UNL     1     -13.539  15.593  72.404  0.00  0.00    +0.341 C 
ATOM     19  O   UNL     1     -14.674  16.147  72.429  0.00  0.00    -0.245 OA
BRANCH  18  21
ATOM     20  C   UNL     1     -12.383  15.696  74.532  0.00  0.00    +0.256 C 
ATOM     21  O   UNL     1     -12.561  16.159  73.208  0.00  0.00    -0.441 OA
ENDBRANCH  18  21
ENDBRANCH   1  18
BRANCH   7  22
ATOM     22  N   UNL     1     -10.721  11.160  66.623  0.00  0.00    -0.212 NA
BRANCH  22  23
ATOM     23  C   UNL     1      -9.810  10.803  65.606  0.00  0.00    +0.071 A 
ATOM     24  C   UNL     1      -8.459  10.907  65.910  0.00  0.00    +0.018 A 
ATOM     25  C   UNL     1      -7.532  10.270  65.124  0.00  0.00    +0.016 A 
ATOM     26  C   UNL     1      -7.961   9.588  63.997  0.00  0.00    +0.054 A 
ATOM     27  C   UNL     1      -9.234   9.881  63.525  0.00  0.00    +0.016 A 
ATOM     28  C   UNL     1     -10.163  10.566  64.296  0.00  0.00    +0.018 A 
BRANCH  26  29
ATOM     29  N   UNL     1      -7.193   8.521  63.427  0.00  0.00    -0.256 N 
ATOM     30  C   UNL     1      -7.441   7.194  63.905  0.00  0.00    +0.246 C 
ATOM     31  O   UNL     1      -8.230   6.502  63.196  0.00  0.00    -0.273 OA
ATOM     32  C   UNL     1      -6.843   8.626  62.014  0.00  0.00    +0.120 C 
BRANCH  30  33
ATOM     33  C   UNL     1      -7.446   6.917  65.365  0.00  0.00    +0.159 C 
BRANCH  33  34
ATOM     34  N   UNL     1      -8.737   6.497  65.848  0.00  0.00    -0.263 NA
ATOM     35  C   UNL     1      -9.321   7.434  66.786  0.00  0.00    +0.090 C 
ATOM     36  C   UNL     1     -10.788   7.051  66.940  0.00  0.00    +0.090 C 
ATOM     37  N   UNL     1     -10.927   5.691  67.412  0.00  0.00    -0.269 NA
ATOM     38  C   UNL     1     -10.463   5.678  68.798  0.00  0.00    +0.090 C 
ATOM     39  C   UNL     1     -10.171   4.745  66.632  0.00  0.00    +0.090 C 
ATOM     40  C   UNL     1      -8.727   5.181  66.436  0.00  0.00    +0.090 C 
ENDBRANCH  33  34
ENDBRANCH  30  33
ENDBRANCH  26  29
ENDBRANCH  22  23
ENDBRANCH   7  22
TORSDOF 8
ENDMDL
