MODEL 1
REMARK VINA RESULT:      -5.0      0.000      0.000
REMARK  Name = 
REMARK  2 active torsions:
REMARK  status: ('A' for Active; 'I' for Inactive)
REMARK    1  A    between atoms: N_2  and  O_4
REMARK    2  A    between atoms: O_4  and  C_5
REMARK                            x       y       z     vdW  Elec       q    Type
REMARK                         _______ _______ _______ _____ _____    ______ ____
ROOT
ATOM      1  C   UNL     1     -11.198  14.431  65.080  0.00  0.00    +0.307 C 
ATOM      2  C   UNL     1     -10.179  13.285  65.844  0.00  0.00    +0.195 C 
ATOM      3  C   UNL     1     -11.363  12.067  65.773  0.00  0.00    +0.179 C 
ATOM      4  C   UNL     1     -11.725  12.128  67.442  0.00  0.00    +0.211 C 
ATOM      5  C   UNL     1     -10.155  12.425  67.808  0.00  0.00    +0.178 C 
ATOM      6  O   UNL     1     -11.565  10.628  67.547  0.00  0.00    -0.218 OA
ATOM      7  O   UNL     1     -12.520  12.948  65.457  0.00  0.00    -0.347 OA
ATOM      8  O   UNL     1     -10.446  13.689  67.257  0.00  0.00    -0.347 OA
ATOM      9  C   UNL     1     -12.365  14.073  66.166  0.00  0.00    +0.196 C 
ENDROOT
BRANCH   1  10
ATOM     10  O   UNL     1     -10.696  15.631  65.886  0.00  0.00    -0.199 OA
BRANCH  10  12
ATOM     11  O   UNL     1     -10.526  17.106  65.182  0.00  0.00    +0.093 OA
ATOM     12  N   UNL     1     -10.814  16.711  65.013  0.00  0.00    +0.285 N 
ATOM     13  O   UNL     1     -11.622  16.545  63.912  0.00  0.00    -0.534 OA
ENDBRANCH  10  12
ENDBRANCH   1  10
TORSDOF 2
ENDMDL
MODEL 2
REMARK VINA RESULT:      -4.8      2.164      4.490
REMARK  Name = 
REMARK  2 active torsions:
REMARK  status: ('A' for Active; 'I' for Inactive)
REMARK    1  A    between atoms: N_2  and  O_4
REMARK    2  A    between atoms: O_4  and  C_5
REMARK                            x       y       z     vdW  Elec       q    Type
REMARK                         _______ _______ _______ _____ _____    ______ ____
ROOT
ATOM      1  C   UNL     1     -11.797  12.429  65.789  0.00  0.00    +0.307 C 
ATOM      2  C   UNL     1     -12.056  14.028  66.347  0.00  0.00    +0.195 C 
ATOM      3  C   UNL     1     -12.206  14.640  64.769  0.00  0.00    +0.179 C 
ATOM      4  C   UNL     1     -10.681  15.409  64.771  0.00  0.00    +0.211 C 
ATOM      5  C   UNL     1     -10.836  15.792  66.357  0.00  0.00    +0.178 C 
ATOM      6  O   UNL     1     -11.313  16.699  64.299  0.00  0.00    -0.218 OA
ATOM      7  O   UNL     1     -11.647  13.460  64.055  0.00  0.00    -0.347 OA
ATOM      8  O   UNL     1     -10.624  14.410  66.534  0.00  0.00    -0.347 OA
ATOM      9  C   UNL     1     -10.632  12.997  64.795  0.00  0.00    +0.196 C 
ENDROOT
BRANCH   1  10
ATOM     10  O   UNL     1     -10.799  12.052  66.886  0.00  0.00    -0.199 OA
BRANCH  10  12
ATOM     11  O   UNL     1     -11.106  10.468  67.197  0.00  0.00    +0.093 OA
ATOM     12  N   UNL     1     -11.313  10.879  67.435  0.00  0.00    +0.285 N 
ATOM     13  O   UNL     1     -12.222  11.008  68.460  0.00  0.00    -0.534 OA
ENDBRANCH  10  12
ENDBRANCH   1  10
TORSDOF 2
ENDMDL
MODEL 3
REMARK VINA RESULT:      -4.7      3.919      5.382
REMARK  Name = 
REMARK  2 active torsions:
REMARK  status: ('A' for Active; 'I' for Inactive)
REMARK    1  A    between atoms: N_2  and  O_4
REMARK    2  A    between atoms: O_4  and  C_5
REMARK                            x       y       z     vdW  Elec       q    Type
REMARK                         _______ _______ _______ _____ _____    ______ ____
ROOT
ATOM      1  C   UNL     1     -10.263  16.788  66.790  0.00  0.00    +0.307 C 
ATOM      2  C   UNL     1      -8.663  16.820  67.403  0.00  0.00    +0.195 C 
ATOM      3  C   UNL     1      -9.026  18.059  68.508  0.00  0.00    +0.179 C 
ATOM      4  C   UNL     1      -8.194  19.271  67.638  0.00  0.00    +0.211 C 
ATOM      5  C   UNL     1      -7.038  18.201  67.184  0.00  0.00    +0.178 C 
ATOM      6  O   UNL     1      -7.455  19.686  68.890  0.00  0.00    -0.218 OA
ATOM      7  O   UNL     1     -10.323  18.473  67.908  0.00  0.00    -0.347 OA
ATOM      8  O   UNL     1      -8.066  17.704  66.358  0.00  0.00    -0.347 OA
ATOM      9  C   UNL     1     -10.182  18.406  66.578  0.00  0.00    +0.196 C 
ENDROOT
BRANCH   1  10
ATOM     10  O   UNL     1      -9.858  16.491  65.345  0.00  0.00    -0.199 OA
BRANCH  10  12
ATOM     11  O   UNL     1     -11.025  15.388  64.995  0.00  0.00    +0.093 OA
ATOM     12  N   UNL     1     -10.974  15.863  64.794  0.00  0.00    +0.285 N 
ATOM     13  O   UNL     1     -11.705  16.573  63.871  0.00  0.00    -0.534 OA
ENDBRANCH  10  12
ENDBRANCH   1  10
TORSDOF 2
ENDMDL
MODEL 4
REMARK VINA RESULT:      -4.6      1.538      1.848
REMARK  Name = 
REMARK  2 active torsions:
REMARK  status: ('A' for Active; 'I' for Inactive)
REMARK    1  A    between atoms: N_2  and  O_4
REMARK    2  A    between atoms: O_4  and  C_5
REMARK                            x       y       z     vdW  Elec       q    Type
REMARK                         _______ _______ _______ _____ _____    ______ ____
ROOT
ATOM      1  C   UNL     1     -11.874  13.031  65.422  0.00  0.00    +0.307 C 
ATOM      2  C   UNL     1     -10.329  12.295  65.494  0.00  0.00    +0.195 C 
ATOM      3  C   UNL     1     -10.818  11.201  66.699  0.00  0.00    +0.179 C 
ATOM      4  C   UNL     1      -9.963  11.983  67.955  0.00  0.00    +0.211 C 
ATOM      5  C   UNL     1      -8.740  12.363  66.932  0.00  0.00    +0.178 C 
ATOM      6  O   UNL     1      -9.338  10.670  68.369  0.00  0.00    -0.218 OA
ATOM      7  O   UNL     1     -12.079  11.893  67.082  0.00  0.00    -0.347 OA
ATOM      8  O   UNL     1      -9.683  13.275  66.418  0.00  0.00    -0.347 OA
ATOM      9  C   UNL     1     -11.832  13.209  67.046  0.00  0.00    +0.196 C 
ENDROOT
BRANCH   1  10
ATOM     10  O   UNL     1     -11.349  14.445  65.167  0.00  0.00    -0.199 OA
BRANCH  10  12
ATOM     11  O   UNL     1     -12.574  14.619  64.085  0.00  0.00    +0.093 OA
ATOM     12  N   UNL     1     -12.227  14.977  64.222  0.00  0.00    +0.285 N 
ATOM     13  O   UNL     1     -12.032  16.286  63.848  0.00  0.00    -0.534 OA
ENDBRANCH  10  12
ENDBRANCH   1  10
TORSDOF 2
ENDMDL
MODEL 5
REMARK VINA RESULT:      -4.5      2.199      3.767
REMARK  Name = 
REMARK  2 active torsions:
REMARK  status: ('A' for Active; 'I' for Inactive)
REMARK    1  A    between atoms: N_2  and  O_4
REMARK    2  A    between atoms: O_4  and  C_5
REMARK                            x       y       z     vdW  Elec       q    Type
REMARK                         _______ _______ _______ _____ _____    ______ ____
ROOT
ATOM      1  C   UNL     1     -11.763  12.784  65.580  0.00  0.00    +0.307 C 
ATOM      2  C   UNL     1     -10.317  13.699  65.499  0.00  0.00    +0.195 C 
ATOM      3  C   UNL     1     -10.308  13.982  67.175  0.00  0.00    +0.179 C 
ATOM      4  C   UNL     1     -10.775  15.620  67.043  0.00  0.00    +0.211 C 
ATOM      5  C   UNL     1      -9.899  15.795  65.669  0.00  0.00    +0.178 C 
ATOM      6  O   UNL     1      -9.629  16.034  67.940  0.00  0.00    -0.218 OA
ATOM      7  O   UNL     1     -11.713  13.570  67.443  0.00  0.00    -0.347 OA
ATOM      8  O   UNL     1     -10.928  15.007  65.117  0.00  0.00    -0.347 OA
ATOM      9  C   UNL     1     -12.454  14.005  66.416  0.00  0.00    +0.196 C 
ENDROOT
BRANCH   1  10
ATOM     10  O   UNL     1     -12.318  13.272  64.240  0.00  0.00    -0.199 OA
BRANCH  10  12
ATOM     11  O   UNL     1     -13.005  12.084  63.336  0.00  0.00    +0.093 OA
ATOM     12  N   UNL     1     -12.514  12.108  63.500  0.00  0.00    +0.285 N 
ATOM     13  O   UNL     1     -11.431  11.276  63.336  0.00  0.00    -0.534 OA
ENDBRANCH  10  12
ENDBRANCH   1  10
TORSDOF 2
ENDMDL
MODEL 6
REMARK VINA RESULT:      -4.5      2.151      3.852
REMARK  Name = 
REMARK  2 active torsions:
REMARK  status: ('A' for Active; 'I' for Inactive)
REMARK    1  A    between atoms: N_2  and  O_4
REMARK    2  A    between atoms: O_4  and  C_5
REMARK                            x       y       z     vdW  Elec       q    Type
REMARK                         _______ _______ _______ _____ _____    ______ ____
ROOT
ATOM      1  C   UNL     1     -11.863  14.438  65.375  0.00  0.00    +0.307 C 
ATOM      2  C   UNL     1     -11.332  14.775  66.968  0.00  0.00    +0.195 C 
ATOM      3  C   UNL     1     -10.443  16.136  66.470  0.00  0.00    +0.179 C 
ATOM      4  C   UNL     1      -8.921  15.381  66.646  0.00  0.00    +0.211 C 
ATOM      5  C   UNL     1      -9.443  14.553  67.960  0.00  0.00    +0.178 C 
ATOM      6  O   UNL     1      -8.418  16.551  67.462  0.00  0.00    -0.218 OA
ATOM      7  O   UNL     1     -10.455  15.845  65.010  0.00  0.00    -0.347 OA
ATOM      8  O   UNL     1     -10.176  13.829  66.998  0.00  0.00    -0.347 OA
ATOM      9  C   UNL     1     -10.311  14.521  64.872  0.00  0.00    +0.196 C 
ENDROOT
BRANCH   1  10
ATOM     10  O   UNL     1     -11.824  12.916  65.528  0.00  0.00    -0.199 OA
BRANCH  10  12
ATOM     11  O   UNL     1     -13.211  12.533  64.734  0.00  0.00    +0.093 OA
ATOM     12  N   UNL     1     -12.726  12.448  64.574  0.00  0.00    +0.285 N 
ATOM     13  O   UNL     1     -12.201  11.880  63.436  0.00  0.00    -0.534 OA
ENDBRANCH  10  12
ENDBRANCH   1  10
TORSDOF 2
ENDMDL
MODEL 7
REMARK VINA RESULT:      -4.5      1.680      2.203
REMARK  Name = 
REMARK  2 active torsions:
REMARK  status: ('A' for Active; 'I' for Inactive)
REMARK    1  A    between atoms: N_2  and  O_4
REMARK    2  A    between atoms: O_4  and  C_5
REMARK                            x       y       z     vdW  Elec       q    Type
REMARK                         _______ _______ _______ _____ _____    ______ ____
ROOT
ATOM      1  C   UNL     1      -9.677  15.755  65.817  0.00  0.00    +0.307 C 
ATOM      2  C   UNL     1     -10.064  14.686  67.099  0.00  0.00    +0.195 C 
ATOM      3  C   UNL     1     -10.299  13.376  66.042  0.00  0.00    +0.179 C 
ATOM      4  C   UNL     1     -12.002  13.384  66.185  0.00  0.00    +0.211 C 
ATOM      5  C   UNL     1     -11.902  13.805  67.766  0.00  0.00    +0.178 C 
ATOM      6  O   UNL     1     -11.999  11.901  66.480  0.00  0.00    -0.218 OA
ATOM      7  O   UNL     1     -10.370  14.163  64.780  0.00  0.00    -0.347 OA
ATOM      8  O   UNL     1     -11.507  15.048  67.232  0.00  0.00    -0.347 OA
ATOM      9  C   UNL     1     -11.043  15.287  65.053  0.00  0.00    +0.196 C 
ENDROOT
BRANCH   1  10
ATOM     10  O   UNL     1     -10.344  16.981  66.444  0.00  0.00    -0.199 OA
BRANCH  10  12
ATOM     11  O   UNL     1      -9.831  18.480  66.006  0.00  0.00    +0.093 OA
ATOM     12  N   UNL     1      -9.543  18.052  66.051  0.00  0.00    +0.285 N 
ATOM     13  O   UNL     1      -8.202  17.802  65.869  0.00  0.00    -0.534 OA
ENDBRANCH  10  12
ENDBRANCH   1  10
TORSDOF 2
ENDMDL
MODEL 8
REMARK VINA RESULT:      -4.4      2.294      3.172
REMARK  Name = 
REMARK  2 active torsions:
REMARK  status: ('A' for Active; 'I' for Inactive)
REMARK    1  A    between atoms: N_2  and  O_4
REMARK    2  A    between atoms: O_4  and  C_5
REMARK                            x       y       z     vdW  Elec       q    Type
REMARK                         _______ _______ _______ _____ _____    ______ ____
ROOT
ATOM      1  C   UNL     1     -11.086  12.787  66.268  0.00  0.00    +0.307 C 
ATOM      2  C   UNL     1     -11.422  12.526  67.927  0.00  0.00    +0.195 C 
ATOM      3  C   UNL     1      -9.865  11.914  68.228  0.00  0.00    +0.179 C 
ATOM      4  C   UNL     1     -10.378  10.290  68.372  0.00  0.00    +0.211 C 
ATOM      5  C   UNL     1     -11.776  10.759  69.090  0.00  0.00    +0.178 C 
ATOM      6  O   UNL     1      -9.637  10.156  69.683  0.00  0.00    -0.218 OA
ATOM      7  O   UNL     1      -9.471  11.697  66.809  0.00  0.00    -0.347 OA
ATOM      8  O   UNL     1     -12.094  11.199  67.789  0.00  0.00    -0.347 OA
ATOM      9  C   UNL     1     -10.554  11.246  66.163  0.00  0.00    +0.196 C 
ENDROOT
BRANCH   1  10
ATOM     10  O   UNL     1     -12.490  12.427  65.777  0.00  0.00    -0.199 OA
BRANCH  10  12
ATOM     11  O   UNL     1     -13.029  13.837  65.129  0.00  0.00    +0.093 OA
ATOM     12  N   UNL     1     -12.815  13.440  64.877  0.00  0.00    +0.285 N 
ATOM     13  O   UNL     1     -12.520  13.222  63.551  0.00  0.00    -0.534 OA
ENDBRANCH  10  12
ENDBRANCH   1  10
TORSDOF 2
ENDMDL
MODEL 9
REMARK VINA RESULT:      -4.3      2.669      4.191
REMARK  Name = 
REMARK  2 active torsions:
REMARK  status: ('A' for Active; 'I' for Inactive)
REMARK    1  A    between atoms: N_2  and  O_4
REMARK    2  A    between atoms: O_4  and  C_5
REMARK                            x       y       z     vdW  Elec       q    Type
REMARK                         _______ _______ _______ _____ _____    ______ ____
ROOT
ATOM      1  C   UNL     1     -10.625  14.589  65.757  0.00  0.00    +0.307 C 
ATOM      2  C   UNL     1     -10.402  16.265  66.033  0.00  0.00    +0.195 C 
ATOM      3  C   UNL     1      -8.746  16.072  66.362  0.00  0.00    +0.179 C 
ATOM      4  C   UNL     1      -8.908  16.314  68.046  0.00  0.00    +0.211 C 
ATOM      5  C   UNL     1     -10.088  17.427  67.808  0.00  0.00    +0.178 C 
ATOM      6  O   UNL     1      -7.800  17.342  68.021  0.00  0.00    -0.218 OA
ATOM      7  O   UNL     1      -8.760  14.594  66.540  0.00  0.00    -0.347 OA
ATOM      8  O   UNL     1     -10.848  16.293  67.459  0.00  0.00    -0.347 OA
ATOM      9  C   UNL     1      -9.892  14.286  67.185  0.00  0.00    +0.196 C 
ENDROOT
BRANCH   1  10
ATOM     10  O   UNL     1     -12.028  14.526  66.364  0.00  0.00    -0.199 OA
BRANCH  10  12
ATOM     11  O   UNL     1     -13.080  14.014  65.210  0.00  0.00    +0.093 OA
ATOM     12  N   UNL     1     -12.752  13.723  65.485  0.00  0.00    +0.285 N 
ATOM     13  O   UNL     1     -12.481  12.375  65.495  0.00  0.00    -0.534 OA
ENDBRANCH  10  12
ENDBRANCH   1  10
TORSDOF 2
ENDMDL
