MODEL 1
REMARK VINA RESULT:      -6.3      0.000      0.000
REMARK  Name = 
REMARK  3 active torsions:
REMARK  status: ('A' for Active; 'I' for Inactive)
REMARK    1  A    between atoms: C_7  and  O_8
REMARK    2  A    between atoms: O_8  and  C_9
REMARK    3  A    between atoms: C_9  and  C_10
REMARK                            x       y       z     vdW  Elec       q    Type
REMARK                         _______ _______ _______ _____ _____    ______ ____
ROOT
ATOM      1  C   UNL     1     -13.116  14.569  72.491  0.00  0.00    +0.031 C 
ATOM      2  C   UNL     1     -12.940  13.629  71.338  0.00  0.00    -0.019 A 
ATOM      3  C   UNL     1     -12.523  14.193  70.167  0.00  0.00    +0.033 A 
ATOM      4  C   UNL     1     -11.851  13.504  69.163  0.00  0.00    +0.138 A 
ATOM      5  C   UNL     1     -11.644  12.155  69.410  0.00  0.00    +0.033 A 
ATOM      6  C   UNL     1     -12.239  11.512  70.488  0.00  0.00    -0.019 A 
ATOM      7  C   UNL     1     -12.010  10.060  70.764  0.00  0.00    +0.031 C 
ATOM      8  C   UNL     1     -12.771  12.270  71.513  0.00  0.00    -0.008 A 
ENDROOT
BRANCH   4   9
ATOM      9  O   UNL     1     -12.007  14.038  67.902  0.00  0.00    -0.472 OA
BRANCH   9  10
ATOM     10  C   UNL     1     -11.008  14.588  67.100  0.00  0.00    +0.251 C 
BRANCH  10  11
ATOM     11  C   UNL     1     -10.981  13.630  65.744  0.00  0.00    +0.235 C 
ATOM     12  O   UNL     1     -10.463  14.797  64.870  0.00  0.00    -0.432 OA
ATOM     13  C   UNL     1     -11.497  15.644  64.671  0.00  0.00    +0.421 C 
ATOM     14  O   UNL     1     -11.357  16.756  64.077  0.00  0.00    -0.225 OA
ATOM     15  N   UNL     1     -12.503  14.707  64.248  0.00  0.00    -0.165 NA
ATOM     16  C   UNL     1     -12.584  13.919  65.440  0.00  0.00    +0.166 C 
ENDBRANCH  10  11
ENDBRANCH   9  10
ENDBRANCH   4   9
TORSDOF 3
ENDMDL
MODEL 2
REMARK VINA RESULT:      -6.2      1.768      2.158
REMARK  Name = 
REMARK  3 active torsions:
REMARK  status: ('A' for Active; 'I' for Inactive)
REMARK    1  A    between atoms: C_7  and  O_8
REMARK    2  A    between atoms: O_8  and  C_9
REMARK    3  A    between atoms: C_9  and  C_10
REMARK                            x       y       z     vdW  Elec       q    Type
REMARK                         _______ _______ _______ _____ _____    ______ ____
ROOT
ATOM      1  C   UNL     1     -12.079  14.801  71.250  0.00  0.00    +0.031 C 
ATOM      2  C   UNL     1     -12.369  13.483  70.600  0.00  0.00    -0.019 A 
ATOM      3  C   UNL     1     -12.001  13.369  69.291  0.00  0.00    +0.033 A 
ATOM      4  C   UNL     1     -11.727  12.161  68.658  0.00  0.00    +0.138 A 
ATOM      5  C   UNL     1     -11.882  11.033  69.449  0.00  0.00    +0.033 A 
ATOM      6  C   UNL     1     -12.457  11.101  70.712  0.00  0.00    -0.019 A 
ATOM      7  C   UNL     1     -12.617   9.887  71.571  0.00  0.00    +0.031 C 
ATOM      8  C   UNL     1     -12.575  12.330  71.331  0.00  0.00    -0.008 A 
ENDROOT
BRANCH   4   9
ATOM      9  O   UNL     1     -11.922  12.176  67.293  0.00  0.00    -0.472 OA
BRANCH   9  10
ATOM     10  C   UNL     1     -11.445  13.127  66.393  0.00  0.00    +0.251 C 
BRANCH  10  11
ATOM     11  C   UNL     1     -12.810  13.852  65.784  0.00  0.00    +0.235 C 
ATOM     12  O   UNL     1     -13.160  12.600  64.945  0.00  0.00    -0.432 OA
ATOM     13  C   UNL     1     -12.300  12.556  63.904  0.00  0.00    +0.421 C 
ATOM     14  O   UNL     1     -12.268  11.582  63.092  0.00  0.00    -0.225 OA
ATOM     15  N   UNL     1     -12.427  13.906  63.425  0.00  0.00    -0.165 NA
ATOM     16  C   UNL     1     -11.944  14.596  64.582  0.00  0.00    +0.166 C 
ENDBRANCH  10  11
ENDBRANCH   9  10
ENDBRANCH   4   9
TORSDOF 3
ENDMDL
MODEL 3
REMARK VINA RESULT:      -6.1      0.620      2.200
REMARK  Name = 
REMARK  3 active torsions:
REMARK  status: ('A' for Active; 'I' for Inactive)
REMARK    1  A    between atoms: C_7  and  O_8
REMARK    2  A    between atoms: O_8  and  C_9
REMARK    3  A    between atoms: C_9  and  C_10
REMARK                            x       y       z     vdW  Elec       q    Type
REMARK                         _______ _______ _______ _____ _____    ______ ____
ROOT
ATOM      1  C   UNL     1     -12.800  10.687  71.009  0.00  0.00    +0.031 C 
ATOM      2  C   UNL     1     -12.455  12.143  70.924  0.00  0.00    -0.019 A 
ATOM      3  C   UNL     1     -11.958  12.570  69.727  0.00  0.00    +0.033 A 
ATOM      4  C   UNL     1     -12.032  13.883  69.274  0.00  0.00    +0.138 A 
ATOM      5  C   UNL     1     -12.633  14.776  70.148  0.00  0.00    +0.033 A 
ATOM      6  C   UNL     1     -12.954  14.416  71.451  0.00  0.00    -0.019 A 
ATOM      7  C   UNL     1     -13.611  15.374  72.393  0.00  0.00    +0.031 C 
ATOM      8  C   UNL     1     -12.987  13.078  71.790  0.00  0.00    -0.008 A 
ENDROOT
BRANCH   4   9
ATOM      9  O   UNL     1     -11.045  14.232  68.377  0.00  0.00    -0.472 OA
BRANCH   9  10
ATOM     10  C   UNL     1     -11.209  14.955  67.197  0.00  0.00    +0.251 C 
BRANCH  10  11
ATOM     11  C   UNL     1     -11.003  13.837  65.986  0.00  0.00    +0.235 C 
ATOM     12  O   UNL     1     -10.535  14.927  64.993  0.00  0.00    -0.432 OA
ATOM     13  C   UNL     1     -11.624  15.636  64.624  0.00  0.00    +0.421 C 
ATOM     14  O   UNL     1     -11.544  16.670  63.895  0.00  0.00    -0.225 OA
ATOM     15  N   UNL     1     -12.510  14.558  64.276  0.00  0.00    -0.165 NA
ATOM     16  C   UNL     1     -12.601  13.926  65.557  0.00  0.00    +0.166 C 
ENDBRANCH  10  11
ENDBRANCH   9  10
ENDBRANCH   4   9
TORSDOF 3
ENDMDL
MODEL 4
REMARK VINA RESULT:      -6.0      2.228      2.870
REMARK  Name = 
REMARK  3 active torsions:
REMARK  status: ('A' for Active; 'I' for Inactive)
REMARK    1  A    between atoms: C_7  and  O_8
REMARK    2  A    between atoms: O_8  and  C_9
REMARK    3  A    between atoms: C_9  and  C_10
REMARK                            x       y       z     vdW  Elec       q    Type
REMARK                         _______ _______ _______ _____ _____    ______ ____
ROOT
ATOM      1  C   UNL     1     -12.439  16.059  74.265  0.00  0.00    +0.031 C 
ATOM      2  C   UNL     1     -12.649  15.442  72.917  0.00  0.00    -0.019 A 
ATOM      3  C   UNL     1     -12.078  16.098  71.865  0.00  0.00    +0.033 A 
ATOM      4  C   UNL     1     -11.732  15.492  70.661  0.00  0.00    +0.138 A 
ATOM      5  C   UNL     1     -12.036  14.142  70.571  0.00  0.00    +0.033 A 
ATOM      6  C   UNL     1     -12.804  13.502  71.536  0.00  0.00    -0.019 A 
ATOM      7  C   UNL     1     -13.126  12.044  71.447  0.00  0.00    +0.031 C 
ATOM      8  C   UNL     1     -12.994  14.115  72.759  0.00  0.00    -0.008 A 
ENDROOT
BRANCH   4   9
ATOM      9  O   UNL     1     -11.705  16.347  69.580  0.00  0.00    -0.472 OA
BRANCH   9  10
ATOM     10  C   UNL     1     -11.217  16.064  68.306  0.00  0.00    +0.251 C 
BRANCH  10  11
ATOM     11  C   UNL     1      -9.930  17.095  68.109  0.00  0.00    +0.235 C 
ATOM     12  O   UNL     1     -10.548  17.700  66.826  0.00  0.00    -0.432 OA
ATOM     13  C   UNL     1     -10.411  16.787  65.839  0.00  0.00    +0.421 C 
ATOM     14  O   UNL     1     -10.918  16.952  64.689  0.00  0.00    -0.225 OA
ATOM     15  N   UNL     1      -9.015  16.475  65.988  0.00  0.00    -0.165 NA
ATOM     16  C   UNL     1      -9.052  15.936  67.314  0.00  0.00    +0.166 C 
ENDBRANCH  10  11
ENDBRANCH   9  10
ENDBRANCH   4   9
TORSDOF 3
ENDMDL
MODEL 5
REMARK VINA RESULT:      -5.9      3.375      5.847
REMARK  Name = 
REMARK  3 active torsions:
REMARK  status: ('A' for Active; 'I' for Inactive)
REMARK    1  A    between atoms: C_7  and  O_8
REMARK    2  A    between atoms: O_8  and  C_9
REMARK    3  A    between atoms: C_9  and  C_10
REMARK                            x       y       z     vdW  Elec       q    Type
REMARK                         _______ _______ _______ _____ _____    ______ ____
ROOT
ATOM      1  C   UNL     1     -12.360  13.769  65.430  0.00  0.00    +0.031 C 
ATOM      2  C   UNL     1     -11.713  13.079  66.592  0.00  0.00    -0.019 A 
ATOM      3  C   UNL     1     -11.882  13.673  67.808  0.00  0.00    +0.033 A 
ATOM      4  C   UNL     1     -11.807  13.001  69.024  0.00  0.00    +0.138 A 
ATOM      5  C   UNL     1     -11.512  11.649  68.933  0.00  0.00    +0.033 A 
ATOM      6  C   UNL     1     -11.128  11.066  67.732  0.00  0.00    -0.019 A 
ATOM      7  C   UNL     1     -10.818   9.606  67.628  0.00  0.00    +0.031 C 
ATOM      8  C   UNL     1     -11.356  11.745  66.551  0.00  0.00    -0.008 A 
ENDROOT
BRANCH   4   9
ATOM      9  O   UNL     1     -11.452  13.795  70.093  0.00  0.00    -0.472 OA
BRANCH   9  10
ATOM     10  C   UNL     1     -12.240  14.102  71.201  0.00  0.00    +0.251 C 
BRANCH  10  11
ATOM     11  C   UNL     1     -12.903  15.583  70.849  0.00  0.00    +0.235 C 
ATOM     12  O   UNL     1     -12.282  16.217  72.116  0.00  0.00    -0.432 OA
ATOM     13  C   UNL     1     -12.985  15.770  73.180  0.00  0.00    +0.421 C 
ATOM     14  O   UNL     1     -12.647  16.032  74.374  0.00  0.00    -0.225 OA
ATOM     15  N   UNL     1     -14.321  16.038  72.719  0.00  0.00    -0.165 NA
ATOM     16  C   UNL     1     -14.335  15.176  71.576  0.00  0.00    +0.166 C 
ENDBRANCH  10  11
ENDBRANCH   9  10
ENDBRANCH   4   9
TORSDOF 3
ENDMDL
MODEL 6
REMARK VINA RESULT:      -5.8      1.467      2.777
REMARK  Name = 
REMARK  3 active torsions:
REMARK  status: ('A' for Active; 'I' for Inactive)
REMARK    1  A    between atoms: C_7  and  O_8
REMARK    2  A    between atoms: O_8  and  C_9
REMARK    3  A    between atoms: C_9  and  C_10
REMARK                            x       y       z     vdW  Elec       q    Type
REMARK                         _______ _______ _______ _____ _____    ______ ____
ROOT
ATOM      1  C   UNL     1     -13.157  10.092  71.384  0.00  0.00    +0.031 C 
ATOM      2  C   UNL     1     -12.690  11.510  71.260  0.00  0.00    -0.019 A 
ATOM      3  C   UNL     1     -11.977  11.808  70.135  0.00  0.00    +0.033 A 
ATOM      4  C   UNL     1     -11.875  13.083  69.590  0.00  0.00    +0.138 A 
ATOM      5  C   UNL     1     -12.535  14.080  70.291  0.00  0.00    +0.033 A 
ATOM      6  C   UNL     1     -13.087  13.846  71.545  0.00  0.00    -0.019 A 
ATOM      7  C   UNL     1     -13.809  14.916  72.300  0.00  0.00    +0.031 C 
ATOM      8  C   UNL     1     -13.278  12.543  71.963  0.00  0.00    -0.008 A 
ENDROOT
BRANCH   4   9
ATOM      9  O   UNL     1     -10.733  13.294  68.846  0.00  0.00    -0.472 OA
BRANCH   9  10
ATOM     10  C   UNL     1     -10.604  13.168  67.464  0.00  0.00    +0.251 C 
BRANCH  10  11
ATOM     11  C   UNL     1     -11.100  14.633  66.859  0.00  0.00    +0.235 C 
ATOM     12  O   UNL     1     -12.462  14.046  66.419  0.00  0.00    -0.432 OA
ATOM     13  C   UNL     1     -12.240  13.281  65.328  0.00  0.00    +0.421 C 
ATOM     14  O   UNL     1     -13.153  12.577  64.796  0.00  0.00    -0.225 OA
ATOM     15  N   UNL     1     -11.469  14.201  64.536  0.00  0.00    -0.165 NA
ATOM     16  C   UNL     1     -10.345  14.353  65.410  0.00  0.00    +0.166 C 
ENDBRANCH  10  11
ENDBRANCH   9  10
ENDBRANCH   4   9
TORSDOF 3
ENDMDL
MODEL 7
REMARK VINA RESULT:      -5.8      3.720      7.034
REMARK  Name = 
REMARK  3 active torsions:
REMARK  status: ('A' for Active; 'I' for Inactive)
REMARK    1  A    between atoms: C_7  and  O_8
REMARK    2  A    between atoms: O_8  and  C_9
REMARK    3  A    between atoms: C_9  and  C_10
REMARK                            x       y       z     vdW  Elec       q    Type
REMARK                         _______ _______ _______ _____ _____    ______ ____
ROOT
ATOM      1  C   UNL     1     -10.475  14.225  65.399  0.00  0.00    +0.031 C 
ATOM      2  C   UNL     1     -10.716  15.456  66.218  0.00  0.00    -0.019 A 
ATOM      3  C   UNL     1     -11.322  15.261  67.425  0.00  0.00    +0.033 A 
ATOM      4  C   UNL     1     -11.206  16.127  68.507  0.00  0.00    +0.138 A 
ATOM      5  C   UNL     1     -10.437  17.258  68.278  0.00  0.00    +0.033 A 
ATOM      6  C   UNL     1      -9.987  17.588  67.005  0.00  0.00    -0.019 A 
ATOM      7  C   UNL     1      -9.148  18.801  66.756  0.00  0.00    +0.031 C 
ATOM      8  C   UNL     1     -10.014  16.627  66.013  0.00  0.00    -0.008 A 
ENDROOT
BRANCH   4   9
ATOM      9  O   UNL     1     -12.266  16.085  69.388  0.00  0.00    -0.472 OA
BRANCH   9  10
ATOM     10  C   UNL     1     -12.200  15.861  70.762  0.00  0.00    +0.251 C 
BRANCH  10  11
ATOM     11  C   UNL     1     -13.667  15.186  71.149  0.00  0.00    +0.235 C 
ATOM     12  O   UNL     1     -13.747  15.995  72.466  0.00  0.00    -0.432 OA
ATOM     13  C   UNL     1     -12.873  15.442  73.336  0.00  0.00    +0.421 C 
ATOM     14  O   UNL     1     -12.633  15.953  74.472  0.00  0.00    -0.225 OA
ATOM     15  N   UNL     1     -13.252  14.060  73.218  0.00  0.00    -0.165 NA
ATOM     16  C   UNL     1     -12.939  13.864  71.834  0.00  0.00    +0.166 C 
ENDBRANCH  10  11
ENDBRANCH   9  10
ENDBRANCH   4   9
TORSDOF 3
ENDMDL
MODEL 8
REMARK VINA RESULT:      -5.8      2.981      4.022
REMARK  Name = 
REMARK  3 active torsions:
REMARK  status: ('A' for Active; 'I' for Inactive)
REMARK    1  A    between atoms: C_7  and  O_8
REMARK    2  A    between atoms: O_8  and  C_9
REMARK    3  A    between atoms: C_9  and  C_10
REMARK                            x       y       z     vdW  Elec       q    Type
REMARK                         _______ _______ _______ _____ _____    ______ ____
ROOT
ATOM      1  C   UNL     1     -11.587  12.613  67.976  0.00  0.00    +0.031 C 
ATOM      2  C   UNL     1     -11.627  13.552  69.143  0.00  0.00    -0.019 A 
ATOM      3  C   UNL     1     -11.326  14.855  68.870  0.00  0.00    +0.033 A 
ATOM      4  C   UNL     1     -11.755  15.933  69.637  0.00  0.00    +0.138 A 
ATOM      5  C   UNL     1     -12.509  15.601  70.752  0.00  0.00    +0.033 A 
ATOM      6  C   UNL     1     -12.651  14.284  71.170  0.00  0.00    -0.019 A 
ATOM      7  C   UNL     1     -13.471  13.921  72.367  0.00  0.00    +0.031 C 
ATOM      8  C   UNL     1     -12.324  13.263  70.298  0.00  0.00    -0.008 A 
ENDROOT
BRANCH   4   9
ATOM      9  O   UNL     1     -10.943  17.045  69.562  0.00  0.00    -0.472 OA
BRANCH   9  10
ATOM     10  C   UNL     1      -9.888  17.248  68.674  0.00  0.00    +0.251 C 
BRANCH  10  11
ATOM     11  C   UNL     1      -9.884  18.885  68.391  0.00  0.00    +0.235 C 
ATOM     12  O   UNL     1     -10.934  18.742  67.264  0.00  0.00    -0.432 OA
ATOM     13  C   UNL     1     -10.309  18.206  66.192  0.00  0.00    +0.421 C 
ATOM     14  O   UNL     1     -10.934  17.870  65.141  0.00  0.00    -0.225 OA
ATOM     15  N   UNL     1      -9.164  19.074  66.119  0.00  0.00    -0.165 NA
ATOM     16  C   UNL     1      -8.573  18.763  67.386  0.00  0.00    +0.166 C 
ENDBRANCH  10  11
ENDBRANCH   9  10
ENDBRANCH   4   9
TORSDOF 3
ENDMDL
MODEL 9
REMARK VINA RESULT:      -5.7      2.196      3.215
REMARK  Name = 
REMARK  3 active torsions:
REMARK  status: ('A' for Active; 'I' for Inactive)
REMARK    1  A    between atoms: C_7  and  O_8
REMARK    2  A    between atoms: O_8  and  C_9
REMARK    3  A    between atoms: C_9  and  C_10
REMARK                            x       y       z     vdW  Elec       q    Type
REMARK                         _______ _______ _______ _____ _____    ______ ____
ROOT
ATOM      1  C   UNL     1     -12.170  16.171  74.357  0.00  0.00    +0.031 C 
ATOM      2  C   UNL     1     -12.677  15.917  72.970  0.00  0.00    -0.019 A 
ATOM      3  C   UNL     1     -11.770  15.407  72.087  0.00  0.00    +0.033 A 
ATOM      4  C   UNL     1     -12.109  14.668  70.959  0.00  0.00    +0.138 A 
ATOM      5  C   UNL     1     -13.469  14.494  70.754  0.00  0.00    +0.033 A 
ATOM      6  C   UNL     1     -14.414  15.176  71.511  0.00  0.00    -0.019 A 
ATOM      7  C   UNL     1     -15.882  14.984  71.299  0.00  0.00    +0.031 C 
ATOM      8  C   UNL     1     -14.022  15.777  72.692  0.00  0.00    -0.008 A 
ENDROOT
BRANCH   4   9
ATOM      9  O   UNL     1     -11.180  14.721  69.942  0.00  0.00    -0.472 OA
BRANCH   9  10
ATOM     10  C   UNL     1     -11.440  14.870  68.581  0.00  0.00    +0.251 C 
BRANCH  10  11
ATOM     11  C   UNL     1     -10.484  13.731  67.842  0.00  0.00    +0.235 C 
ATOM     12  O   UNL     1     -10.973  14.159  66.439  0.00  0.00    -0.432 OA
ATOM     13  C   UNL     1     -12.234  13.698  66.290  0.00  0.00    +0.421 C 
ATOM     14  O   UNL     1     -12.945  13.983  65.278  0.00  0.00    -0.225 OA
ATOM     15  N   UNL     1     -12.043  12.330  66.691  0.00  0.00    -0.165 NA
ATOM     16  C   UNL     1     -11.634  12.554  68.045  0.00  0.00    +0.166 C 
ENDBRANCH  10  11
ENDBRANCH   9  10
ENDBRANCH   4   9
TORSDOF 3
ENDMDL
