MODEL 1
REMARK VINA RESULT:      -4.6      0.000      0.000
REMARK  Name = 
REMARK  2 active torsions:
REMARK  status: ('A' for Active; 'I' for Inactive)
REMARK    1  A    between atoms: C_2  and  C_3
REMARK    2  A    between atoms: C_6  and  C_7
REMARK                            x       y       z     vdW  Elec       q    Type
REMARK                         _______ _______ _______ _____ _____    ______ ____
ROOT
ATOM      1  C   UNL     1     -10.514  12.382  65.736  0.00  0.00    +0.019 C 
ATOM      2  C   UNL     1     -10.393  13.302  67.110  0.00  0.00    +0.002 C 
ATOM      3  C   UNL     1     -10.825  14.688  66.665  0.00  0.00    +0.011 C 
ATOM      4  C   UNL     1     -10.553  14.706  65.024  0.00  0.00    +0.103 C 
ATOM      5  C   UNL     1     -12.066  14.083  64.717  0.00  0.00    +0.011 C 
ATOM      6  C   UNL     1     -12.105  12.793  65.515  0.00  0.00    +0.002 C 
ENDROOT
BRANCH   4   7
ATOM      7  C   UNL     1     -11.049  16.247  64.884  0.00  0.00    +0.364 C 
ATOM      8  O   UNL     1     -10.122  17.098  65.502  0.00  0.00    -0.246 OA
ATOM      9  O   UNL     1     -11.654  16.559  63.863  0.00  0.00    -0.246 OA
ENDBRANCH   4   7
BRANCH   1  11
ATOM     10  N   UNL     1     -11.862  11.319  67.489  0.00  0.00    -0.131 NA
ATOM     11  C   UNL     1     -10.901  11.015  66.577  0.00  0.00    +0.109 C 
ENDBRANCH   1  11
TORSDOF 2
ENDMDL
MODEL 2
REMARK VINA RESULT:      -4.6      1.094      1.633
REMARK  Name = 
REMARK  2 active torsions:
REMARK  status: ('A' for Active; 'I' for Inactive)
REMARK    1  A    between atoms: C_2  and  C_3
REMARK    2  A    between atoms: C_6  and  C_7
REMARK                            x       y       z     vdW  Elec       q    Type
REMARK                         _______ _______ _______ _____ _____    ______ ____
ROOT
ATOM      1  C   UNL     1     -10.362  12.859  66.995  0.00  0.00    +0.019 C 
ATOM      2  C   UNL     1     -11.961  13.251  67.188  0.00  0.00    +0.002 C 
ATOM      3  C   UNL     1     -12.274  14.125  65.986  0.00  0.00    +0.011 C 
ATOM      4  C   UNL     1     -10.800  14.740  65.520  0.00  0.00    +0.103 C 
ATOM      5  C   UNL     1     -10.504  13.423  64.545  0.00  0.00    +0.011 C 
ATOM      6  C   UNL     1     -10.623  12.235  65.481  0.00  0.00    +0.002 C 
ENDROOT
BRANCH   4   7
ATOM      7  C   UNL     1     -11.461  15.609  64.316  0.00  0.00    +0.364 C 
ATOM      8  O   UNL     1     -12.686  15.038  63.940  0.00  0.00    -0.246 OA
ATOM      9  O   UNL     1     -11.270  16.821  64.319  0.00  0.00    -0.246 OA
ENDBRANCH   4   7
BRANCH   1  11
ATOM     10  N   UNL     1     -11.861  11.181  67.974  0.00  0.00    -0.131 NA
ATOM     11  C   UNL     1     -10.542  11.386  67.720  0.00  0.00    +0.109 C 
ENDBRANCH   1  11
TORSDOF 2
ENDMDL
MODEL 3
REMARK VINA RESULT:      -4.4      2.700      3.560
REMARK  Name = 
REMARK  2 active torsions:
REMARK  status: ('A' for Active; 'I' for Inactive)
REMARK    1  A    between atoms: C_2  and  C_3
REMARK    2  A    between atoms: C_6  and  C_7
REMARK                            x       y       z     vdW  Elec       q    Type
REMARK                         _______ _______ _______ _____ _____    ______ ____
ROOT
ATOM      1  C   UNL     1     -12.092  14.467  67.265  0.00  0.00    +0.019 C 
ATOM      2  C   UNL     1     -11.739  12.854  67.420  0.00  0.00    +0.002 C 
ATOM      3  C   UNL     1     -11.558  12.378  65.990  0.00  0.00    +0.011 C 
ATOM      4  C   UNL     1     -12.413  13.470  65.072  0.00  0.00    +0.103 C 
ATOM      5  C   UNL     1     -11.093  14.478  64.954  0.00  0.00    +0.011 C 
ATOM      6  C   UNL     1     -10.711  14.759  66.395  0.00  0.00    +0.002 C 
ENDROOT
BRANCH   4   7
ATOM      7  C   UNL     1     -12.067  12.690  63.689  0.00  0.00    +0.364 C 
ATOM      8  O   UNL     1     -10.692  12.421  63.631  0.00  0.00    -0.246 OA
ATOM      9  O   UNL     1     -12.911  11.917  63.247  0.00  0.00    -0.246 OA
ENDBRANCH   4   7
BRANCH   1  11
ATOM     10  N   UNL     1     -11.810  16.078  69.094  0.00  0.00    -0.131 NA
ATOM     11  C   UNL     1     -11.368  14.856  68.697  0.00  0.00    +0.109 C 
ENDBRANCH   1  11
TORSDOF 2
ENDMDL
MODEL 4
REMARK VINA RESULT:      -4.3      2.718      3.721
REMARK  Name = 
REMARK  2 active torsions:
REMARK  status: ('A' for Active; 'I' for Inactive)
REMARK    1  A    between atoms: C_2  and  C_3
REMARK    2  A    between atoms: C_6  and  C_7
REMARK                            x       y       z     vdW  Elec       q    Type
REMARK                         _______ _______ _______ _____ _____    ______ ____
ROOT
ATOM      1  C   UNL     1      -9.977  15.197  67.075  0.00  0.00    +0.019 C 
ATOM      2  C   UNL     1     -10.286  16.230  65.815  0.00  0.00    +0.002 C 
ATOM      3  C   UNL     1     -11.276  15.471  64.951  0.00  0.00    +0.011 C 
ATOM      4  C   UNL     1     -11.021  13.871  65.327  0.00  0.00    +0.103 C 
ATOM      5  C   UNL     1     -12.105  13.943  66.588  0.00  0.00    +0.011 C 
ATOM      6  C   UNL     1     -11.585  15.071  67.460  0.00  0.00    +0.002 C 
ENDROOT
BRANCH   4   7
ATOM      7  C   UNL     1     -12.141  13.366  64.262  0.00  0.00    +0.364 C 
ATOM      8  O   UNL     1     -12.990  12.435  64.877  0.00  0.00    -0.246 OA
ATOM      9  O   UNL     1     -12.538  14.175  63.429  0.00  0.00    -0.246 OA
ENDBRANCH   4   7
BRANCH   1  11
ATOM     10  N   UNL     1     -10.924  17.047  68.379  0.00  0.00    -0.131 NA
ATOM     11  C   UNL     1      -9.735  16.430  68.146  0.00  0.00    +0.109 C 
ENDBRANCH   1  11
TORSDOF 2
ENDMDL
MODEL 5
REMARK VINA RESULT:      -4.3      5.336      6.342
REMARK  Name = 
REMARK  2 active torsions:
REMARK  status: ('A' for Active; 'I' for Inactive)
REMARK    1  A    between atoms: C_2  and  C_3
REMARK    2  A    between atoms: C_6  and  C_7
REMARK                            x       y       z     vdW  Elec       q    Type
REMARK                         _______ _______ _______ _____ _____    ______ ____
ROOT
ATOM      1  C   UNL     1     -11.992  15.511  69.011  0.00  0.00    +0.019 C 
ATOM      2  C   UNL     1     -11.112  16.350  70.137  0.00  0.00    +0.002 C 
ATOM      3  C   UNL     1     -11.744  15.964  71.462  0.00  0.00    +0.011 C 
ATOM      4  C   UNL     1     -13.288  15.486  71.066  0.00  0.00    +0.103 C 
ATOM      5  C   UNL     1     -12.787  13.922  70.795  0.00  0.00    +0.011 C 
ATOM      6  C   UNL     1     -11.692  14.059  69.753  0.00  0.00    +0.002 C 
ENDROOT
BRANCH   4   7
ATOM      7  C   UNL     1     -13.676  15.199  72.618  0.00  0.00    +0.364 C 
ATOM      8  O   UNL     1     -13.711  13.816  72.847  0.00  0.00    -0.246 OA
ATOM      9  O   UNL     1     -13.280  15.999  73.460  0.00  0.00    -0.246 OA
ENDBRANCH   4   7
BRANCH   1  11
ATOM     10  N   UNL     1     -11.102  14.666  66.886  0.00  0.00    -0.131 NA
ATOM     11  C   UNL     1     -10.702  15.347  67.993  0.00  0.00    +0.109 C 
ENDBRANCH   1  11
TORSDOF 2
ENDMDL
MODEL 6
REMARK VINA RESULT:      -4.3      3.255      4.204
REMARK  Name = 
REMARK  2 active torsions:
REMARK  status: ('A' for Active; 'I' for Inactive)
REMARK    1  A    between atoms: C_2  and  C_3
REMARK    2  A    between atoms: C_6  and  C_7
REMARK                            x       y       z     vdW  Elec       q    Type
REMARK                         _______ _______ _______ _____ _____    ______ ____
ROOT
ATOM      1  C   UNL     1     -10.549  16.277  66.115  0.00  0.00    +0.019 C 
ATOM      2  C   UNL     1     -10.998  15.542  67.532  0.00  0.00    +0.002 C 
ATOM      3  C   UNL     1     -11.450  14.158  67.102  0.00  0.00    +0.011 C 
ATOM      4  C   UNL     1     -11.870  14.331  65.502  0.00  0.00    +0.103 C 
ATOM      5  C   UNL     1     -10.309  14.027  65.008  0.00  0.00    +0.011 C 
ATOM      6  C   UNL     1      -9.480  15.065  65.742  0.00  0.00    +0.002 C 
ENDROOT
BRANCH   4   7
ATOM      7  C   UNL     1     -12.320  12.774  65.375  0.00  0.00    +0.364 C 
ATOM      8  O   UNL     1     -12.101  12.120  66.596  0.00  0.00    -0.246 OA
ATOM      9  O   UNL     1     -13.274  12.516  64.648  0.00  0.00    -0.246 OA
ENDBRANCH   4   7
BRANCH   1  11
ATOM     10  N   UNL     1      -8.371  17.398  65.968  0.00  0.00    -0.131 NA
ATOM     11  C   UNL     1      -9.384  17.186  66.850  0.00  0.00    +0.109 C 
ENDBRANCH   1  11
TORSDOF 2
ENDMDL
MODEL 7
REMARK VINA RESULT:      -4.2      5.305      6.288
REMARK  Name = 
REMARK  2 active torsions:
REMARK  status: ('A' for Active; 'I' for Inactive)
REMARK    1  A    between atoms: C_2  and  C_3
REMARK    2  A    between atoms: C_6  and  C_7
REMARK                            x       y       z     vdW  Elec       q    Type
REMARK                         _______ _______ _______ _____ _____    ______ ____
ROOT
ATOM      1  C   UNL     1     -13.189  15.504  71.736  0.00  0.00    +0.019 C 
ATOM      2  C   UNL     1     -13.296  13.879  72.047  0.00  0.00    +0.002 C 
ATOM      3  C   UNL     1     -12.467  13.238  70.948  0.00  0.00    +0.011 C 
ATOM      4  C   UNL     1     -12.459  14.360  69.719  0.00  0.00    +0.103 C 
ATOM      5  C   UNL     1     -11.119  15.118  70.354  0.00  0.00    +0.011 C 
ATOM      6  C   UNL     1     -11.531  15.474  71.770  0.00  0.00    +0.002 C 
ENDROOT
BRANCH   4   7
ATOM      7  C   UNL     1     -11.580  13.399  68.748  0.00  0.00    +0.364 C 
ATOM      8  O   UNL     1     -11.821  12.055  69.071  0.00  0.00    -0.246 OA
ATOM      9  O   UNL     1     -11.388  13.777  67.597  0.00  0.00    -0.246 OA
ENDBRANCH   4   7
BRANCH   1  11
ATOM     10  N   UNL     1     -12.364  15.200  74.027  0.00  0.00    -0.131 NA
ATOM     11  C   UNL     1     -13.293  15.909  73.333  0.00  0.00    +0.109 C 
ENDBRANCH   1  11
TORSDOF 2
ENDMDL
MODEL 8
REMARK VINA RESULT:      -4.1      3.674      4.676
REMARK  Name = 
REMARK  2 active torsions:
REMARK  status: ('A' for Active; 'I' for Inactive)
REMARK    1  A    between atoms: C_2  and  C_3
REMARK    2  A    between atoms: C_6  and  C_7
REMARK                            x       y       z     vdW  Elec       q    Type
REMARK                         _______ _______ _______ _____ _____    ______ ____
ROOT
ATOM      1  C   UNL     1     -11.015  14.410  65.200  0.00  0.00    +0.019 C 
ATOM      2  C   UNL     1     -11.392  13.186  64.148  0.00  0.00    +0.002 C 
ATOM      3  C   UNL     1     -11.438  11.947  65.024  0.00  0.00    +0.011 C 
ATOM      4  C   UNL     1     -10.492  12.328  66.339  0.00  0.00    +0.103 C 
ATOM      5  C   UNL     1     -11.787  13.000  67.139  0.00  0.00    +0.011 C 
ATOM      6  C   UNL     1     -12.305  14.059  66.182  0.00  0.00    +0.002 C 
ENDROOT
BRANCH   4   7
ATOM      7  C   UNL     1     -10.708  10.864  67.011  0.00  0.00    +0.364 C 
ATOM      8  O   UNL     1     -11.879  10.868  67.782  0.00  0.00    -0.246 OA
ATOM      9  O   UNL     1     -10.343   9.884  66.369  0.00  0.00    -0.246 OA
ENDBRANCH   4   7
BRANCH   1  11
ATOM     10  N   UNL     1     -11.195  16.711  64.367  0.00  0.00    -0.131 NA
ATOM     11  C   UNL     1     -11.872  15.532  64.344  0.00  0.00    +0.109 C 
ENDBRANCH   1  11
TORSDOF 2
ENDMDL
MODEL 9
REMARK VINA RESULT:      -4.1      2.417      3.158
REMARK  Name = 
REMARK  2 active torsions:
REMARK  status: ('A' for Active; 'I' for Inactive)
REMARK    1  A    between atoms: C_2  and  C_3
REMARK    2  A    between atoms: C_6  and  C_7
REMARK                            x       y       z     vdW  Elec       q    Type
REMARK                         _______ _______ _______ _____ _____    ______ ____
ROOT
ATOM      1  C   UNL     1      -9.318  11.388  65.712  0.00  0.00    +0.019 C 
ATOM      2  C   UNL     1     -10.668  11.649  66.639  0.00  0.00    +0.002 C 
ATOM      3  C   UNL     1     -11.710  12.131  65.646  0.00  0.00    +0.011 C 
ATOM      4  C   UNL     1     -10.827  12.748  64.378  0.00  0.00    +0.103 C 
ATOM      5  C   UNL     1     -10.748  11.256  63.643  0.00  0.00    +0.011 C 
ATOM      6  C   UNL     1     -10.128  10.357  64.696  0.00  0.00    +0.002 C 
ENDROOT
BRANCH   4   7
ATOM      7  C   UNL     1     -12.164  13.189  63.565  0.00  0.00    +0.364 C 
ATOM      8  O   UNL     1     -13.013  12.082  63.420  0.00  0.00    -0.246 OA
ATOM      9  O   UNL     1     -12.586  14.327  63.741  0.00  0.00    -0.246 OA
ENDBRANCH   4   7
BRANCH   1  11
ATOM     10  N   UNL     1      -9.799   9.261  66.837  0.00  0.00    -0.131 NA
ATOM     11  C   UNL     1      -8.787  10.154  66.671  0.00  0.00    +0.109 C 
ENDBRANCH   1  11
TORSDOF 2
ENDMDL
