MODEL 1
REMARK VINA RESULT:      -6.2      0.000      0.000
REMARK  Name = 
REMARK  6 active torsions:
REMARK  status: ('A' for Active; 'I' for Inactive)
REMARK    1  A    between atoms: N_2  and  C_4
REMARK    2  A    between atoms: C_4  and  C_5
REMARK    3  A    between atoms: C_5  and  O_6
REMARK    4  A    between atoms: O_6  and  C_7
REMARK    5  A    between atoms: C_7  and  C_9
REMARK    6  A    between atoms: C_7  and  C_15
REMARK                            x       y       z     vdW  Elec       q    Type
REMARK                         _______ _______ _______ _____ _____    ______ ____
ROOT
ATOM      1  C   UNL     1     -11.302  15.074  69.506  0.00  0.00    +0.146 C 
ATOM      2  C   UNL     1      -9.813  15.113  69.719  0.00  0.00    +0.040 C 
ENDROOT
BRANCH   1   3
ATOM      3  C   UNL     1     -11.702  13.957  68.618  0.00  0.00    +0.007 A 
ATOM      4  C   UNL     1     -11.989  14.263  67.306  0.00  0.00    -0.002 A 
ATOM      5  C   UNL     1     -12.058  13.191  66.426  0.00  0.00    -0.000 A 
ATOM      6  C   UNL     1     -11.506  11.964  66.745  0.00  0.00    -0.000 A 
ATOM      7  C   UNL     1     -11.168  11.675  68.056  0.00  0.00    -0.000 A 
ATOM      8  C   UNL     1     -11.378  12.682  68.986  0.00  0.00    -0.002 A 
ENDBRANCH   1   3
BRANCH   1   9
ATOM      9  C   UNL     1     -11.976  14.829  70.816  0.00  0.00    +0.087 A 
ATOM     10  N   UNL     1     -11.369  15.151  71.966  0.00  0.00    -0.246 NA
ATOM     11  C   UNL     1     -12.098  15.463  73.065  0.00  0.00    +0.099 A 
ATOM     12  C   UNL     1     -13.432  15.823  72.952  0.00  0.00    +0.021 A 
ATOM     13  C   UNL     1     -14.110  15.356  71.852  0.00  0.00    +0.003 A 
ATOM     14  C   UNL     1     -13.364  14.820  70.830  0.00  0.00    +0.017 A 
ENDBRANCH   1   9
BRANCH   1  15
ATOM     15  O   UNL     1     -11.757  16.301  69.042  0.00  0.00    -0.347 OA
BRANCH  15  16
ATOM     16  C   UNL     1     -10.621  17.107  68.872  0.00  0.00    +0.160 C 
BRANCH  16  17
ATOM     17  C   UNL     1     -10.619  17.676  67.474  0.00  0.00    +0.105 C 
BRANCH  17  19
ATOM     18  C   UNL     1     -10.509  19.671  66.186  0.00  0.00    +0.090 C 
ATOM     19  N   UNL     1     -10.764  19.110  67.490  0.00  0.00    -0.268 NA
ATOM     20  C   UNL     1      -9.879  19.669  68.497  0.00  0.00    +0.090 C 
ENDBRANCH  17  19
ENDBRANCH  16  17
ENDBRANCH  15  16
ENDBRANCH   1  15
TORSDOF 6
ENDMDL
MODEL 2
REMARK VINA RESULT:      -6.0      1.870      5.864
REMARK  Name = 
REMARK  6 active torsions:
REMARK  status: ('A' for Active; 'I' for Inactive)
REMARK    1  A    between atoms: N_2  and  C_4
REMARK    2  A    between atoms: C_4  and  C_5
REMARK    3  A    between atoms: C_5  and  O_6
REMARK    4  A    between atoms: O_6  and  C_7
REMARK    5  A    between atoms: C_7  and  C_9
REMARK    6  A    between atoms: C_7  and  C_15
REMARK                            x       y       z     vdW  Elec       q    Type
REMARK                         _______ _______ _______ _____ _____    ______ ____
ROOT
ATOM      1  C   UNL     1     -10.487  16.132  68.536  0.00  0.00    +0.146 C 
ATOM      2  C   UNL     1      -9.526  15.573  69.550  0.00  0.00    +0.040 C 
ENDROOT
BRANCH   1   3
ATOM      3  C   UNL     1      -9.948  17.345  67.877  0.00  0.00    +0.007 A 
ATOM      4  C   UNL     1     -10.840  18.143  67.194  0.00  0.00    -0.002 A 
ATOM      5  C   UNL     1     -10.391  19.412  66.852  0.00  0.00    -0.000 A 
ATOM      6  C   UNL     1      -9.293  19.977  67.474  0.00  0.00    -0.000 A 
ATOM      7  C   UNL     1      -8.425  19.184  68.205  0.00  0.00    -0.000 A 
ATOM      8  C   UNL     1      -8.746  17.838  68.299  0.00  0.00    -0.002 A 
ENDBRANCH   1   3
BRANCH   1   9
ATOM      9  C   UNL     1     -10.695  15.124  67.453  0.00  0.00    +0.087 A 
ATOM     10  N   UNL     1     -11.911  14.615  67.219  0.00  0.00    -0.246 NA
ATOM     11  C   UNL     1     -12.247  14.173  65.984  0.00  0.00    +0.099 A 
ATOM     12  C   UNL     1     -11.518  14.561  64.869  0.00  0.00    +0.021 A 
ATOM     13  C   UNL     1     -10.211  14.929  65.080  0.00  0.00    +0.003 A 
ATOM     14  C   UNL     1      -9.818  15.151  66.378  0.00  0.00    +0.017 A 
ENDBRANCH   1   9
BRANCH   1  15
ATOM     15  O   UNL     1     -11.727  16.359  69.119  0.00  0.00    -0.347 OA
BRANCH  15  16
ATOM     16  C   UNL     1     -11.616  15.952  70.457  0.00  0.00    +0.160 C 
BRANCH  16  17
ATOM     17  C   UNL     1     -12.771  15.041  70.798  0.00  0.00    +0.105 C 
BRANCH  17  19
ATOM     18  C   UNL     1     -13.244  15.804  72.999  0.00  0.00    +0.090 C 
ATOM     19  N   UNL     1     -13.731  15.702  71.646  0.00  0.00    -0.268 NA
ATOM     20  C   UNL     1     -14.995  14.989  71.582  0.00  0.00    +0.090 C 
ENDBRANCH  17  19
ENDBRANCH  16  17
ENDBRANCH  15  16
ENDBRANCH   1  15
TORSDOF 6
ENDMDL
MODEL 3
REMARK VINA RESULT:      -5.8      3.810      6.890
REMARK  Name = 
REMARK  6 active torsions:
REMARK  status: ('A' for Active; 'I' for Inactive)
REMARK    1  A    between atoms: N_2  and  C_4
REMARK    2  A    between atoms: C_4  and  C_5
REMARK    3  A    between atoms: C_5  and  O_6
REMARK    4  A    between atoms: O_6  and  C_7
REMARK    5  A    between atoms: C_7  and  C_9
REMARK    6  A    between atoms: C_7  and  C_15
REMARK                            x       y       z     vdW  Elec       q    Type
REMARK                         _______ _______ _______ _____ _____    ______ ____
ROOT
ATOM      1  C   UNL     1      -9.667  16.395  66.459  0.00  0.00    +0.146 C 
ATOM      2  C   UNL     1      -9.967  15.297  67.444  0.00  0.00    +0.040 C 
ENDROOT
BRANCH   1   3
ATOM      3  C   UNL     1     -10.063  17.725  66.980  0.00  0.00    +0.007 A 
ATOM      4  C   UNL     1      -9.643  18.059  68.249  0.00  0.00    -0.002 A 
ATOM      5  C   UNL     1      -9.752  19.398  68.599  0.00  0.00    -0.000 A 
ATOM      6  C   UNL     1      -9.900  20.382  67.638  0.00  0.00    -0.000 A 
ATOM      7  C   UNL     1     -10.270  20.042  66.349  0.00  0.00    -0.000 A 
ATOM      8  C   UNL     1     -10.438  18.690  66.088  0.00  0.00    -0.002 A 
ENDBRANCH   1   3
BRANCH   1   9
ATOM      9  C   UNL     1      -8.192  16.456  66.232  0.00  0.00    +0.087 A 
ATOM     10  N   UNL     1      -7.630  17.545  65.690  0.00  0.00    -0.246 NA
ATOM     11  C   UNL     1      -6.343  17.866  65.968  0.00  0.00    +0.099 A 
ATOM     12  C   UNL     1      -5.700  17.327  67.072  0.00  0.00    +0.021 A 
ATOM     13  C   UNL     1      -6.169  16.121  67.536  0.00  0.00    +0.003 A 
ATOM     14  C   UNL     1      -7.384  15.690  67.061  0.00  0.00    +0.017 A 
ENDBRANCH   1   9
BRANCH   1  15
ATOM     15  O   UNL     1     -10.253  16.117  65.231  0.00  0.00    -0.347 OA
BRANCH  15  16
ATOM     16  C   UNL     1     -10.723  14.797  65.306  0.00  0.00    +0.160 C 
BRANCH  16  17
ATOM     17  C   UNL     1     -12.002  14.679  64.512  0.00  0.00    +0.105 C 
BRANCH  17  19
ATOM     18  C   UNL     1     -12.105  12.667  65.774  0.00  0.00    +0.090 C 
ATOM     19  N   UNL     1     -12.541  13.343  64.578  0.00  0.00    -0.268 NA
ATOM     20  C   UNL     1     -12.160  12.616  63.380  0.00  0.00    +0.090 C 
ENDBRANCH  17  19
ENDBRANCH  16  17
ENDBRANCH  15  16
ENDBRANCH   1  15
TORSDOF 6
ENDMDL
MODEL 4
REMARK VINA RESULT:      -5.8      3.195      4.610
REMARK  Name = 
REMARK  6 active torsions:
REMARK  status: ('A' for Active; 'I' for Inactive)
REMARK    1  A    between atoms: N_2  and  C_4
REMARK    2  A    between atoms: C_4  and  C_5
REMARK    3  A    between atoms: C_5  and  O_6
REMARK    4  A    between atoms: O_6  and  C_7
REMARK    5  A    between atoms: C_7  and  C_9
REMARK    6  A    between atoms: C_7  and  C_15
REMARK                            x       y       z     vdW  Elec       q    Type
REMARK                         _______ _______ _______ _____ _____    ______ ____
ROOT
ATOM      1  C   UNL     1      -9.588  16.357  66.832  0.00  0.00    +0.146 C 
ATOM      2  C   UNL     1      -8.907  15.787  68.046  0.00  0.00    +0.040 C 
ENDROOT
BRANCH   1   3
ATOM      3  C   UNL     1     -10.717  15.508  66.384  0.00  0.00    +0.007 A 
ATOM      4  C   UNL     1     -10.740  15.133  65.058  0.00  0.00    -0.002 A 
ATOM      5  C   UNL     1     -11.612  14.104  64.726  0.00  0.00    -0.000 A 
ATOM      6  C   UNL     1     -12.128  13.261  65.692  0.00  0.00    -0.000 A 
ATOM      7  C   UNL     1     -12.058  13.612  67.029  0.00  0.00    -0.000 A 
ATOM      8  C   UNL     1     -11.420  14.808  67.323  0.00  0.00    -0.002 A 
ENDBRANCH   1   3
BRANCH   1   9
ATOM      9  C   UNL     1     -10.175  17.685  67.180  0.00  0.00    +0.087 A 
ATOM     10  N   UNL     1      -9.936  18.245  68.373  0.00  0.00    -0.246 NA
ATOM     11  C   UNL     1      -9.961  19.592  68.519  0.00  0.00    +0.099 A 
ATOM     12  C   UNL     1      -9.858  20.427  67.416  0.00  0.00    +0.021 A 
ATOM     13  C   UNL     1     -10.259  19.910  66.207  0.00  0.00    +0.003 A 
ATOM     14  C   UNL     1     -10.459  18.553  66.134  0.00  0.00    +0.017 A 
ENDBRANCH   1   9
BRANCH   1  15
ATOM     15  O   UNL     1      -8.664  16.578  65.818  0.00  0.00    -0.347 OA
BRANCH  15  16
ATOM     16  C   UNL     1      -7.404  16.622  66.433  0.00  0.00    +0.160 C 
BRANCH  16  17
ATOM     17  C   UNL     1      -6.635  17.811  65.909  0.00  0.00    +0.105 C 
BRANCH  17  19
ATOM     18  C   UNL     1      -6.074  20.096  66.250  0.00  0.00    +0.090 C 
ATOM     19  N   UNL     1      -6.767  18.950  66.783  0.00  0.00    -0.268 NA
ATOM     20  C   UNL     1      -6.281  18.595  68.105  0.00  0.00    +0.090 C 
ENDBRANCH  17  19
ENDBRANCH  16  17
ENDBRANCH  15  16
ENDBRANCH   1  15
TORSDOF 6
ENDMDL
MODEL 5
REMARK VINA RESULT:      -5.5      1.787      2.457
REMARK  Name = 
REMARK  6 active torsions:
REMARK  status: ('A' for Active; 'I' for Inactive)
REMARK    1  A    between atoms: N_2  and  C_4
REMARK    2  A    between atoms: C_4  and  C_5
REMARK    3  A    between atoms: C_5  and  O_6
REMARK    4  A    between atoms: O_6  and  C_7
REMARK    5  A    between atoms: C_7  and  C_9
REMARK    6  A    between atoms: C_7  and  C_15
REMARK                            x       y       z     vdW  Elec       q    Type
REMARK                         _______ _______ _______ _____ _____    ______ ____
ROOT
ATOM      1  C   UNL     1     -10.743  14.361  67.312  0.00  0.00    +0.146 C 
ATOM      2  C   UNL     1      -9.347  14.158  67.835  0.00  0.00    +0.040 C 
ENDROOT
BRANCH   1   3
ATOM      3  C   UNL     1     -11.150  13.273  66.391  0.00  0.00    +0.007 A 
ATOM      4  C   UNL     1     -12.307  13.457  65.666  0.00  0.00    -0.002 A 
ATOM      5  C   UNL     1     -12.509  12.589  64.601  0.00  0.00    -0.000 A 
ATOM      6  C   UNL     1     -11.466  11.856  64.065  0.00  0.00    -0.000 A 
ATOM      7  C   UNL     1     -10.283  11.715  64.770  0.00  0.00    -0.000 A 
ATOM      8  C   UNL     1     -10.206  12.371  65.989  0.00  0.00    -0.002 A 
ENDBRANCH   1   3
BRANCH   1   9
ATOM      9  C   UNL     1     -11.704  14.323  68.455  0.00  0.00    +0.087 A 
ATOM     10  N   UNL     1     -11.821  13.224  69.211  0.00  0.00    -0.246 NA
ATOM     11  C   UNL     1     -12.216  13.317  70.504  0.00  0.00    +0.099 A 
ATOM     12  C   UNL     1     -12.149  14.526  71.181  0.00  0.00    +0.021 A 
ATOM     13  C   UNL     1     -12.195  15.668  70.418  0.00  0.00    +0.003 A 
ATOM     14  C   UNL     1     -12.023  15.530  69.062  0.00  0.00    +0.017 A 
ENDBRANCH   1   9
BRANCH   1  15
ATOM     15  O   UNL     1     -10.863  15.615  66.726  0.00  0.00    -0.347 OA
BRANCH  15  16
ATOM     16  C   UNL     1      -9.560  16.034  66.418  0.00  0.00    +0.160 C 
BRANCH  16  17
ATOM     17  C   UNL     1      -9.541  17.537  66.276  0.00  0.00    +0.105 C 
BRANCH  17  19
ATOM     18  C   UNL     1     -10.663  19.508  66.989  0.00  0.00    +0.090 C 
ATOM     19  N   UNL     1     -10.251  18.177  67.356  0.00  0.00    -0.268 NA
ATOM     20  C   UNL     1      -9.412  18.182  68.542  0.00  0.00    +0.090 C 
ENDBRANCH  17  19
ENDBRANCH  16  17
ENDBRANCH  15  16
ENDBRANCH   1  15
TORSDOF 6
ENDMDL
MODEL 6
REMARK VINA RESULT:      -5.5      2.236      4.933
REMARK  Name = 
REMARK  6 active torsions:
REMARK  status: ('A' for Active; 'I' for Inactive)
REMARK    1  A    between atoms: N_2  and  C_4
REMARK    2  A    between atoms: C_4  and  C_5
REMARK    3  A    between atoms: C_5  and  O_6
REMARK    4  A    between atoms: O_6  and  C_7
REMARK    5  A    between atoms: C_7  and  C_9
REMARK    6  A    between atoms: C_7  and  C_15
REMARK                            x       y       z     vdW  Elec       q    Type
REMARK                         _______ _______ _______ _____ _____    ______ ____
ROOT
ATOM      1  C   UNL     1     -11.365  14.992  69.538  0.00  0.00    +0.146 C 
ATOM      2  C   UNL     1     -11.638  16.278  68.806  0.00  0.00    +0.040 C 
ENDROOT
BRANCH   1   3
ATOM      3  C   UNL     1     -12.099  14.923  70.823  0.00  0.00    +0.007 A 
ATOM      4  C   UNL     1     -11.415  15.284  71.964  0.00  0.00    -0.002 A 
ATOM      5  C   UNL     1     -12.186  15.510  73.096  0.00  0.00    -0.000 A 
ATOM      6  C   UNL     1     -13.547  15.737  73.006  0.00  0.00    -0.000 A 
ATOM      7  C   UNL     1     -14.226  15.423  71.841  0.00  0.00    -0.000 A 
ATOM      8  C   UNL     1     -13.465  14.921  70.796  0.00  0.00    -0.002 A 
ENDBRANCH   1   3
BRANCH   1   9
ATOM      9  C   UNL     1     -11.856  13.848  68.713  0.00  0.00    +0.087 A 
ATOM     10  N   UNL     1     -12.045  13.989  67.395  0.00  0.00    -0.246 NA
ATOM     11  C   UNL     1     -11.943  12.922  66.566  0.00  0.00    +0.099 A 
ATOM     12  C   UNL     1     -11.289  11.768  66.973  0.00  0.00    +0.021 A 
ATOM     13  C   UNL     1     -11.234  11.531  68.326  0.00  0.00    +0.003 A 
ATOM     14  C   UNL     1     -11.571  12.566  69.164  0.00  0.00    +0.017 A 
ENDBRANCH   1   9
BRANCH   1  15
ATOM     15  O   UNL     1      -9.998  14.811  69.705  0.00  0.00    -0.347 OA
BRANCH  15  16
ATOM     16  C   UNL     1      -9.370  15.815  68.952  0.00  0.00    +0.160 C 
BRANCH  16  17
ATOM     17  C   UNL     1      -7.958  15.387  68.631  0.00  0.00    +0.105 C 
BRANCH  17  19
ATOM     18  C   UNL     1      -8.840  15.439  66.423  0.00  0.00    +0.090 C 
ATOM     19  N   UNL     1      -7.863  14.842  67.299  0.00  0.00    -0.268 NA
ATOM     20  C   UNL     1      -8.010  13.399  67.363  0.00  0.00    +0.090 C 
ENDBRANCH  17  19
ENDBRANCH  16  17
ENDBRANCH  15  16
ENDBRANCH   1  15
TORSDOF 6
ENDMDL
MODEL 7
REMARK VINA RESULT:      -5.4      2.664      4.650
REMARK  Name = 
REMARK  6 active torsions:
REMARK  status: ('A' for Active; 'I' for Inactive)
REMARK    1  A    between atoms: N_2  and  C_4
REMARK    2  A    between atoms: C_4  and  C_5
REMARK    3  A    between atoms: C_5  and  O_6
REMARK    4  A    between atoms: O_6  and  C_7
REMARK    5  A    between atoms: C_7  and  C_9
REMARK    6  A    between atoms: C_7  and  C_15
REMARK                            x       y       z     vdW  Elec       q    Type
REMARK                         _______ _______ _______ _____ _____    ______ ____
ROOT
ATOM      1  C   UNL     1     -11.243  13.727  68.519  0.00  0.00    +0.146 C 
ATOM      2  C   UNL     1      -9.960  14.314  69.042  0.00  0.00    +0.040 C 
ENDROOT
BRANCH   1   3
ATOM      3  C   UNL     1     -11.417  13.988  67.071  0.00  0.00    +0.007 A 
ATOM      4  C   UNL     1     -10.320  14.446  66.374  0.00  0.00    -0.002 A 
ATOM      5  C   UNL     1     -10.406  14.391  64.989  0.00  0.00    -0.000 A 
ATOM      6  C   UNL     1     -11.341  13.591  64.358  0.00  0.00    -0.000 A 
ATOM      7  C   UNL     1     -12.416  13.087  65.071  0.00  0.00    -0.000 A 
ATOM      8  C   UNL     1     -12.464  13.397  66.422  0.00  0.00    -0.002 A 
ENDBRANCH   1   3
BRANCH   1   9
ATOM      9  C   UNL     1     -11.200  12.243  68.675  0.00  0.00    +0.087 A 
ATOM     10  N   UNL     1     -10.091  11.556  68.368  0.00  0.00    -0.246 NA
ATOM     11  C   UNL     1      -9.817  10.380  68.982  0.00  0.00    +0.099 A 
ATOM     12  C   UNL     1     -10.441  10.040  70.173  0.00  0.00    +0.021 A 
ATOM     13  C   UNL     1     -11.663  10.617  70.421  0.00  0.00    +0.003 A 
ATOM     14  C   UNL     1     -12.035  11.675  69.627  0.00  0.00    +0.017 A 
ENDBRANCH   1   9
BRANCH   1  15
ATOM     15  O   UNL     1     -12.323  14.180  69.267  0.00  0.00    -0.347 OA
BRANCH  15  16
ATOM     16  C   UNL     1     -11.927  15.400  69.835  0.00  0.00    +0.160 C 
BRANCH  16  17
ATOM     17  C   UNL     1     -12.738  15.654  71.083  0.00  0.00    +0.105 C 
BRANCH  17  19
ATOM     18  C   UNL     1     -15.015  15.080  71.449  0.00  0.00    +0.090 C 
ATOM     19  N   UNL     1     -13.668  14.581  71.334  0.00  0.00    -0.268 NA
ATOM     20  C   UNL     1     -13.256  13.862  72.527  0.00  0.00    +0.090 C 
ENDBRANCH  17  19
ENDBRANCH  16  17
ENDBRANCH  15  16
ENDBRANCH   1  15
TORSDOF 6
ENDMDL
MODEL 8
REMARK VINA RESULT:      -5.4      3.318      7.117
REMARK  Name = 
REMARK  6 active torsions:
REMARK  status: ('A' for Active; 'I' for Inactive)
REMARK    1  A    between atoms: N_2  and  C_4
REMARK    2  A    between atoms: C_4  and  C_5
REMARK    3  A    between atoms: C_5  and  O_6
REMARK    4  A    between atoms: O_6  and  C_7
REMARK    5  A    between atoms: C_7  and  C_9
REMARK    6  A    between atoms: C_7  and  C_15
REMARK                            x       y       z     vdW  Elec       q    Type
REMARK                         _______ _______ _______ _____ _____    ______ ____
ROOT
ATOM      1  C   UNL     1     -11.119  12.162  67.639  0.00  0.00    +0.146 C 
ATOM      2  C   UNL     1      -9.789  11.572  68.020  0.00  0.00    +0.040 C 
ENDROOT
BRANCH   1   3
ATOM      3  C   UNL     1     -11.093  13.644  67.666  0.00  0.00    +0.007 A 
ATOM      4  C   UNL     1     -11.968  14.277  68.521  0.00  0.00    -0.002 A 
ATOM      5  C   UNL     1     -11.724  15.623  68.763  0.00  0.00    -0.000 A 
ATOM      6  C   UNL     1     -10.494  16.191  68.487  0.00  0.00    -0.000 A 
ATOM      7  C   UNL     1      -9.593  15.530  67.669  0.00  0.00    -0.000 A 
ATOM      8  C   UNL     1      -9.982  14.286  67.197  0.00  0.00    -0.002 A 
ENDBRANCH   1   3
BRANCH   1   9
ATOM      9  C   UNL     1     -11.441  11.775  66.233  0.00  0.00    +0.087 A 
ATOM     10  N   UNL     1     -12.381  12.432  65.542  0.00  0.00    -0.246 NA
ATOM     11  C   UNL     1     -12.319  12.502  64.190  0.00  0.00    +0.099 A 
ATOM     12  C   UNL     1     -11.134  12.239  63.519  0.00  0.00    +0.021 A 
ATOM     13  C   UNL     1     -10.228  11.425  64.156  0.00  0.00    +0.003 A 
ATOM     14  C   UNL     1     -10.436  11.170  65.490  0.00  0.00    +0.017 A 
ENDBRANCH   1   9
BRANCH   1  15
ATOM     15  O   UNL     1     -12.128  11.642  68.440  0.00  0.00    -0.347 OA
BRANCH  15  16
ATOM     16  C   UNL     1     -11.489  10.935  69.471  0.00  0.00    +0.160 C 
BRANCH  16  17
ATOM     17  C   UNL     1     -12.449  10.757  70.622  0.00  0.00    +0.105 C 
BRANCH  17  19
ATOM     18  C   UNL     1     -13.418   9.217  72.152  0.00  0.00    +0.090 C 
ATOM     19  N   UNL     1     -12.428   9.405  71.122  0.00  0.00    -0.268 NA
ATOM     20  C   UNL     1     -11.092   9.093  71.597  0.00  0.00    +0.090 C 
ENDBRANCH  17  19
ENDBRANCH  16  17
ENDBRANCH  15  16
ENDBRANCH   1  15
TORSDOF 6
ENDMDL
MODEL 9
REMARK VINA RESULT:      -5.4      2.048      5.131
REMARK  Name = 
REMARK  6 active torsions:
REMARK  status: ('A' for Active; 'I' for Inactive)
REMARK    1  A    between atoms: N_2  and  C_4
REMARK    2  A    between atoms: C_4  and  C_5
REMARK    3  A    between atoms: C_5  and  O_6
REMARK    4  A    between atoms: O_6  and  C_7
REMARK    5  A    between atoms: C_7  and  C_9
REMARK    6  A    between atoms: C_7  and  C_15
REMARK                            x       y       z     vdW  Elec       q    Type
REMARK                         _______ _______ _______ _____ _____    ______ ____
ROOT
ATOM      1  C   UNL     1     -10.114  16.110  68.123  0.00  0.00    +0.146 C 
ATOM      2  C   UNL     1      -8.797  15.427  68.375  0.00  0.00    +0.040 C 
ENDROOT
BRANCH   1   3
ATOM      3  C   UNL     1     -11.138  15.716  69.120  0.00  0.00    +0.007 A 
ATOM      4  C   UNL     1     -11.697  14.463  68.992  0.00  0.00    -0.002 A 
ATOM      5  C   UNL     1     -12.411  13.995  70.087  0.00  0.00    -0.000 A 
ATOM      6  C   UNL     1     -12.254  14.558  71.341  0.00  0.00    -0.000 A 
ATOM      7  C   UNL     1     -11.645  15.794  71.475  0.00  0.00    -0.000 A 
ATOM      8  C   UNL     1     -11.184  16.387  70.309  0.00  0.00    -0.002 A 
ENDBRANCH   1   3
BRANCH   1   9
ATOM      9  C   UNL     1      -9.934  17.585  68.268  0.00  0.00    +0.087 A 
ATOM     10  N   UNL     1      -8.744  18.097  68.606  0.00  0.00    -0.246 NA
ATOM     11  C   UNL     1      -8.398  19.349  68.221  0.00  0.00    +0.099 A 
ATOM     12  C   UNL     1      -9.068  19.983  67.184  0.00  0.00    +0.021 A 
ATOM     13  C   UNL     1     -10.356  19.574  66.937  0.00  0.00    +0.003 A 
ATOM     14  C   UNL     1     -10.775  18.408  67.530  0.00  0.00    +0.017 A 
ENDBRANCH   1   9
BRANCH   1  15
ATOM     15  O   UNL     1     -10.537  15.881  66.819  0.00  0.00    -0.347 OA
BRANCH  15  16
ATOM     16  C   UNL     1      -9.554  15.079  66.219  0.00  0.00    +0.160 C 
BRANCH  16  17
ATOM     17  C   UNL     1     -10.188  14.243  65.134  0.00  0.00    +0.105 C 
BRANCH  17  19
ATOM     18  C   UNL     1     -11.753  12.566  65.758  0.00  0.00    +0.090 C 
ATOM     19  N   UNL     1     -11.570  13.958  65.429  0.00  0.00    -0.268 NA
ATOM     20  C   UNL     1     -12.392  14.356  64.300  0.00  0.00    +0.090 C 
ENDBRANCH  17  19
ENDBRANCH  16  17
ENDBRANCH  15  16
ENDBRANCH   1  15
TORSDOF 6
ENDMDL
