MODEL 1
REMARK VINA RESULT:      -3.7      0.000      0.000
REMARK  Name = 
REMARK  0 active torsions:
REMARK  status: ('A' for Active; 'I' for Inactive)
REMARK                            x       y       z     vdW  Elec       q    Type
REMARK                         _______ _______ _______ _____ _____    ______ ____
ROOT
ATOM      1  N   UNL     1      -5.939  20.566  71.441  0.00  0.00    -0.101 NA
ATOM      2  C   UNL     1      -4.642  21.014  71.851  0.00  0.00    +0.206 C 
ATOM      3  N   UNL     1      -3.796  19.974  72.336  0.00  0.00    -0.181 NA
ATOM      4  O   UNL     1      -2.580  20.309  72.808  0.00  0.00    -0.401 OA
ATOM      5  O   UNL     1      -4.395  22.171  72.252  0.00  0.00    -0.523 OA
ENDROOT
TORSDOF 0
ENDMDL
MODEL 2
REMARK VINA RESULT:      -3.4      1.864      2.192
REMARK  Name = 
REMARK  0 active torsions:
REMARK  status: ('A' for Active; 'I' for Inactive)
REMARK                            x       y       z     vdW  Elec       q    Type
REMARK                         _______ _______ _______ _____ _____    ______ ____
ROOT
ATOM      1  N   UNL     1      -4.508  22.072  72.081  0.00  0.00    -0.101 NA
ATOM      2  C   UNL     1      -4.205  20.673  72.033  0.00  0.00    +0.206 C 
ATOM      3  N   UNL     1      -5.352  19.835  71.920  0.00  0.00    -0.181 NA
ATOM      4  O   UNL     1      -5.171  18.500  71.937  0.00  0.00    -0.401 OA
ATOM      5  O   UNL     1      -3.182  20.161  72.535  0.00  0.00    -0.523 OA
ENDROOT
TORSDOF 0
ENDMDL
MODEL 3
REMARK VINA RESULT:      -3.4     12.219     12.526
REMARK  Name = 
REMARK  0 active torsions:
REMARK  status: ('A' for Active; 'I' for Inactive)
REMARK                            x       y       z     vdW  Elec       q    Type
REMARK                         _______ _______ _______ _____ _____    ______ ____
ROOT
ATOM      1  N   UNL     1     -12.818  13.379  64.570  0.00  0.00    -0.101 NA
ATOM      2  C   UNL     1     -11.918  14.491  64.640  0.00  0.00    +0.206 C 
ATOM      3  N   UNL     1     -12.394  15.666  63.989  0.00  0.00    -0.181 NA
ATOM      4  O   UNL     1     -11.586  16.742  63.943  0.00  0.00    -0.401 OA
ATOM      5  O   UNL     1     -10.679  14.382  64.766  0.00  0.00    -0.523 OA
ENDROOT
TORSDOF 0
ENDMDL
MODEL 4
REMARK VINA RESULT:      -3.3     11.039     11.390
REMARK  Name = 
REMARK  0 active torsions:
REMARK  status: ('A' for Active; 'I' for Inactive)
REMARK                            x       y       z     vdW  Elec       q    Type
REMARK                         _______ _______ _______ _____ _____    ______ ____
ROOT
ATOM      1  N   UNL     1     -12.459  15.361  74.109  0.00  0.00    -0.101 NA
ATOM      2  C   UNL     1     -13.266  14.915  73.013  0.00  0.00    +0.206 C 
ATOM      3  N   UNL     1     -14.167  15.902  72.516  0.00  0.00    -0.181 NA
ATOM      4  O   UNL     1     -15.015  15.552  71.530  0.00  0.00    -0.401 OA
ATOM      5  O   UNL     1     -13.573  13.721  72.811  0.00  0.00    -0.523 OA
ENDROOT
TORSDOF 0
ENDMDL
MODEL 5
REMARK VINA RESULT:      -3.3     10.373     10.722
REMARK  Name = 
REMARK  0 active torsions:
REMARK  status: ('A' for Active; 'I' for Inactive)
REMARK                            x       y       z     vdW  Elec       q    Type
REMARK                         _______ _______ _______ _____ _____    ______ ____
ROOT
ATOM      1  N   UNL     1     -13.729  13.746  72.619  0.00  0.00    -0.101 NA
ATOM      2  C   UNL     1     -13.489  15.126  72.920  0.00  0.00    +0.206 C 
ATOM      3  N   UNL     1     -12.676  15.335  74.072  0.00  0.00    -0.181 NA
ATOM      4  O   UNL     1     -12.452  16.601  74.473  0.00  0.00    -0.401 OA
ATOM      5  O   UNL     1     -14.258  16.057  72.599  0.00  0.00    -0.523 OA
ENDROOT
TORSDOF 0
ENDMDL
MODEL 6
REMARK VINA RESULT:      -3.2     11.845     12.293
REMARK  Name = 
REMARK  0 active torsions:
REMARK  status: ('A' for Active; 'I' for Inactive)
REMARK                            x       y       z     vdW  Elec       q    Type
REMARK                         _______ _______ _______ _____ _____    ______ ____
ROOT
ATOM      1  N   UNL     1     -11.289  16.707  64.263  0.00  0.00    -0.101 NA
ATOM      2  C   UNL     1     -11.468  15.364  64.728  0.00  0.00    +0.206 C 
ATOM      3  N   UNL     1     -12.563  14.681  64.122  0.00  0.00    -0.181 NA
ATOM      4  O   UNL     1     -12.851  13.436  64.547  0.00  0.00    -0.401 OA
ATOM      5  O   UNL     1     -11.107  14.959  65.853  0.00  0.00    -0.523 OA
ENDROOT
TORSDOF 0
ENDMDL
MODEL 7
REMARK VINA RESULT:      -3.2     13.122     13.491
REMARK  Name = 
REMARK  0 active torsions:
REMARK  status: ('A' for Active; 'I' for Inactive)
REMARK                            x       y       z     vdW  Elec       q    Type
REMARK                         _______ _______ _______ _____ _____    ______ ____
ROOT
ATOM      1  N   UNL     1     -12.218  14.263  66.421  0.00  0.00    -0.101 NA
ATOM      2  C   UNL     1     -12.709  13.953  65.111  0.00  0.00    +0.206 C 
ATOM      3  N   UNL     1     -12.829  12.557  64.851  0.00  0.00    -0.181 NA
ATOM      4  O   UNL     1     -13.218  12.169  63.621  0.00  0.00    -0.401 OA
ATOM      5  O   UNL     1     -12.573  14.700  64.119  0.00  0.00    -0.523 OA
ENDROOT
TORSDOF 0
ENDMDL
MODEL 8
REMARK VINA RESULT:      -3.1     13.089     13.512
REMARK  Name = 
REMARK  0 active torsions:
REMARK  status: ('A' for Active; 'I' for Inactive)
REMARK                            x       y       z     vdW  Elec       q    Type
REMARK                         _______ _______ _______ _____ _____    ______ ____
ROOT
ATOM      1  N   UNL     1     -12.065  12.192  66.285  0.00  0.00    -0.101 NA
ATOM      2  C   UNL     1     -12.418  12.827  65.051  0.00  0.00    +0.206 C 
ATOM      3  N   UNL     1     -12.277  14.245  65.066  0.00  0.00    -0.181 NA
ATOM      4  O   UNL     1     -12.650  14.936  63.972  0.00  0.00    -0.401 OA
ATOM      5  O   UNL     1     -13.228  12.352  64.226  0.00  0.00    -0.523 OA
ENDROOT
TORSDOF 0
ENDMDL
MODEL 9
REMARK VINA RESULT:      -3.1      9.718     10.133
REMARK  Name = 
REMARK  0 active torsions:
REMARK  status: ('A' for Active; 'I' for Inactive)
REMARK                            x       y       z     vdW  Elec       q    Type
REMARK                         _______ _______ _______ _____ _____    ______ ____
ROOT
ATOM      1  N   UNL     1     -12.664  16.027  74.293  0.00  0.00    -0.101 NA
ATOM      2  C   UNL     1     -13.104  15.859  72.940  0.00  0.00    +0.206 C 
ATOM      3  N   UNL     1     -12.096  16.115  71.965  0.00  0.00    -0.181 NA
ATOM      4  O   UNL     1     -12.437  16.049  70.664  0.00  0.00    -0.401 OA
ATOM      5  O   UNL     1     -14.290  15.990  72.569  0.00  0.00    -0.523 OA
ENDROOT
TORSDOF 0
ENDMDL
