MODEL 1
REMARK VINA RESULT:      -3.0      0.000      0.000
REMARK  Name = 
REMARK  1 active torsions:
REMARK  status: ('A' for Active; 'I' for Inactive)
REMARK    1  A    between atoms: C_2  and  C_4
REMARK                            x       y       z     vdW  Elec       q    Type
REMARK                         _______ _______ _______ _____ _____    ______ ____
ROOT
ATOM      1  C   UNL     1     -10.651  13.521  64.596  0.00  0.00    +0.038 C 
ATOM      2  C   UNL     1     -11.834  14.507  65.269  0.00  0.00    +0.185 C 
ATOM      3  O   UNL     1     -12.560  14.621  63.908  0.00  0.00    -0.220 OA
ENDROOT
BRANCH   2   4
ATOM      4  C   UNL     1     -10.922  15.879  64.936  0.00  0.00    +0.215 C 
ATOM      5  O   UNL     1     -11.646  16.510  63.933  0.00  0.00    -0.218 OA
ENDBRANCH   2   4
TORSDOF 1
ENDMDL
MODEL 2
REMARK VINA RESULT:      -3.0      8.698      8.974
REMARK  Name = 
REMARK  1 active torsions:
REMARK  status: ('A' for Active; 'I' for Inactive)
REMARK    1  A    between atoms: C_2  and  C_4
REMARK                            x       y       z     vdW  Elec       q    Type
REMARK                         _______ _______ _______ _____ _____    ______ ____
ROOT
ATOM      1  C   UNL     1     -13.591  14.070  72.423  0.00  0.00    +0.038 C 
ATOM      2  C   UNL     1     -13.583  15.692  72.864  0.00  0.00    +0.185 C 
ATOM      3  O   UNL     1     -12.495  16.007  71.811  0.00  0.00    -0.220 OA
ENDROOT
BRANCH   2   4
ATOM      4  C   UNL     1     -12.414  15.398  74.035  0.00  0.00    +0.215 C 
ATOM      5  O   UNL     1     -12.526  16.491  74.883  0.00  0.00    -0.218 OA
ENDBRANCH   2   4
TORSDOF 1
ENDMDL
MODEL 3
REMARK VINA RESULT:      -2.9      8.092      8.558
REMARK  Name = 
REMARK  1 active torsions:
REMARK  status: ('A' for Active; 'I' for Inactive)
REMARK    1  A    between atoms: C_2  and  C_4
REMARK                            x       y       z     vdW  Elec       q    Type
REMARK                         _______ _______ _______ _____ _____    ______ ____
ROOT
ATOM      1  C   UNL     1     -12.595  15.344  73.856  0.00  0.00    +0.038 C 
ATOM      2  C   UNL     1     -12.821  15.687  72.226  0.00  0.00    +0.185 C 
ATOM      3  O   UNL     1     -14.339  15.888  72.445  0.00  0.00    -0.220 OA
ENDROOT
BRANCH   2   4
ATOM      4  C   UNL     1     -13.050  14.058  71.885  0.00  0.00    +0.215 C 
ATOM      5  O   UNL     1     -14.218  13.748  72.568  0.00  0.00    -0.218 OA
ENDBRANCH   2   4
TORSDOF 1
ENDMDL
MODEL 4
REMARK VINA RESULT:      -2.9      7.928      8.221
REMARK  Name = 
REMARK  1 active torsions:
REMARK  status: ('A' for Active; 'I' for Inactive)
REMARK    1  A    between atoms: C_2  and  C_4
REMARK                            x       y       z     vdW  Elec       q    Type
REMARK                         _______ _______ _______ _____ _____    ______ ____
ROOT
ATOM      1  C   UNL     1     -12.500  15.583  74.156  0.00  0.00    +0.038 C 
ATOM      2  C   UNL     1     -13.588  15.625  72.875  0.00  0.00    +0.185 C 
ATOM      3  O   UNL     1     -13.689  14.082  72.868  0.00  0.00    -0.220 OA
ENDROOT
BRANCH   2   4
ATOM      4  C   UNL     1     -12.326  15.582  71.765  0.00  0.00    +0.215 C 
ATOM      5  O   UNL     1     -12.928  15.980  70.579  0.00  0.00    -0.218 OA
ENDBRANCH   2   4
TORSDOF 1
ENDMDL
MODEL 5
REMARK VINA RESULT:      -2.9      2.458      2.689
REMARK  Name = 
REMARK  1 active torsions:
REMARK  status: ('A' for Active; 'I' for Inactive)
REMARK    1  A    between atoms: C_2  and  C_4
REMARK                            x       y       z     vdW  Elec       q    Type
REMARK                         _______ _______ _______ _____ _____    ______ ____
ROOT
ATOM      1  C   UNL     1     -10.810  12.153  63.536  0.00  0.00    +0.038 C 
ATOM      2  C   UNL     1     -12.486  12.165  63.661  0.00  0.00    +0.185 C 
ATOM      3  O   UNL     1     -12.549  13.610  63.114  0.00  0.00    -0.220 OA
ENDROOT
BRANCH   2   4
ATOM      4  C   UNL     1     -12.394  12.729  65.241  0.00  0.00    +0.215 C 
ATOM      5  O   UNL     1     -13.157  13.888  65.213  0.00  0.00    -0.218 OA
ENDBRANCH   2   4
TORSDOF 1
ENDMDL
MODEL 6
REMARK VINA RESULT:      -2.8      1.496      2.756
REMARK  Name = 
REMARK  1 active torsions:
REMARK  status: ('A' for Active; 'I' for Inactive)
REMARK    1  A    between atoms: C_2  and  C_4
REMARK                            x       y       z     vdW  Elec       q    Type
REMARK                         _______ _______ _______ _____ _____    ______ ____
ROOT
ATOM      1  C   UNL     1     -12.434  13.782  65.945  0.00  0.00    +0.038 C 
ATOM      2  C   UNL     1     -11.498  14.118  64.590  0.00  0.00    +0.185 C 
ATOM      3  O   UNL     1     -12.629  14.982  63.983  0.00  0.00    -0.220 OA
ENDROOT
BRANCH   2   4
ATOM      4  C   UNL     1     -12.082  12.747  63.812  0.00  0.00    +0.215 C 
ATOM      5  O   UNL     1     -13.206  12.410  64.555  0.00  0.00    -0.218 OA
ENDBRANCH   2   4
TORSDOF 1
ENDMDL
MODEL 7
REMARK VINA RESULT:      -2.8      1.695      2.027
REMARK  Name = 
REMARK  1 active torsions:
REMARK  status: ('A' for Active; 'I' for Inactive)
REMARK    1  A    between atoms: C_2  and  C_4
REMARK                            x       y       z     vdW  Elec       q    Type
REMARK                         _______ _______ _______ _____ _____    ______ ____
ROOT
ATOM      1  C   UNL     1     -10.952  12.497  65.248  0.00  0.00    +0.038 C 
ATOM      2  C   UNL     1     -12.351  13.309  65.703  0.00  0.00    +0.185 C 
ATOM      3  O   UNL     1     -13.197  12.472  64.715  0.00  0.00    -0.220 OA
ENDROOT
BRANCH   2   4
ATOM      4  C   UNL     1     -12.085  14.485  64.533  0.00  0.00    +0.215 C 
ATOM      5  O   UNL     1     -12.609  13.916  63.380  0.00  0.00    -0.218 OA
ENDBRANCH   2   4
TORSDOF 1
ENDMDL
MODEL 8
REMARK VINA RESULT:      -2.6     11.297     11.731
REMARK  Name = 
REMARK  1 active torsions:
REMARK  status: ('A' for Active; 'I' for Inactive)
REMARK    1  A    between atoms: C_2  and  C_4
REMARK                            x       y       z     vdW  Elec       q    Type
REMARK                         _______ _______ _______ _____ _____    ______ ____
ROOT
ATOM      1  C   UNL     1      -5.214  19.297  71.357  0.00  0.00    +0.038 C 
ATOM      2  C   UNL     1      -3.691  19.947  71.071  0.00  0.00    +0.185 C 
ATOM      3  O   UNL     1      -3.480  20.202  72.582  0.00  0.00    -0.220 OA
ENDROOT
BRANCH   2   4
ATOM      4  C   UNL     1      -4.350  21.479  70.869  0.00  0.00    +0.215 C 
ATOM      5  O   UNL     1      -4.331  22.009  72.152  0.00  0.00    -0.218 OA
ENDBRANCH   2   4
TORSDOF 1
ENDMDL
MODEL 9
REMARK VINA RESULT:      -2.5      2.515      3.302
REMARK  Name = 
REMARK  1 active torsions:
REMARK  status: ('A' for Active; 'I' for Inactive)
REMARK    1  A    between atoms: C_2  and  C_4
REMARK                            x       y       z     vdW  Elec       q    Type
REMARK                         _______ _______ _______ _____ _____    ______ ____
ROOT
ATOM      1  C   UNL     1     -10.939  13.703  64.713  0.00  0.00    +0.038 C 
ATOM      2  C   UNL     1     -12.239  12.733  65.153  0.00  0.00    +0.185 C 
ATOM      3  O   UNL     1     -13.174  13.963  65.226  0.00  0.00    -0.220 OA
ENDROOT
BRANCH   2   4
ATOM      4  C   UNL     1     -11.845  12.892  66.779  0.00  0.00    +0.215 C 
ATOM      5  O   UNL     1     -12.014  11.607  67.277  0.00  0.00    -0.218 OA
ENDBRANCH   2   4
TORSDOF 1
ENDMDL
