MODEL 1
REMARK VINA RESULT:      -6.1      0.000      0.000
REMARK  Name = 
REMARK  12 active torsions:
REMARK  status: ('A' for Active; 'I' for Inactive)
REMARK    1  A    between atoms: N_4  and  C_5
REMARK    2  A    between atoms: N_4  and  C_10
REMARK    3  A    between atoms: C_5  and  C_6
REMARK    4  A    between atoms: C_6  and  C_8
REMARK    5  A    between atoms: C_13  and  C_14
REMARK    6  A    between atoms: N_16  and  C_17
REMARK    7  A    between atoms: C_17  and  C_18
REMARK    8  A    between atoms: C_18  and  C_20
REMARK    9  A    between atoms: C_24  and  C_25
REMARK   10  A    between atoms: N_27  and  C_28
REMARK   11  A    between atoms: C_28  and  C_29
REMARK   12  A    between atoms: C_29  and  C_31
REMARK                            x       y       z     vdW  Elec       q    Type
REMARK                         _______ _______ _______ _____ _____    ______ ____
ROOT
ATOM      1  C   UNL     1      -6.236  17.935  68.676  0.00  0.00    +0.065 A 
ATOM      2  C   UNL     1      -7.352  17.115  68.572  0.00  0.00    +0.049 A 
ATOM      3  I   UNL     1      -7.337  15.153  69.296  0.00  0.00    -0.041 I 
ATOM      4  C   UNL     1      -8.525  17.689  68.100  0.00  0.00    +0.067 A 
ATOM      5  C   UNL     1      -8.412  18.859  67.366  0.00  0.00    +0.040 A 
ATOM      6  I   UNL     1     -10.070  19.595  66.315  0.00  0.00    -0.042 I 
ATOM      7  C   UNL     1      -7.168  19.386  67.041  0.00  0.00    +0.067 A 
ATOM      8  C   UNL     1      -6.074  18.992  67.790  0.00  0.00    +0.049 A 
ATOM      9  I   UNL     1      -4.127  19.529  67.246  0.00  0.00    -0.041 I 
ENDROOT
BRANCH   1  12
ATOM     10  C   UNL     1      -4.179  16.238  70.214  0.00  0.00    +0.095 C 
ATOM     11  C   UNL     1      -4.261  16.696  69.601  0.00  0.00    +0.230 C 
ATOM     12  N   UNL     1      -5.289  17.684  69.687  0.00  0.00    -0.255 N 
ATOM     13  O   UNL     1      -3.122  17.081  69.240  0.00  0.00    -0.275 OA
BRANCH  12  14
ATOM     14  C   UNL     1      -5.365  18.340  70.990  0.00  0.00    +0.134 C 
BRANCH  14  15
ATOM     15  C   UNL     1      -5.468  19.953  70.634  0.00  0.00    +0.205 C 
ATOM     16  O   UNL     1      -6.000  20.270  72.028  0.00  0.00    -0.218 OA
BRANCH  15  17
ATOM     17  C   UNL     1      -3.897  20.201  71.096  0.00  0.00    +0.217 C 
ATOM     18  O   UNL     1      -3.866  20.013  72.457  0.00  0.00    -0.218 OA
ENDBRANCH  15  17
ENDBRANCH  14  15
ENDBRANCH  12  14
ENDBRANCH   1  12
BRANCH   4  19
ATOM     19  C   UNL     1      -9.769  16.941  68.149  0.00  0.00    +0.266 C 
ATOM     20  N   UNL     1     -10.723  17.138  69.197  0.00  0.00    -0.199 NA
ATOM     21  O   UNL     1     -10.011  16.095  67.236  0.00  0.00    -0.268 OA
BRANCH  20  22
ATOM     22  C   UNL     1     -11.550  15.979  69.528  0.00  0.00    +0.151 C 
BRANCH  22  23
ATOM     23  C   UNL     1     -11.892  16.170  71.135  0.00  0.00    +0.206 C 
ATOM     24  O   UNL     1     -10.975  15.012  71.513  0.00  0.00    -0.218 OA
BRANCH  23  25
ATOM     25  C   UNL     1     -13.205  15.169  71.023  0.00  0.00    +0.217 C 
ATOM     26  O   UNL     1     -14.127  15.791  71.881  0.00  0.00    -0.218 OA
ENDBRANCH  23  25
ENDBRANCH  22  23
ENDBRANCH  20  22
ENDBRANCH   4  19
BRANCH   7  27
ATOM     27  C   UNL     1      -7.011  20.296  65.899  0.00  0.00    +0.266 C 
ATOM     28  N   UNL     1      -6.628  19.852  64.600  0.00  0.00    -0.199 NA
ATOM     29  O   UNL     1      -6.616  21.469  66.182  0.00  0.00    -0.268 OA
BRANCH  28  30
ATOM     30  C   UNL     1      -5.457  20.366  63.903  0.00  0.00    +0.151 C 
BRANCH  30  31
ATOM     31  C   UNL     1      -5.733  20.024  62.307  0.00  0.00    +0.206 C 
ATOM     32  O   UNL     1      -4.363  20.561  61.907  0.00  0.00    -0.218 OA
BRANCH  31  33
ATOM     33  C   UNL     1      -6.442  21.500  62.059  0.00  0.00    +0.217 C 
ATOM     34  O   UNL     1      -5.311  22.333  62.008  0.00  0.00    -0.218 OA
ENDBRANCH  31  33
ENDBRANCH  30  31
ENDBRANCH  28  30
ENDBRANCH   7  27
TORSDOF 12
ENDMDL
MODEL 2
REMARK VINA RESULT:      -6.1      1.818      2.598
REMARK  Name = 
REMARK  12 active torsions:
REMARK  status: ('A' for Active; 'I' for Inactive)
REMARK    1  A    between atoms: N_4  and  C_5
REMARK    2  A    between atoms: N_4  and  C_10
REMARK    3  A    between atoms: C_5  and  C_6
REMARK    4  A    between atoms: C_6  and  C_8
REMARK    5  A    between atoms: C_13  and  C_14
REMARK    6  A    between atoms: N_16  and  C_17
REMARK    7  A    between atoms: C_17  and  C_18
REMARK    8  A    between atoms: C_18  and  C_20
REMARK    9  A    between atoms: C_24  and  C_25
REMARK   10  A    between atoms: N_27  and  C_28
REMARK   11  A    between atoms: C_28  and  C_29
REMARK   12  A    between atoms: C_29  and  C_31
REMARK                            x       y       z     vdW  Elec       q    Type
REMARK                         _______ _______ _______ _____ _____    ______ ____
ROOT
ATOM      1  C   UNL     1      -5.876  18.179  68.777  0.00  0.00    +0.065 A 
ATOM      2  C   UNL     1      -6.887  17.244  68.602  0.00  0.00    +0.049 A 
ATOM      3  I   UNL     1      -6.672  15.267  69.250  0.00  0.00    -0.041 I 
ATOM      4  C   UNL     1      -8.104  17.702  68.112  0.00  0.00    +0.067 A 
ATOM      5  C   UNL     1      -8.102  18.908  67.427  0.00  0.00    +0.040 A 
ATOM      6  I   UNL     1      -9.800  19.498  66.349  0.00  0.00    -0.042 I 
ATOM      7  C   UNL     1      -6.916  19.584  67.167  0.00  0.00    +0.067 A 
ATOM      8  C   UNL     1      -5.808  19.284  67.938  0.00  0.00    +0.049 A 
ATOM      9  I   UNL     1      -3.919  20.058  67.483  0.00  0.00    -0.041 I 
ENDROOT
BRANCH   1  12
ATOM     10  C   UNL     1      -3.673  16.668  70.307  0.00  0.00    +0.095 C 
ATOM     11  C   UNL     1      -3.792  17.145  69.715  0.00  0.00    +0.230 C 
ATOM     12  N   UNL     1      -4.937  17.993  69.809  0.00  0.00    -0.255 N 
ATOM     13  O   UNL     1      -2.699  17.685  69.416  0.00  0.00    -0.275 OA
BRANCH  12  14
ATOM     14  C   UNL     1      -5.136  18.564  71.139  0.00  0.00    +0.134 C 
BRANCH  14  15
ATOM     15  C   UNL     1      -5.355  20.182  70.864  0.00  0.00    +0.205 C 
ATOM     16  O   UNL     1      -6.384  20.277  71.985  0.00  0.00    -0.218 OA
BRANCH  15  17
ATOM     17  C   UNL     1      -4.104  20.568  71.878  0.00  0.00    +0.217 C 
ATOM     18  O   UNL     1      -4.277  21.891  72.208  0.00  0.00    -0.218 OA
ENDBRANCH  15  17
ENDBRANCH  14  15
ENDBRANCH  12  14
ENDBRANCH   1  12
BRANCH   4  19
ATOM     19  C   UNL     1      -9.256  16.818  68.088  0.00  0.00    +0.266 C 
ATOM     20  N   UNL     1      -9.400  15.798  67.095  0.00  0.00    -0.199 NA
ATOM     21  O   UNL     1     -10.153  16.958  68.973  0.00  0.00    -0.268 OA
BRANCH  20  22
ATOM     22  C   UNL     1     -10.773  15.436  66.752  0.00  0.00    +0.151 C 
BRANCH  22  23
ATOM     23  C   UNL     1     -10.667  14.858  65.206  0.00  0.00    +0.206 C 
ATOM     24  O   UNL     1     -11.010  16.225  64.625  0.00  0.00    -0.218 OA
BRANCH  23  25
ATOM     25  C   UNL     1     -12.257  14.399  65.217  0.00  0.00    +0.217 C 
ATOM     26  O   UNL     1     -12.612  14.525  63.865  0.00  0.00    -0.218 OA
ENDBRANCH  23  25
ENDBRANCH  22  23
ENDBRANCH  20  22
ENDBRANCH   4  19
BRANCH   7  27
ATOM     27  C   UNL     1      -6.829  20.554  66.067  0.00  0.00    +0.266 C 
ATOM     28  N   UNL     1      -6.483  20.185  64.734  0.00  0.00    -0.199 NA
ATOM     29  O   UNL     1      -6.456  21.722  66.395  0.00  0.00    -0.268 OA
BRANCH  28  30
ATOM     30  C   UNL     1      -5.354  20.769  64.021  0.00  0.00    +0.151 C 
BRANCH  30  31
ATOM     31  C   UNL     1      -5.968  21.208  62.548  0.00  0.00    +0.206 C 
ATOM     32  O   UNL     1      -5.808  19.791  62.008  0.00  0.00    -0.218 OA
BRANCH  31  33
ATOM     33  C   UNL     1      -4.469  21.644  61.995  0.00  0.00    +0.217 C 
ATOM     34  O   UNL     1      -4.647  23.027  61.812  0.00  0.00    -0.218 OA
ENDBRANCH  31  33
ENDBRANCH  30  31
ENDBRANCH  28  30
ENDBRANCH   7  27
TORSDOF 12
ENDMDL
MODEL 3
REMARK VINA RESULT:      -6.0      3.521      8.941
REMARK  Name = 
REMARK  12 active torsions:
REMARK  status: ('A' for Active; 'I' for Inactive)
REMARK    1  A    between atoms: N_4  and  C_5
REMARK    2  A    between atoms: N_4  and  C_10
REMARK    3  A    between atoms: C_5  and  C_6
REMARK    4  A    between atoms: C_6  and  C_8
REMARK    5  A    between atoms: C_13  and  C_14
REMARK    6  A    between atoms: N_16  and  C_17
REMARK    7  A    between atoms: C_17  and  C_18
REMARK    8  A    between atoms: C_18  and  C_20
REMARK    9  A    between atoms: C_24  and  C_25
REMARK   10  A    between atoms: N_27  and  C_28
REMARK   11  A    between atoms: C_28  and  C_29
REMARK   12  A    between atoms: C_29  and  C_31
REMARK                            x       y       z     vdW  Elec       q    Type
REMARK                         _______ _______ _______ _____ _____    ______ ____
ROOT
ATOM      1  C   UNL     1      -9.146  13.496  67.936  0.00  0.00    +0.065 A 
ATOM      2  C   UNL     1      -7.899  14.106  67.970  0.00  0.00    +0.049 A 
ATOM      3  I   UNL     1      -6.135  12.984  67.995  0.00  0.00    -0.041 I 
ATOM      4  C   UNL     1      -7.860  15.488  67.840  0.00  0.00    +0.067 A 
ATOM      5  C   UNL     1      -9.021  16.189  68.131  0.00  0.00    +0.040 A 
ATOM      6  I   UNL     1      -8.960  18.276  68.314  0.00  0.00    -0.042 I 
ATOM      7  C   UNL     1     -10.149  15.540  68.618  0.00  0.00    +0.067 A 
ATOM      8  C   UNL     1     -10.258  14.176  68.416  0.00  0.00    +0.049 A 
ATOM      9  I   UNL     1     -11.785  13.059  69.307  0.00  0.00    -0.041 I 
ENDROOT
BRANCH   1  12
ATOM     10  C   UNL     1      -8.661  10.457  67.870  0.00  0.00    +0.095 C 
ATOM     11  C   UNL     1      -9.115  10.999  68.173  0.00  0.00    +0.230 C 
ATOM     12  N   UNL     1      -9.263  12.196  67.408  0.00  0.00    -0.255 N 
ATOM     13  O   UNL     1     -10.163  10.449  68.590  0.00  0.00    -0.275 OA
BRANCH  12  14
ATOM     14  C   UNL     1      -9.418  11.961  65.974  0.00  0.00    +0.134 C 
BRANCH  14  15
ATOM     15  C   UNL     1     -10.509  13.106  65.485  0.00  0.00    +0.205 C 
ATOM     16  O   UNL     1     -10.205  12.830  64.017  0.00  0.00    -0.218 OA
BRANCH  15  17
ATOM     17  C   UNL     1     -11.745  12.004  65.514  0.00  0.00    +0.217 C 
ATOM     18  O   UNL     1     -12.848  12.655  65.016  0.00  0.00    -0.218 OA
ENDBRANCH  15  17
ENDBRANCH  14  15
ENDBRANCH  12  14
ENDBRANCH   1  12
BRANCH   4  19
ATOM     19  C   UNL     1      -6.587  16.166  67.674  0.00  0.00    +0.266 C 
ATOM     20  N   UNL     1      -5.803  16.579  68.798  0.00  0.00    -0.199 NA
ATOM     21  O   UNL     1      -6.162  16.392  66.501  0.00  0.00    -0.268 OA
BRANCH  20  22
ATOM     22  C   UNL     1      -4.953  17.748  68.583  0.00  0.00    +0.151 C 
BRANCH  22  23
ATOM     23  C   UNL     1      -3.971  17.786  69.914  0.00  0.00    +0.206 C 
ATOM     24  O   UNL     1      -3.937  16.263  69.986  0.00  0.00    -0.218 OA
BRANCH  23  25
ATOM     25  C   UNL     1      -5.274  17.863  70.931  0.00  0.00    +0.217 C 
ATOM     26  O   UNL     1      -4.869  18.836  71.859  0.00  0.00    -0.218 OA
ENDBRANCH  23  25
ENDBRANCH  22  23
ENDBRANCH  20  22
ENDBRANCH   4  19
BRANCH   7  27
ATOM     27  C   UNL     1     -11.172  16.275  69.374  0.00  0.00    +0.266 C 
ATOM     28  N   UNL     1     -11.257  16.243  70.796  0.00  0.00    -0.199 NA
ATOM     29  O   UNL     1     -12.291  16.411  68.790  0.00  0.00    -0.268 OA
BRANCH  28  30
ATOM     30  C   UNL     1     -12.456  15.815  71.506  0.00  0.00    +0.151 C 
BRANCH  30  31
ATOM     31  C   UNL     1     -11.892  15.054  72.863  0.00  0.00    +0.206 C 
ATOM     32  O   UNL     1     -13.059  14.073  72.854  0.00  0.00    -0.218 OA
BRANCH  31  33
ATOM     33  C   UNL     1     -12.710  16.099  73.853  0.00  0.00    +0.217 C 
ATOM     34  O   UNL     1     -13.914  16.250  73.143  0.00  0.00    -0.218 OA
ENDBRANCH  31  33
ENDBRANCH  30  31
ENDBRANCH  28  30
ENDBRANCH   7  27
TORSDOF 12
ENDMDL
MODEL 4
REMARK VINA RESULT:      -5.9      5.533      9.099
REMARK  Name = 
REMARK  12 active torsions:
REMARK  status: ('A' for Active; 'I' for Inactive)
REMARK    1  A    between atoms: N_4  and  C_5
REMARK    2  A    between atoms: N_4  and  C_10
REMARK    3  A    between atoms: C_5  and  C_6
REMARK    4  A    between atoms: C_6  and  C_8
REMARK    5  A    between atoms: C_13  and  C_14
REMARK    6  A    between atoms: N_16  and  C_17
REMARK    7  A    between atoms: C_17  and  C_18
REMARK    8  A    between atoms: C_18  and  C_20
REMARK    9  A    between atoms: C_24  and  C_25
REMARK   10  A    between atoms: N_27  and  C_28
REMARK   11  A    between atoms: C_28  and  C_29
REMARK   12  A    between atoms: C_29  and  C_31
REMARK                            x       y       z     vdW  Elec       q    Type
REMARK                         _______ _______ _______ _____ _____    ______ ____
ROOT
ATOM      1  C   UNL     1     -10.357  13.644  67.649  0.00  0.00    +0.065 A 
ATOM      2  C   UNL     1     -10.949  14.265  68.740  0.00  0.00    +0.049 A 
ATOM      3  I   UNL     1     -10.765  16.324  69.058  0.00  0.00    -0.041 I 
ATOM      4  C   UNL     1     -11.790  13.497  69.535  0.00  0.00    +0.067 A 
ATOM      5  C   UNL     1     -11.642  12.120  69.475  0.00  0.00    +0.040 A 
ATOM      6  I   UNL     1     -12.602  10.905  70.888  0.00  0.00    -0.042 I 
ATOM      7  C   UNL     1     -10.631  11.539  68.718  0.00  0.00    +0.067 A 
ATOM      8  C   UNL     1     -10.055  12.289  67.710  0.00  0.00    +0.049 A 
ATOM      9  I   UNL     1      -8.372  11.610  66.668  0.00  0.00    -0.041 I 
ENDROOT
BRANCH   1  12
ATOM     10  C   UNL     1      -9.623  16.196  66.094  0.00  0.00    +0.095 C 
ATOM     11  C   UNL     1      -9.319  15.609  66.485  0.00  0.00    +0.230 C 
ATOM     12  N   UNL     1     -10.077  14.398  66.494  0.00  0.00    -0.255 N 
ATOM     13  O   UNL     1      -8.102  15.523  66.190  0.00  0.00    -0.275 OA
BRANCH  12  14
ATOM     14  C   UNL     1     -10.668  14.066  65.199  0.00  0.00    +0.134 C 
BRANCH  14  15
ATOM     15  C   UNL     1     -12.300  14.087  65.474  0.00  0.00    +0.205 C 
ATOM     16  O   UNL     1     -12.555  14.804  64.152  0.00  0.00    -0.218 OA
BRANCH  15  17
ATOM     17  C   UNL     1     -12.480  12.593  64.785  0.00  0.00    +0.217 C 
ATOM     18  O   UNL     1     -11.682  12.590  63.666  0.00  0.00    -0.218 OA
ENDBRANCH  15  17
ENDBRANCH  14  15
ENDBRANCH  12  14
ENDBRANCH   1  12
BRANCH   4  19
ATOM     19  C   UNL     1     -12.588  14.129  70.570  0.00  0.00    +0.266 C 
ATOM     20  N   UNL     1     -12.053  14.404  71.868  0.00  0.00    -0.199 NA
ATOM     21  O   UNL     1     -13.789  14.445  70.311  0.00  0.00    -0.268 OA
BRANCH  20  22
ATOM     22  C   UNL     1     -13.019  14.411  72.964  0.00  0.00    +0.151 C 
BRANCH  22  23
ATOM     23  C   UNL     1     -13.174  16.011  73.359  0.00  0.00    +0.206 C 
ATOM     24  O   UNL     1     -11.848  16.349  72.686  0.00  0.00    -0.218 OA
BRANCH  23  25
ATOM     25  C   UNL     1     -12.435  15.770  74.821  0.00  0.00    +0.217 C 
ATOM     26  O   UNL     1     -12.306  17.080  75.308  0.00  0.00    -0.218 OA
ENDBRANCH  23  25
ENDBRANCH  22  23
ENDBRANCH  20  22
ENDBRANCH   4  19
BRANCH   7  27
ATOM     27  C   UNL     1     -10.154  10.182  69.015  0.00  0.00    +0.266 C 
ATOM     28  N   UNL     1      -8.941   9.923  69.718  0.00  0.00    -0.199 NA
ATOM     29  O   UNL     1     -10.455   9.295  68.159  0.00  0.00    -0.268 OA
BRANCH  28  30
ATOM     30  C   UNL     1      -7.864   9.113  69.163  0.00  0.00    +0.151 C 
BRANCH  30  31
ATOM     31  C   UNL     1      -6.665   9.170  70.302  0.00  0.00    +0.206 C 
ATOM     32  O   UNL     1      -7.679   9.332  71.429  0.00  0.00    -0.218 OA
BRANCH  31  33
ATOM     33  C   UNL     1      -6.511  10.811  70.134  0.00  0.00    +0.217 C 
ATOM     34  O   UNL     1      -5.189  10.907  69.667  0.00  0.00    -0.218 OA
ENDBRANCH  31  33
ENDBRANCH  30  31
ENDBRANCH  28  30
ENDBRANCH   7  27
TORSDOF 12
ENDMDL
MODEL 5
REMARK VINA RESULT:      -5.8      5.707      9.810
REMARK  Name = 
REMARK  12 active torsions:
REMARK  status: ('A' for Active; 'I' for Inactive)
REMARK    1  A    between atoms: N_4  and  C_5
REMARK    2  A    between atoms: N_4  and  C_10
REMARK    3  A    between atoms: C_5  and  C_6
REMARK    4  A    between atoms: C_6  and  C_8
REMARK    5  A    between atoms: C_13  and  C_14
REMARK    6  A    between atoms: N_16  and  C_17
REMARK    7  A    between atoms: C_17  and  C_18
REMARK    8  A    between atoms: C_18  and  C_20
REMARK    9  A    between atoms: C_24  and  C_25
REMARK   10  A    between atoms: N_27  and  C_28
REMARK   11  A    between atoms: C_28  and  C_29
REMARK   12  A    between atoms: C_29  and  C_31
REMARK                            x       y       z     vdW  Elec       q    Type
REMARK                         _______ _______ _______ _____ _____    ______ ____
ROOT
ATOM      1  C   UNL     1     -10.398  13.432  67.729  0.00  0.00    +0.065 A 
ATOM      2  C   UNL     1     -11.019  14.056  68.802  0.00  0.00    +0.049 A 
ATOM      3  I   UNL     1     -10.941  16.131  69.055  0.00  0.00    -0.041 I 
ATOM      4  C   UNL     1     -11.816  13.270  69.625  0.00  0.00    +0.067 A 
ATOM      5  C   UNL     1     -11.595  11.902  69.608  0.00  0.00    +0.040 A 
ATOM      6  I   UNL     1     -12.486  10.683  71.062  0.00  0.00    -0.042 I 
ATOM      7  C   UNL     1     -10.558  11.351  68.864  0.00  0.00    +0.067 A 
ATOM      8  C   UNL     1     -10.025  12.098  67.830  0.00  0.00    +0.049 A 
ATOM      9  I   UNL     1      -8.313  11.475  66.802  0.00  0.00    -0.041 I 
ENDROOT
BRANCH   1  12
ATOM     10  C   UNL     1      -9.739  15.957  66.096  0.00  0.00    +0.095 C 
ATOM     11  C   UNL     1      -9.416  15.381  66.490  0.00  0.00    +0.230 C 
ATOM     12  N   UNL     1     -10.162  14.164  66.549  0.00  0.00    -0.255 N 
ATOM     13  O   UNL     1      -8.209  15.301  66.159  0.00  0.00    -0.275 OA
BRANCH  12  14
ATOM     14  C   UNL     1     -10.788  13.797  65.281  0.00  0.00    +0.134 C 
BRANCH  14  15
ATOM     15  C   UNL     1     -12.267  13.192  65.712  0.00  0.00    +0.205 C 
ATOM     16  O   UNL     1     -12.987  14.357  65.042  0.00  0.00    -0.218 OA
BRANCH  15  17
ATOM     17  C   UNL     1     -12.336  12.264  64.343  0.00  0.00    +0.217 C 
ATOM     18  O   UNL     1     -12.553  13.135  63.303  0.00  0.00    -0.218 OA
ENDBRANCH  15  17
ENDBRANCH  14  15
ENDBRANCH  12  14
ENDBRANCH   1  12
BRANCH   4  19
ATOM     19  C   UNL     1     -12.642  13.892  70.644  0.00  0.00    +0.266 C 
ATOM     20  N   UNL     1     -12.084  14.392  71.863  0.00  0.00    -0.199 NA
ATOM     21  O   UNL     1     -13.890  13.995  70.442  0.00  0.00    -0.268 OA
BRANCH  20  22
ATOM     22  C   UNL     1     -12.975  14.382  73.020  0.00  0.00    +0.151 C 
BRANCH  22  23
ATOM     23  C   UNL     1     -13.203  15.983  73.371  0.00  0.00    +0.206 C 
ATOM     24  O   UNL     1     -11.898  16.364  72.681  0.00  0.00    -0.218 OA
BRANCH  23  25
ATOM     25  C   UNL     1     -12.449  15.818  74.835  0.00  0.00    +0.217 C 
ATOM     26  O   UNL     1     -12.269  17.154  75.228  0.00  0.00    -0.218 OA
ENDBRANCH  23  25
ENDBRANCH  22  23
ENDBRANCH  20  22
ENDBRANCH   4  19
BRANCH   7  27
ATOM     27  C   UNL     1     -10.010  10.030  69.201  0.00  0.00    +0.266 C 
ATOM     28  N   UNL     1     -10.480   8.822  68.611  0.00  0.00    -0.199 NA
ATOM     29  O   UNL     1      -9.595   9.898  70.394  0.00  0.00    -0.268 OA
BRANCH  28  30
ATOM     30  C   UNL     1     -11.000   7.710  69.396  0.00  0.00    +0.151 C 
BRANCH  30  31
ATOM     31  C   UNL     1     -10.337   6.360  68.705  0.00  0.00    +0.206 C 
ATOM     32  O   UNL     1      -8.998   7.063  68.507  0.00  0.00    -0.218 OA
BRANCH  31  33
ATOM     33  C   UNL     1     -10.856   6.811  67.199  0.00  0.00    +0.217 C 
ATOM     34  O   UNL     1     -10.856   5.572  66.536  0.00  0.00    -0.218 OA
ENDBRANCH  31  33
ENDBRANCH  30  31
ENDBRANCH  28  30
ENDBRANCH   7  27
TORSDOF 12
ENDMDL
MODEL 6
REMARK VINA RESULT:      -5.8      3.810      8.077
REMARK  Name = 
REMARK  12 active torsions:
REMARK  status: ('A' for Active; 'I' for Inactive)
REMARK    1  A    between atoms: N_4  and  C_5
REMARK    2  A    between atoms: N_4  and  C_10
REMARK    3  A    between atoms: C_5  and  C_6
REMARK    4  A    between atoms: C_6  and  C_8
REMARK    5  A    between atoms: C_13  and  C_14
REMARK    6  A    between atoms: N_16  and  C_17
REMARK    7  A    between atoms: C_17  and  C_18
REMARK    8  A    between atoms: C_18  and  C_20
REMARK    9  A    between atoms: C_24  and  C_25
REMARK   10  A    between atoms: N_27  and  C_28
REMARK   11  A    between atoms: C_28  and  C_29
REMARK   12  A    between atoms: C_29  and  C_31
REMARK                            x       y       z     vdW  Elec       q    Type
REMARK                         _______ _______ _______ _____ _____    ______ ____
ROOT
ATOM      1  C   UNL     1      -9.591  14.003  67.362  0.00  0.00    +0.065 A 
ATOM      2  C   UNL     1      -9.274  15.197  66.730  0.00  0.00    +0.049 A 
ATOM      3  I   UNL     1     -10.595  16.108  65.388  0.00  0.00    -0.041 I 
ATOM      4  C   UNL     1      -8.110  15.842  67.128  0.00  0.00    +0.067 A 
ATOM      5  C   UNL     1      -7.144  15.079  67.766  0.00  0.00    +0.040 A 
ATOM      6  I   UNL     1      -5.227  15.868  68.077  0.00  0.00    -0.042 I 
ATOM      7  C   UNL     1      -7.300  13.706  67.920  0.00  0.00    +0.067 A 
ATOM      8  C   UNL     1      -8.573  13.177  67.822  0.00  0.00    +0.049 A 
ATOM      9  I   UNL     1      -8.898  11.110  67.797  0.00  0.00    -0.041 I 
ENDROOT
BRANCH   1  12
ATOM     10  C   UNL     1     -12.482  13.499  66.433  0.00  0.00    +0.095 C 
ATOM     11  C   UNL     1     -11.790  13.169  66.488  0.00  0.00    +0.230 C 
ATOM     12  N   UNL     1     -10.943  13.652  67.533  0.00  0.00    -0.255 N 
ATOM     13  O   UNL     1     -11.935  11.926  66.393  0.00  0.00    -0.275 OA
BRANCH  12  14
ATOM     14  C   UNL     1     -11.643  13.884  68.794  0.00  0.00    +0.134 C 
BRANCH  14  15
ATOM     15  C   UNL     1     -10.909  15.224  69.431  0.00  0.00    +0.205 C 
ATOM     16  O   UNL     1     -12.049  16.122  68.965  0.00  0.00    -0.218 OA
BRANCH  15  17
ATOM     17  C   UNL     1     -11.616  14.965  70.906  0.00  0.00    +0.217 C 
ATOM     18  O   UNL     1     -12.171  13.710  70.848  0.00  0.00    -0.218 OA
ENDBRANCH  15  17
ENDBRANCH  14  15
ENDBRANCH  12  14
ENDBRANCH   1  12
BRANCH   4  19
ATOM     19  C   UNL     1      -7.822  17.182  66.648  0.00  0.00    +0.266 C 
ATOM     20  N   UNL     1      -8.148  18.342  67.419  0.00  0.00    -0.199 NA
ATOM     21  O   UNL     1      -7.265  17.321  65.517  0.00  0.00    -0.268 OA
BRANCH  20  22
ATOM     22  C   UNL     1      -8.430  19.554  66.653  0.00  0.00    +0.151 C 
BRANCH  22  23
ATOM     23  C   UNL     1      -9.463  20.414  67.618  0.00  0.00    +0.206 C 
ATOM     24  O   UNL     1      -9.290  19.420  68.762  0.00  0.00    -0.218 OA
BRANCH  23  25
ATOM     25  C   UNL     1     -10.773  19.593  67.028  0.00  0.00    +0.217 C 
ATOM     26  O   UNL     1     -10.672  19.827  65.647  0.00  0.00    -0.218 OA
ENDBRANCH  23  25
ENDBRANCH  22  23
ENDBRANCH  20  22
ENDBRANCH   4  19
BRANCH   7  27
ATOM     27  C   UNL     1      -6.135  12.836  68.128  0.00  0.00    +0.266 C 
ATOM     28  N   UNL     1      -5.683  12.442  69.422  0.00  0.00    -0.199 NA
ATOM     29  O   UNL     1      -5.209  12.944  67.267  0.00  0.00    -0.268 OA
BRANCH  28  30
ATOM     30  C   UNL     1      -4.331  12.702  69.899  0.00  0.00    +0.151 C 
BRANCH  30  31
ATOM     31  C   UNL     1      -4.427  12.540  71.543  0.00  0.00    +0.206 C 
ATOM     32  O   UNL     1      -5.592  11.563  71.425  0.00  0.00    -0.218 OA
BRANCH  31  33
ATOM     33  C   UNL     1      -5.454  13.833  71.664  0.00  0.00    +0.217 C 
ATOM     34  O   UNL     1      -5.801  13.769  73.025  0.00  0.00    -0.218 OA
ENDBRANCH  31  33
ENDBRANCH  30  31
ENDBRANCH  28  30
ENDBRANCH   7  27
TORSDOF 12
ENDMDL
MODEL 7
REMARK VINA RESULT:      -5.8      3.625      7.241
REMARK  Name = 
REMARK  12 active torsions:
REMARK  status: ('A' for Active; 'I' for Inactive)
REMARK    1  A    between atoms: N_4  and  C_5
REMARK    2  A    between atoms: N_4  and  C_10
REMARK    3  A    between atoms: C_5  and  C_6
REMARK    4  A    between atoms: C_6  and  C_8
REMARK    5  A    between atoms: C_13  and  C_14
REMARK    6  A    between atoms: N_16  and  C_17
REMARK    7  A    between atoms: C_17  and  C_18
REMARK    8  A    between atoms: C_18  and  C_20
REMARK    9  A    between atoms: C_24  and  C_25
REMARK   10  A    between atoms: N_27  and  C_28
REMARK   11  A    between atoms: C_28  and  C_29
REMARK   12  A    between atoms: C_29  and  C_31
REMARK                            x       y       z     vdW  Elec       q    Type
REMARK                         _______ _______ _______ _____ _____    ______ ____
ROOT
ATOM      1  C   UNL     1      -7.704  16.674  68.037  0.00  0.00    +0.065 A 
ATOM      2  C   UNL     1      -8.734  15.757  67.881  0.00  0.00    +0.049 A 
ATOM      3  I   UNL     1     -10.740  16.337  67.996  0.00  0.00    -0.041 I 
ATOM      4  C   UNL     1      -8.389  14.466  67.501  0.00  0.00    +0.067 A 
ATOM      5  C   UNL     1      -7.083  14.061  67.734  0.00  0.00    +0.040 A 
ATOM      6  I   UNL     1      -6.567  12.039  67.533  0.00  0.00    -0.042 I 
ATOM      7  C   UNL     1      -6.184  14.884  68.401  0.00  0.00    +0.067 A 
ATOM      8  C   UNL     1      -6.453  16.239  68.456  0.00  0.00    +0.049 A 
ATOM      9  I   UNL     1      -5.304  17.534  69.631  0.00  0.00    -0.041 I 
ENDROOT
BRANCH   1  12
ATOM     10  C   UNL     1      -8.971  19.438  68.520  0.00  0.00    +0.095 C 
ATOM     11  C   UNL     1      -8.383  18.988  68.730  0.00  0.00    +0.230 C 
ATOM     12  N   UNL     1      -7.944  18.034  67.762  0.00  0.00    -0.255 N 
ATOM     13  O   UNL     1      -7.506  19.706  69.269  0.00  0.00    -0.275 OA
BRANCH  12  14
ATOM     14  C   UNL     1      -7.890  18.562  66.401  0.00  0.00    +0.134 C 
BRANCH  14  15
ATOM     15  C   UNL     1      -6.305  18.988  66.187  0.00  0.00    +0.205 C 
ATOM     16  O   UNL     1      -6.294  18.405  64.778  0.00  0.00    -0.218 OA
BRANCH  15  17
ATOM     17  C   UNL     1      -6.735  20.491  65.643  0.00  0.00    +0.217 C 
ATOM     18  O   UNL     1      -6.438  21.364  66.661  0.00  0.00    -0.218 OA
ENDBRANCH  15  17
ENDBRANCH  14  15
ENDBRANCH  12  14
ENDBRANCH   1  12
BRANCH   4  19
ATOM     19  C   UNL     1      -9.424  13.516  67.134  0.00  0.00    +0.266 C 
ATOM     20  N   UNL     1      -9.846  13.352  65.777  0.00  0.00    -0.199 NA
ATOM     21  O   UNL     1      -9.963  12.816  68.044  0.00  0.00    -0.268 OA
BRANCH  20  22
ATOM     22  C   UNL     1     -11.229  12.920  65.590  0.00  0.00    +0.151 C 
BRANCH  22  23
ATOM     23  C   UNL     1     -11.861  14.027  64.534  0.00  0.00    +0.206 C 
ATOM     24  O   UNL     1     -13.257  13.855  65.123  0.00  0.00    -0.218 OA
BRANCH  23  25
ATOM     25  C   UNL     1     -12.134  12.855  63.397  0.00  0.00    +0.217 C 
ATOM     26  O   UNL     1     -13.223  12.158  63.944  0.00  0.00    -0.218 OA
ENDBRANCH  23  25
ENDBRANCH  22  23
ENDBRANCH  20  22
ENDBRANCH   4  19
BRANCH   7  27
ATOM     27  C   UNL     1      -5.007  14.321  69.075  0.00  0.00    +0.266 C 
ATOM     28  N   UNL     1      -5.048  13.799  70.401  0.00  0.00    -0.199 NA
ATOM     29  O   UNL     1      -3.893  14.840  68.757  0.00  0.00    -0.268 OA
BRANCH  28  30
ATOM     30  C   UNL     1      -4.194  14.295  71.472  0.00  0.00    +0.151 C 
BRANCH  30  31
ATOM     31  C   UNL     1      -3.804  12.952  72.357  0.00  0.00    +0.206 C 
ATOM     32  O   UNL     1      -5.205  12.375  72.183  0.00  0.00    -0.218 OA
BRANCH  31  33
ATOM     33  C   UNL     1      -4.230  13.697  73.773  0.00  0.00    +0.217 C 
ATOM     34  O   UNL     1      -5.628  13.744  73.638  0.00  0.00    -0.218 OA
ENDBRANCH  31  33
ENDBRANCH  30  31
ENDBRANCH  28  30
ENDBRANCH   7  27
TORSDOF 12
ENDMDL
MODEL 8
REMARK VINA RESULT:      -5.7      4.020      8.911
REMARK  Name = 
REMARK  12 active torsions:
REMARK  status: ('A' for Active; 'I' for Inactive)
REMARK    1  A    between atoms: N_4  and  C_5
REMARK    2  A    between atoms: N_4  and  C_10
REMARK    3  A    between atoms: C_5  and  C_6
REMARK    4  A    between atoms: C_6  and  C_8
REMARK    5  A    between atoms: C_13  and  C_14
REMARK    6  A    between atoms: N_16  and  C_17
REMARK    7  A    between atoms: C_17  and  C_18
REMARK    8  A    between atoms: C_18  and  C_20
REMARK    9  A    between atoms: C_24  and  C_25
REMARK   10  A    between atoms: N_27  and  C_28
REMARK   11  A    between atoms: C_28  and  C_29
REMARK   12  A    between atoms: C_29  and  C_31
REMARK                            x       y       z     vdW  Elec       q    Type
REMARK                         _______ _______ _______ _____ _____    ______ ____
ROOT
ATOM      1  C   UNL     1      -9.249  13.456  66.744  0.00  0.00    +0.065 A 
ATOM      2  C   UNL     1      -9.475  14.800  66.477  0.00  0.00    +0.049 A 
ATOM      3  I   UNL     1     -10.887  15.410  65.060  0.00  0.00    -0.041 I 
ATOM      4  C   UNL     1      -8.834  15.729  67.286  0.00  0.00    +0.067 A 
ATOM      5  C   UNL     1      -7.710  15.304  67.979  0.00  0.00    +0.040 A 
ATOM      6  I   UNL     1      -6.477  16.708  68.929  0.00  0.00    -0.042 I 
ATOM      7  C   UNL     1      -7.197  14.025  67.798  0.00  0.00    +0.067 A 
ATOM      8  C   UNL     1      -8.027  13.055  67.268  0.00  0.00    +0.049 A 
ATOM      9  I   UNL     1      -7.299  11.169  66.732  0.00  0.00    -0.041 I 
ENDROOT
BRANCH   1  12
ATOM     10  C   UNL     1     -11.547  11.552  67.497  0.00  0.00    +0.095 C 
ATOM     11  C   UNL     1     -11.388  12.288  67.342  0.00  0.00    +0.230 C 
ATOM     12  N   UNL     1     -10.269  12.521  66.484  0.00  0.00    -0.255 N 
ATOM     13  O   UNL     1     -12.460  12.876  67.061  0.00  0.00    -0.275 OA
BRANCH  12  14
ATOM     14  C   UNL     1     -10.193  11.598  65.355  0.00  0.00    +0.134 C 
BRANCH  14  15
ATOM     15  C   UNL     1     -10.535  12.535  64.033  0.00  0.00    +0.205 C 
ATOM     16  O   UNL     1      -9.610  11.702  63.151  0.00  0.00    -0.218 OA
BRANCH  15  17
ATOM     17  C   UNL     1     -11.852  11.605  63.659  0.00  0.00    +0.217 C 
ATOM     18  O   UNL     1     -12.951  12.410  63.841  0.00  0.00    -0.218 OA
ENDBRANCH  15  17
ENDBRANCH  14  15
ENDBRANCH  12  14
ENDBRANCH   1  12
BRANCH   4  19
ATOM     19  C   UNL     1      -9.175  17.137  67.186  0.00  0.00    +0.266 C 
ATOM     20  N   UNL     1      -8.617  17.975  66.169  0.00  0.00    -0.199 NA
ATOM     21  O   UNL     1      -9.991  17.631  68.022  0.00  0.00    -0.268 OA
BRANCH  20  22
ATOM     22  C   UNL     1      -8.484  19.388  66.514  0.00  0.00    +0.151 C 
BRANCH  22  23
ATOM     23  C   UNL     1      -7.313  19.948  65.488  0.00  0.00    +0.206 C 
ATOM     24  O   UNL     1      -6.794  18.536  65.240  0.00  0.00    -0.218 OA
BRANCH  23  25
ATOM     25  C   UNL     1      -6.258  20.176  66.743  0.00  0.00    +0.217 C 
ATOM     26  O   UNL     1      -6.496  21.515  67.092  0.00  0.00    -0.218 OA
ENDBRANCH  23  25
ENDBRANCH  22  23
ENDBRANCH  20  22
ENDBRANCH   4  19
BRANCH   7  27
ATOM     27  C   UNL     1      -5.793  13.727  68.114  0.00  0.00    +0.266 C 
ATOM     28  N   UNL     1      -5.368  13.261  69.392  0.00  0.00    -0.199 NA
ATOM     29  O   UNL     1      -4.932  14.437  67.509  0.00  0.00    -0.268 OA
BRANCH  28  30
ATOM     30  C   UNL     1      -4.369  13.956  70.194  0.00  0.00    +0.151 C 
BRANCH  30  31
ATOM     31  C   UNL     1      -4.255  13.069  71.586  0.00  0.00    +0.206 C 
ATOM     32  O   UNL     1      -5.687  12.567  71.439  0.00  0.00    -0.218 OA
BRANCH  31  33
ATOM     33  C   UNL     1      -4.743  14.355  72.508  0.00  0.00    +0.217 C 
ATOM     34  O   UNL     1      -5.813  13.781  73.217  0.00  0.00    -0.218 OA
ENDBRANCH  31  33
ENDBRANCH  30  31
ENDBRANCH  28  30
ENDBRANCH   7  27
TORSDOF 12
ENDMDL
MODEL 9
REMARK VINA RESULT:      -5.7      3.347      6.971
REMARK  Name = 
REMARK  12 active torsions:
REMARK  status: ('A' for Active; 'I' for Inactive)
REMARK    1  A    between atoms: N_4  and  C_5
REMARK    2  A    between atoms: N_4  and  C_10
REMARK    3  A    between atoms: C_5  and  C_6
REMARK    4  A    between atoms: C_6  and  C_8
REMARK    5  A    between atoms: C_13  and  C_14
REMARK    6  A    between atoms: N_16  and  C_17
REMARK    7  A    between atoms: C_17  and  C_18
REMARK    8  A    between atoms: C_18  and  C_20
REMARK    9  A    between atoms: C_24  and  C_25
REMARK   10  A    between atoms: N_27  and  C_28
REMARK   11  A    between atoms: C_28  and  C_29
REMARK   12  A    between atoms: C_29  and  C_31
REMARK                            x       y       z     vdW  Elec       q    Type
REMARK                         _______ _______ _______ _____ _____    ______ ____
ROOT
ATOM      1  C   UNL     1      -6.500  16.377  67.676  0.00  0.00    +0.065 A 
ATOM      2  C   UNL     1      -7.829  16.012  67.837  0.00  0.00    +0.049 A 
ATOM      3  I   UNL     1      -9.341  17.445  68.021  0.00  0.00    -0.041 I 
ATOM      4  C   UNL     1      -8.140  14.663  67.727  0.00  0.00    +0.067 A 
ATOM      5  C   UNL     1      -7.109  13.754  67.912  0.00  0.00    +0.040 A 
ATOM      6  I   UNL     1      -7.543  11.714  68.123  0.00  0.00    -0.042 I 
ATOM      7  C   UNL     1      -5.837  14.176  68.280  0.00  0.00    +0.067 A 
ATOM      8  C   UNL     1      -5.494  15.496  68.053  0.00  0.00    +0.049 A 
ATOM      9  I   UNL     1      -3.705  16.300  68.780  0.00  0.00    -0.041 I 
ENDROOT
BRANCH   1  12
ATOM     10  C   UNL     1      -5.763  18.327  65.411  0.00  0.00    +0.095 C 
ATOM     11  C   UNL     1      -6.359  17.975  65.747  0.00  0.00    +0.230 C 
ATOM     12  N   UNL     1      -6.192  17.635  67.125  0.00  0.00    -0.255 N 
ATOM     13  O   UNL     1      -7.409  18.582  65.427  0.00  0.00    -0.275 OA
BRANCH  12  14
ATOM     14  C   UNL     1      -5.538  18.678  67.912  0.00  0.00    +0.134 C 
BRANCH  14  15
ATOM     15  C   UNL     1      -6.780  19.440  68.699  0.00  0.00    +0.205 C 
ATOM     16  O   UNL     1      -6.105  19.234  70.051  0.00  0.00    -0.218 OA
BRANCH  15  17
ATOM     17  C   UNL     1      -6.068  20.919  68.485  0.00  0.00    +0.217 C 
ATOM     18  O   UNL     1      -6.583  21.424  67.316  0.00  0.00    -0.218 OA
ENDBRANCH  15  17
ENDBRANCH  14  15
ENDBRANCH  12  14
ENDBRANCH   1  12
BRANCH   4  19
ATOM     19  C   UNL     1      -9.528  14.238  67.693  0.00  0.00    +0.266 C 
ATOM     20  N   UNL     1     -10.193  13.943  66.461  0.00  0.00    -0.199 NA
ATOM     21  O   UNL     1     -10.162  14.125  68.786  0.00  0.00    -0.268 OA
BRANCH  20  22
ATOM     22  C   UNL     1     -11.637  14.166  66.450  0.00  0.00    +0.151 C 
BRANCH  22  23
ATOM     23  C   UNL     1     -11.990  14.472  64.862  0.00  0.00    +0.206 C 
ATOM     24  O   UNL     1     -10.877  13.541  64.392  0.00  0.00    -0.218 OA
BRANCH  23  25
ATOM     25  C   UNL     1     -10.979  15.783  64.842  0.00  0.00    +0.217 C 
ATOM     26  O   UNL     1     -11.596  16.618  63.896  0.00  0.00    -0.218 OA
ENDBRANCH  23  25
ENDBRANCH  22  23
ENDBRANCH  20  22
ENDBRANCH   4  19
BRANCH   7  27
ATOM     27  C   UNL     1      -4.901  13.256  68.941  0.00  0.00    +0.266 C 
ATOM     28  N   UNL     1      -4.847  13.089  70.355  0.00  0.00    -0.199 NA
ATOM     29  O   UNL     1      -3.786  13.097  68.357  0.00  0.00    -0.268 OA
BRANCH  28  30
ATOM     30  C   UNL     1      -3.632  13.307  71.129  0.00  0.00    +0.151 C 
BRANCH  30  31
ATOM     31  C   UNL     1      -4.040  12.890  72.678  0.00  0.00    +0.206 C 
ATOM     32  O   UNL     1      -5.285  12.151  72.201  0.00  0.00    -0.218 OA
BRANCH  31  33
ATOM     33  C   UNL     1      -4.890  14.295  72.889  0.00  0.00    +0.217 C 
ATOM     34  O   UNL     1      -5.869  13.877  73.807  0.00  0.00    -0.218 OA
ENDBRANCH  31  33
ENDBRANCH  30  31
ENDBRANCH  28  30
ENDBRANCH   7  27
TORSDOF 12
ENDMDL
