MODEL 1
REMARK VINA RESULT:      -4.7      0.000      0.000
REMARK  Name = 
REMARK  8 active torsions:
REMARK  status: ('A' for Active; 'I' for Inactive)
REMARK    1  A    between atoms: C_2  and  C_4
REMARK    2  A    between atoms: C_4  and  C_5
REMARK    3  A    between atoms: C_5  and  C_6
REMARK    4  A    between atoms: C_6  and  C_7
REMARK    5  A    between atoms: C_7  and  C_8
REMARK    6  A    between atoms: C_8  and  C_9
REMARK    7  A    between atoms: C_9  and  C_10
REMARK    8  A    between atoms: C_10  and  C_11
REMARK                            x       y       z     vdW  Elec       q    Type
REMARK                         _______ _______ _______ _____ _____    ______ ____
ROOT
ATOM      1  C   UNL     1     -11.220  15.910  68.245  0.00  0.00    +0.000 C 
ENDROOT
BRANCH   1   2
ATOM      2  C   UNL     1     -10.977  16.297  69.683  0.00  0.00    +0.001 C 
BRANCH   2   3
ATOM      3  C   UNL     1     -11.614  15.344  70.663  0.00  0.00    +0.012 C 
BRANCH   3   4
ATOM      4  C   UNL     1     -12.018  16.013  71.952  0.00  0.00    +0.114 C 
BRANCH   4   6
ATOM      5  O   UNL     1     -13.263  14.501  73.272  0.00  0.00    -0.246 OA
ATOM      6  C   UNL     1     -13.298  15.484  72.490  0.00  0.00    +0.365 C 
ATOM      7  O   UNL     1     -14.421  15.671  71.678  0.00  0.00    -0.246 OA
ENDBRANCH   4   6
ENDBRANCH   3   4
ENDBRANCH   2   3
ENDBRANCH   1   2
BRANCH   1   8
ATOM      8  C   UNL     1     -11.792  14.500  68.124  0.00  0.00    +0.001 C 
BRANCH   8   9
ATOM      9  C   UNL     1     -11.763  14.164  66.659  0.00  0.00    +0.012 C 
BRANCH   9  10
ATOM     10  C   UNL     1     -11.004  15.136  65.816  0.00  0.00    +0.114 C 
BRANCH  10  11
ATOM     11  C   UNL     1     -11.618  15.420  64.511  0.00  0.00    +0.365 C 
ATOM     12  O   UNL     1     -11.564  16.686  63.928  0.00  0.00    -0.246 OA
ATOM     13  O   UNL     1     -12.562  14.671  64.118  0.00  0.00    -0.246 OA
ENDBRANCH  10  11
ENDBRANCH   9  10
ENDBRANCH   8   9
ENDBRANCH   1   8
TORSDOF 8
ENDMDL
MODEL 2
REMARK VINA RESULT:      -4.7      1.137      6.781
REMARK  Name = 
REMARK  8 active torsions:
REMARK  status: ('A' for Active; 'I' for Inactive)
REMARK    1  A    between atoms: C_2  and  C_4
REMARK    2  A    between atoms: C_4  and  C_5
REMARK    3  A    between atoms: C_5  and  C_6
REMARK    4  A    between atoms: C_6  and  C_7
REMARK    5  A    between atoms: C_7  and  C_8
REMARK    6  A    between atoms: C_8  and  C_9
REMARK    7  A    between atoms: C_9  and  C_10
REMARK    8  A    between atoms: C_10  and  C_11
REMARK                            x       y       z     vdW  Elec       q    Type
REMARK                         _______ _______ _______ _____ _____    ______ ____
ROOT
ATOM      1  C   UNL     1     -11.314  15.656  68.556  0.00  0.00    +0.000 C 
ENDROOT
BRANCH   1   2
ATOM      2  C   UNL     1     -11.413  14.151  68.538  0.00  0.00    +0.001 C 
BRANCH   2   3
ATOM      3  C   UNL     1     -12.048  13.619  67.279  0.00  0.00    +0.012 C 
BRANCH   3   4
ATOM      4  C   UNL     1     -11.659  14.402  66.051  0.00  0.00    +0.114 C 
BRANCH   4   6
ATOM      5  O   UNL     1     -12.633  14.720  63.923  0.00  0.00    -0.246 OA
ATOM      6  C   UNL     1     -12.323  13.898  64.821  0.00  0.00    +0.365 C 
ATOM      7  O   UNL     1     -13.087  12.737  64.977  0.00  0.00    -0.246 OA
ENDBRANCH   4   6
ENDBRANCH   3   4
ENDBRANCH   2   3
ENDBRANCH   1   2
BRANCH   1   8
ATOM      8  C   UNL     1     -11.170  16.201  69.974  0.00  0.00    +0.001 C 
BRANCH   8   9
ATOM      9  C   UNL     1     -12.282  15.580  70.773  0.00  0.00    +0.012 C 
BRANCH   9  10
ATOM     10  C   UNL     1     -11.982  15.422  72.228  0.00  0.00    +0.114 C 
BRANCH  10  11
ATOM     11  C   UNL     1     -13.085  15.805  73.122  0.00  0.00    +0.365 C 
ATOM     12  O   UNL     1     -14.369  16.065  72.643  0.00  0.00    -0.246 OA
ATOM     13  O   UNL     1     -12.795  16.331  74.239  0.00  0.00    -0.246 OA
ENDBRANCH  10  11
ENDBRANCH   9  10
ENDBRANCH   8   9
ENDBRANCH   1   8
TORSDOF 8
ENDMDL
MODEL 3
REMARK VINA RESULT:      -4.7      0.922      6.721
REMARK  Name = 
REMARK  8 active torsions:
REMARK  status: ('A' for Active; 'I' for Inactive)
REMARK    1  A    between atoms: C_2  and  C_4
REMARK    2  A    between atoms: C_4  and  C_5
REMARK    3  A    between atoms: C_5  and  C_6
REMARK    4  A    between atoms: C_6  and  C_7
REMARK    5  A    between atoms: C_7  and  C_8
REMARK    6  A    between atoms: C_8  and  C_9
REMARK    7  A    between atoms: C_9  and  C_10
REMARK    8  A    between atoms: C_10  and  C_11
REMARK                            x       y       z     vdW  Elec       q    Type
REMARK                         _______ _______ _______ _____ _____    ______ ____
ROOT
ATOM      1  C   UNL     1     -11.727  15.174  68.430  0.00  0.00    +0.000 C 
ENDROOT
BRANCH   1   2
ATOM      2  C   UNL     1     -11.413  14.031  67.497  0.00  0.00    +0.001 C 
BRANCH   2   3
ATOM      3  C   UNL     1     -12.134  14.135  66.177  0.00  0.00    +0.012 C 
BRANCH   3   4
ATOM      4  C   UNL     1     -11.218  14.500  65.037  0.00  0.00    +0.114 C 
BRANCH   4   6
ATOM      5  O   UNL     1     -11.582  16.559  63.937  0.00  0.00    -0.246 OA
ATOM      6  C   UNL     1     -11.036  15.970  64.904  0.00  0.00    +0.365 C 
ATOM      7  O   UNL     1      -9.850  16.484  65.436  0.00  0.00    -0.246 OA
ENDBRANCH   4   6
ENDBRANCH   3   4
ENDBRANCH   2   3
ENDBRANCH   1   2
BRANCH   1   8
ATOM      8  C   UNL     1     -11.796  14.719  69.885  0.00  0.00    +0.001 C 
BRANCH   8   9
ATOM      9  C   UNL     1     -11.658  15.964  70.717  0.00  0.00    +0.012 C 
BRANCH   9  10
ATOM     10  C   UNL     1     -12.097  15.810  72.136  0.00  0.00    +0.114 C 
BRANCH  10  11
ATOM     11  C   UNL     1     -13.416  15.182  72.301  0.00  0.00    +0.365 C 
ATOM     12  O   UNL     1     -14.601  15.905  72.168  0.00  0.00    -0.246 OA
ATOM     13  O   UNL     1     -13.491  14.120  72.989  0.00  0.00    -0.246 OA
ENDBRANCH  10  11
ENDBRANCH   9  10
ENDBRANCH   8   9
ENDBRANCH   1   8
TORSDOF 8
ENDMDL
MODEL 4
REMARK VINA RESULT:      -4.7      1.336      1.860
REMARK  Name = 
REMARK  8 active torsions:
REMARK  status: ('A' for Active; 'I' for Inactive)
REMARK    1  A    between atoms: C_2  and  C_4
REMARK    2  A    between atoms: C_4  and  C_5
REMARK    3  A    between atoms: C_5  and  C_6
REMARK    4  A    between atoms: C_6  and  C_7
REMARK    5  A    between atoms: C_7  and  C_8
REMARK    6  A    between atoms: C_8  and  C_9
REMARK    7  A    between atoms: C_9  and  C_10
REMARK    8  A    between atoms: C_10  and  C_11
REMARK                            x       y       z     vdW  Elec       q    Type
REMARK                         _______ _______ _______ _____ _____    ______ ____
ROOT
ATOM      1  C   UNL     1     -12.072  13.976  68.845  0.00  0.00    +0.000 C 
ENDROOT
BRANCH   1   2
ATOM      2  C   UNL     1     -11.322  14.590  70.000  0.00  0.00    +0.001 C 
BRANCH   2   3
ATOM      3  C   UNL     1     -11.938  15.879  70.481  0.00  0.00    +0.012 C 
BRANCH   3   4
ATOM      4  C   UNL     1     -12.329  15.834  71.936  0.00  0.00    +0.114 C 
BRANCH   4   6
ATOM      5  O   UNL     1     -14.682  15.901  72.141  0.00  0.00    -0.246 OA
ATOM      6  C   UNL     1     -13.650  15.184  72.149  0.00  0.00    +0.365 C 
ATOM      7  O   UNL     1     -13.634  14.017  72.918  0.00  0.00    -0.246 OA
ENDBRANCH   4   6
ENDBRANCH   3   4
ENDBRANCH   2   3
ENDBRANCH   1   2
BRANCH   1   8
ATOM      8  C   UNL     1     -11.545  12.586  68.498  0.00  0.00    +0.001 C 
BRANCH   8   9
ATOM      9  C   UNL     1     -11.722  12.432  67.013  0.00  0.00    +0.012 C 
BRANCH   9  10
ATOM     10  C   UNL     1     -12.087  13.693  66.300  0.00  0.00    +0.114 C 
BRANCH  10  11
ATOM     11  C   UNL     1     -12.487  13.506  64.898  0.00  0.00    +0.365 C 
ATOM     12  O   UNL     1     -12.600  14.577  64.011  0.00  0.00    -0.246 OA
ATOM     13  O   UNL     1     -13.153  12.469  64.599  0.00  0.00    -0.246 OA
ENDBRANCH  10  11
ENDBRANCH   9  10
ENDBRANCH   8   9
ENDBRANCH   1   8
TORSDOF 8
ENDMDL
MODEL 5
REMARK VINA RESULT:      -4.6      1.271      1.941
REMARK  Name = 
REMARK  8 active torsions:
REMARK  status: ('A' for Active; 'I' for Inactive)
REMARK    1  A    between atoms: C_2  and  C_4
REMARK    2  A    between atoms: C_4  and  C_5
REMARK    3  A    between atoms: C_5  and  C_6
REMARK    4  A    between atoms: C_6  and  C_7
REMARK    5  A    between atoms: C_7  and  C_8
REMARK    6  A    between atoms: C_8  and  C_9
REMARK    7  A    between atoms: C_9  and  C_10
REMARK    8  A    between atoms: C_10  and  C_11
REMARK                            x       y       z     vdW  Elec       q    Type
REMARK                         _______ _______ _______ _____ _____    ______ ____
ROOT
ATOM      1  C   UNL     1     -11.519  13.843  68.921  0.00  0.00    +0.000 C 
ENDROOT
BRANCH   1   2
ATOM      2  C   UNL     1     -12.205  14.038  70.250  0.00  0.00    +0.001 C 
BRANCH   2   3
ATOM      3  C   UNL     1     -12.317  15.489  70.645  0.00  0.00    +0.012 C 
BRANCH   3   4
ATOM      4  C   UNL     1     -11.958  15.731  72.089  0.00  0.00    +0.114 C 
BRANCH   4   6
ATOM      5  O   UNL     1     -14.291  15.899  72.423  0.00  0.00    -0.246 OA
ATOM      6  C   UNL     1     -13.156  15.844  72.961  0.00  0.00    +0.365 C 
ATOM      7  O   UNL     1     -12.953  16.474  74.192  0.00  0.00    -0.246 OA
ENDBRANCH   4   6
ENDBRANCH   3   4
ENDBRANCH   2   3
ENDBRANCH   1   2
BRANCH   1   8
ATOM      8  C   UNL     1     -11.734  15.031  67.988  0.00  0.00    +0.001 C 
BRANCH   8   9
ATOM      9  C   UNL     1     -11.464  14.525  66.599  0.00  0.00    +0.012 C 
BRANCH   9  10
ATOM     10  C   UNL     1     -10.260  15.122  65.947  0.00  0.00    +0.114 C 
BRANCH  10  11
ATOM     11  C   UNL     1     -10.455  16.489  65.443  0.00  0.00    +0.365 C 
ATOM     12  O   UNL     1     -11.285  16.766  64.357  0.00  0.00    -0.246 OA
ATOM     13  O   UNL     1      -9.556  17.350  65.684  0.00  0.00    -0.246 OA
ENDBRANCH  10  11
ENDBRANCH   9  10
ENDBRANCH   8   9
ENDBRANCH   1   8
TORSDOF 8
ENDMDL
MODEL 6
REMARK VINA RESULT:      -4.2      2.286      6.678
REMARK  Name = 
REMARK  8 active torsions:
REMARK  status: ('A' for Active; 'I' for Inactive)
REMARK    1  A    between atoms: C_2  and  C_4
REMARK    2  A    between atoms: C_4  and  C_5
REMARK    3  A    between atoms: C_5  and  C_6
REMARK    4  A    between atoms: C_6  and  C_7
REMARK    5  A    between atoms: C_7  and  C_8
REMARK    6  A    between atoms: C_8  and  C_9
REMARK    7  A    between atoms: C_9  and  C_10
REMARK    8  A    between atoms: C_10  and  C_11
REMARK                            x       y       z     vdW  Elec       q    Type
REMARK                         _______ _______ _______ _____ _____    ______ ____
ROOT
ATOM      1  C   UNL     1     -12.806  14.609  70.264  0.00  0.00    +0.000 C 
ENDROOT
BRANCH   1   2
ATOM      2  C   UNL     1     -11.666  14.707  69.280  0.00  0.00    +0.001 C 
BRANCH   2   3
ATOM      3  C   UNL     1     -11.501  16.094  68.711  0.00  0.00    +0.012 C 
BRANCH   3   4
ATOM      4  C   UNL     1     -10.506  16.147  67.580  0.00  0.00    +0.114 C 
BRANCH   4   6
ATOM      5  O   UNL     1     -10.883  18.478  67.647  0.00  0.00    -0.246 OA
ATOM      6  C   UNL     1     -10.310  17.526  67.060  0.00  0.00    +0.365 C 
ATOM      7  O   UNL     1     -10.048  17.626  65.690  0.00  0.00    -0.246 OA
ENDBRANCH   4   6
ENDBRANCH   3   4
ENDBRANCH   2   3
ENDBRANCH   1   2
BRANCH   1   8
ATOM      8  C   UNL     1     -12.589  13.487  71.276  0.00  0.00    +0.001 C 
BRANCH   8   9
ATOM      9  C   UNL     1     -13.516  13.776  72.423  0.00  0.00    +0.012 C 
BRANCH   9  10
ATOM     10  C   UNL     1     -13.691  15.228  72.726  0.00  0.00    +0.114 C 
BRANCH  10  11
ATOM     11  C   UNL     1     -12.585  15.828  73.488  0.00  0.00    +0.365 C 
ATOM     12  O   UNL     1     -12.598  15.896  74.881  0.00  0.00    -0.246 OA
ATOM     13  O   UNL     1     -11.842  16.671  72.900  0.00  0.00    -0.246 OA
ENDBRANCH  10  11
ENDBRANCH   9  10
ENDBRANCH   8   9
ENDBRANCH   1   8
TORSDOF 8
ENDMDL
MODEL 7
REMARK VINA RESULT:      -4.2      1.822      6.748
REMARK  Name = 
REMARK  8 active torsions:
REMARK  status: ('A' for Active; 'I' for Inactive)
REMARK    1  A    between atoms: C_2  and  C_4
REMARK    2  A    between atoms: C_4  and  C_5
REMARK    3  A    between atoms: C_5  and  C_6
REMARK    4  A    between atoms: C_6  and  C_7
REMARK    5  A    between atoms: C_7  and  C_8
REMARK    6  A    between atoms: C_8  and  C_9
REMARK    7  A    between atoms: C_9  and  C_10
REMARK    8  A    between atoms: C_10  and  C_11
REMARK                            x       y       z     vdW  Elec       q    Type
REMARK                         _______ _______ _______ _____ _____    ______ ____
ROOT
ATOM      1  C   UNL     1     -12.127  13.695  69.700  0.00  0.00    +0.000 C 
ENDROOT
BRANCH   1   2
ATOM      2  C   UNL     1     -11.144  13.333  68.614  0.00  0.00    +0.001 C 
BRANCH   2   3
ATOM      3  C   UNL     1     -11.816  12.948  67.320  0.00  0.00    +0.012 C 
BRANCH   3   4
ATOM      4  C   UNL     1     -11.730  14.027  66.272  0.00  0.00    +0.114 C 
BRANCH   4   6
ATOM      5  O   UNL     1     -13.040  12.634  64.884  0.00  0.00    -0.246 OA
ATOM      6  C   UNL     1     -12.684  13.809  65.153  0.00  0.00    +0.365 C 
ATOM      7  O   UNL     1     -12.647  14.762  64.131  0.00  0.00    -0.246 OA
ENDBRANCH   4   6
ENDBRANCH   3   4
ENDBRANCH   2   3
ENDBRANCH   1   2
BRANCH   1   8
ATOM      8  C   UNL     1     -12.372  12.532  70.657  0.00  0.00    +0.001 C 
BRANCH   8   9
ATOM      9  C   UNL     1     -13.106  13.109  71.835  0.00  0.00    +0.012 C 
BRANCH   9  10
ATOM     10  C   UNL     1     -13.281  14.592  71.788  0.00  0.00    +0.114 C 
BRANCH  10  11
ATOM     11  C   UNL     1     -12.457  15.333  72.754  0.00  0.00    +0.365 C 
ATOM     12  O   UNL     1     -12.652  15.221  74.131  0.00  0.00    -0.246 OA
ATOM     13  O   UNL     1     -11.883  16.394  72.363  0.00  0.00    -0.246 OA
ENDBRANCH  10  11
ENDBRANCH   9  10
ENDBRANCH   8   9
ENDBRANCH   1   8
TORSDOF 8
ENDMDL
MODEL 8
REMARK VINA RESULT:      -4.2      3.458      4.129
REMARK  Name = 
REMARK  8 active torsions:
REMARK  status: ('A' for Active; 'I' for Inactive)
REMARK    1  A    between atoms: C_2  and  C_4
REMARK    2  A    between atoms: C_4  and  C_5
REMARK    3  A    between atoms: C_5  and  C_6
REMARK    4  A    between atoms: C_6  and  C_7
REMARK    5  A    between atoms: C_7  and  C_8
REMARK    6  A    between atoms: C_8  and  C_9
REMARK    7  A    between atoms: C_9  and  C_10
REMARK    8  A    between atoms: C_10  and  C_11
REMARK                            x       y       z     vdW  Elec       q    Type
REMARK                         _______ _______ _______ _____ _____    ______ ____
ROOT
ATOM      1  C   UNL     1     -10.885  14.729  68.206  0.00  0.00    +0.000 C 
ENDROOT
BRANCH   1   2
ATOM      2  C   UNL     1     -11.356  15.976  68.914  0.00  0.00    +0.001 C 
BRANCH   2   3
ATOM      3  C   UNL     1     -10.355  17.102  68.849  0.00  0.00    +0.012 C 
BRANCH   3   4
ATOM      4  C   UNL     1     -10.369  17.821  67.524  0.00  0.00    +0.114 C 
BRANCH   4   6
ATOM      5  O   UNL     1     -10.470  20.046  66.736  0.00  0.00    -0.246 OA
ATOM      6  C   UNL     1     -10.117  19.279  67.667  0.00  0.00    +0.365 C 
ATOM      7  O   UNL     1      -9.024  19.630  68.464  0.00  0.00    -0.246 OA
ENDBRANCH   4   6
ENDBRANCH   3   4
ENDBRANCH   2   3
ENDBRANCH   1   2
BRANCH   1   8
ATOM      8  C   UNL     1     -12.052  13.889  67.696  0.00  0.00    +0.001 C 
BRANCH   8   9
ATOM      9  C   UNL     1     -11.806  13.683  66.227  0.00  0.00    +0.012 C 
BRANCH   9  10
ATOM     10  C   UNL     1     -10.921  14.709  65.599  0.00  0.00    +0.114 C 
BRANCH  10  11
ATOM     11  C   UNL     1     -11.531  15.432  64.473  0.00  0.00    +0.365 C 
ATOM     12  O   UNL     1     -11.270  16.781  64.233  0.00  0.00    -0.246 OA
ATOM     13  O   UNL     1     -12.615  14.984  63.992  0.00  0.00    -0.246 OA
ENDBRANCH  10  11
ENDBRANCH   9  10
ENDBRANCH   8   9
ENDBRANCH   1   8
TORSDOF 8
ENDMDL
MODEL 9
REMARK VINA RESULT:      -4.2      4.091      5.704
REMARK  Name = 
REMARK  8 active torsions:
REMARK  status: ('A' for Active; 'I' for Inactive)
REMARK    1  A    between atoms: C_2  and  C_4
REMARK    2  A    between atoms: C_4  and  C_5
REMARK    3  A    between atoms: C_5  and  C_6
REMARK    4  A    between atoms: C_6  and  C_7
REMARK    5  A    between atoms: C_7  and  C_8
REMARK    6  A    between atoms: C_8  and  C_9
REMARK    7  A    between atoms: C_9  and  C_10
REMARK    8  A    between atoms: C_10  and  C_11
REMARK                            x       y       z     vdW  Elec       q    Type
REMARK                         _______ _______ _______ _____ _____    ______ ____
ROOT
ATOM      1  C   UNL     1      -9.579  16.263  67.170  0.00  0.00    +0.000 C 
ENDROOT
BRANCH   1   2
ATOM      2  C   UNL     1      -9.955  15.907  65.753  0.00  0.00    +0.001 C 
BRANCH   2   3
ATOM      3  C   UNL     1     -10.297  14.448  65.586  0.00  0.00    +0.012 C 
BRANCH   3   4
ATOM      4  C   UNL     1     -11.648  14.095  66.151  0.00  0.00    +0.114 C 
BRANCH   4   6
ATOM      5  O   UNL     1     -13.014  12.641  64.886  0.00  0.00    -0.246 OA
ATOM      6  C   UNL     1     -12.656  13.828  65.091  0.00  0.00    +0.365 C 
ATOM      7  O   UNL     1     -12.679  14.741  64.033  0.00  0.00    -0.246 OA
ENDBRANCH   4   6
ENDBRANCH   3   4
ENDBRANCH   2   3
ENDBRANCH   1   2
BRANCH   1   8
ATOM      8  C   UNL     1     -10.596  17.205  67.809  0.00  0.00    +0.001 C 
BRANCH   8   9
ATOM      9  C   UNL     1      -9.797  18.295  68.468  0.00  0.00    +0.012 C 
BRANCH   9  10
ATOM     10  C   UNL     1     -10.071  19.666  67.941  0.00  0.00    +0.114 C 
BRANCH  10  11
ATOM     11  C   UNL     1      -9.792  19.834  66.507  0.00  0.00    +0.365 C 
ATOM     12  O   UNL     1     -10.792  19.719  65.541  0.00  0.00    -0.246 OA
ATOM     13  O   UNL     1      -8.607  19.640  66.101  0.00  0.00    -0.246 OA
ENDBRANCH  10  11
ENDBRANCH   9  10
ENDBRANCH   8   9
ENDBRANCH   1   8
TORSDOF 8
ENDMDL
