MODEL 1
REMARK VINA RESULT:      -7.3      0.000      0.000
REMARK  Name = 
REMARK  8 active torsions:
REMARK  status: ('A' for Active; 'I' for Inactive)
REMARK    1  A    between atoms: C_2  and  C_4
REMARK    2  A    between atoms: C_4  and  C_6
REMARK    3  A    between atoms: C_6  and  O_8
REMARK    4  A    between atoms: O_8  and  C_9
REMARK    5  A    between atoms: C_9  and  C_10
REMARK    6  A    between atoms: C_10  and  O_11
REMARK    7  A    between atoms: O_11  and  C_12
REMARK    8  A    between atoms: C_12  and  N_13
REMARK                            x       y       z     vdW  Elec       q    Type
REMARK                         _______ _______ _______ _____ _____    ______ ____
ROOT
ATOM      1  C   UNL     1     -10.736  16.622  69.640  0.00  0.00    +0.258 C 
ENDROOT
BRANCH   1   2
ATOM      2  N   UNL     1     -11.802  15.637  69.700  0.00  0.00    -0.268 N 
ATOM      3  C   UNL     1     -12.498  15.416  70.841  0.00  0.00    +0.172 A 
ATOM      4  N   UNL     1     -12.781  16.147  71.939  0.00  0.00    -0.192 NA
ATOM      5  C   UNL     1     -13.081  15.599  73.137  0.00  0.00    +0.261 A 
ATOM      6  N   UNL     1     -13.343  14.284  73.195  0.00  0.00    -0.171 NA
ATOM      7  C   UNL     1     -13.341  13.552  72.080  0.00  0.00    +0.302 A 
ATOM      8  O   UNL     1     -13.444  12.296  72.185  0.00  0.00    -0.263 OA
ATOM      9  N   UNL     1     -12.684  16.332  74.303  0.00  0.00    -0.086 NA
ATOM     10  C   UNL     1     -12.854  14.073  70.886  0.00  0.00    +0.175 A 
ATOM     11  N   UNL     1     -12.439  13.530  69.717  0.00  0.00    -0.217 NA
ATOM     12  C   UNL     1     -11.744  14.461  69.048  0.00  0.00    +0.182 A 
ENDBRANCH   1   2
BRANCH   1  13
ATOM     13  O   UNL     1     -10.894  17.499  68.576  0.00  0.00    -0.328 OA
BRANCH  13  14
ATOM     14  C   UNL     1      -9.919  17.169  67.640  0.00  0.00    +0.192 C 
BRANCH  14  15
ATOM     15  C   UNL     1     -10.248  17.697  66.266  0.00  0.00    +0.240 C 
BRANCH  15  16
ATOM     16  O   UNL     1      -9.909  16.654  65.360  0.00  0.00    -0.445 OA
BRANCH  16  17
ATOM     17  C   UNL     1     -10.873  16.029  64.671  0.00  0.00    +0.335 C 
ATOM     18  O   UNL     1     -11.708  16.592  63.928  0.00  0.00    -0.248 OA
BRANCH  17  19
ATOM     19  C   UNL     1     -11.639  14.749  65.340  0.00  0.00    +0.190 C 
ATOM     20  N   UNL     1     -12.579  14.480  64.071  0.00  0.00    -0.121 NA
BRANCH  19  22
ATOM     21  C   UNL     1     -10.980  13.070  64.303  0.00  0.00    +0.002 C 
ATOM     22  C   UNL     1     -10.489  13.677  64.775  0.00  0.00    +0.029 C 
ATOM     23  C   UNL     1      -9.878  13.159  66.049  0.00  0.00    +0.002 C 
ENDBRANCH  19  22
ENDBRANCH  17  19
ENDBRANCH  16  17
ENDBRANCH  15  16
ENDBRANCH  14  15
ENDBRANCH  13  14
ENDBRANCH   1  13
TORSDOF 8
ENDMDL
MODEL 2
REMARK VINA RESULT:      -6.9      2.219      6.914
REMARK  Name = 
REMARK  8 active torsions:
REMARK  status: ('A' for Active; 'I' for Inactive)
REMARK    1  A    between atoms: C_2  and  C_4
REMARK    2  A    between atoms: C_4  and  C_6
REMARK    3  A    between atoms: C_6  and  O_8
REMARK    4  A    between atoms: O_8  and  C_9
REMARK    5  A    between atoms: C_9  and  C_10
REMARK    6  A    between atoms: C_10  and  O_11
REMARK    7  A    between atoms: O_11  and  C_12
REMARK    8  A    between atoms: C_12  and  N_13
REMARK                            x       y       z     vdW  Elec       q    Type
REMARK                         _______ _______ _______ _____ _____    ______ ____
ROOT
ATOM      1  C   UNL     1     -11.176  11.603  66.640  0.00  0.00    +0.258 C 
ENDROOT
BRANCH   1   2
ATOM      2  N   UNL     1     -11.265  12.414  65.438  0.00  0.00    -0.268 N 
ATOM      3  C   UNL     1     -10.651  13.618  65.350  0.00  0.00    +0.172 A 
ATOM      4  N   UNL     1      -9.585  14.189  65.948  0.00  0.00    -0.192 NA
ATOM      5  C   UNL     1      -9.426  15.526  66.063  0.00  0.00    +0.261 A 
ATOM      6  N   UNL     1     -10.231  16.331  65.353  0.00  0.00    -0.171 NA
ATOM      7  C   UNL     1     -11.139  15.810  64.526  0.00  0.00    +0.302 A 
ATOM      8  O   UNL     1     -11.978  16.588  63.986  0.00  0.00    -0.263 OA
ATOM      9  N   UNL     1      -8.735  15.999  67.226  0.00  0.00    -0.086 NA
ATOM     10  C   UNL     1     -11.425  14.449  64.549  0.00  0.00    +0.175 A 
ATOM     11  N   UNL     1     -12.451  13.691  64.094  0.00  0.00    -0.217 NA
ATOM     12  C   UNL     1     -12.384  12.494  64.696  0.00  0.00    +0.182 A 
ENDBRANCH   1   2
BRANCH   1  13
ATOM     13  O   UNL     1     -12.213  11.864  67.525  0.00  0.00    -0.328 OA
BRANCH  13  14
ATOM     14  C   UNL     1     -11.637  12.013  68.782  0.00  0.00    +0.192 C 
BRANCH  14  15
ATOM     15  C   UNL     1     -11.038  13.384  68.974  0.00  0.00    +0.240 C 
BRANCH  15  16
ATOM     16  O   UNL     1     -12.135  14.253  69.227  0.00  0.00    -0.445 OA
BRANCH  16  17
ATOM     17  C   UNL     1     -12.010  15.244  70.120  0.00  0.00    +0.335 C 
ATOM     18  O   UNL     1     -11.313  16.272  69.962  0.00  0.00    -0.248 OA
BRANCH  17  19
ATOM     19  C   UNL     1     -11.952  14.887  71.715  0.00  0.00    +0.190 C 
ATOM     20  N   UNL     1     -11.922  16.417  72.191  0.00  0.00    -0.121 NA
BRANCH  19  22
ATOM     21  C   UNL     1     -13.805  15.479  72.450  0.00  0.00    +0.002 C 
ATOM     22  C   UNL     1     -13.617  14.833  71.834  0.00  0.00    +0.029 C 
ATOM     23  C   UNL     1     -13.861  13.419  72.288  0.00  0.00    +0.002 C 
ENDBRANCH  19  22
ENDBRANCH  17  19
ENDBRANCH  16  17
ENDBRANCH  15  16
ENDBRANCH  14  15
ENDBRANCH  13  14
ENDBRANCH   1  13
TORSDOF 8
ENDMDL
MODEL 3
REMARK VINA RESULT:      -6.9      1.987      7.358
REMARK  Name = 
REMARK  8 active torsions:
REMARK  status: ('A' for Active; 'I' for Inactive)
REMARK    1  A    between atoms: C_2  and  C_4
REMARK    2  A    between atoms: C_4  and  C_6
REMARK    3  A    between atoms: C_6  and  O_8
REMARK    4  A    between atoms: O_8  and  C_9
REMARK    5  A    between atoms: C_9  and  C_10
REMARK    6  A    between atoms: C_10  and  O_11
REMARK    7  A    between atoms: O_11  and  C_12
REMARK    8  A    between atoms: C_12  and  N_13
REMARK                            x       y       z     vdW  Elec       q    Type
REMARK                         _______ _______ _______ _____ _____    ______ ____
ROOT
ATOM      1  C   UNL     1     -11.203  11.378  68.176  0.00  0.00    +0.258 C 
ENDROOT
BRANCH   1   2
ATOM      2  N   UNL     1     -11.366  12.791  67.880  0.00  0.00    -0.268 N 
ATOM      3  C   UNL     1     -11.818  13.212  66.674  0.00  0.00    +0.172 A 
ATOM      4  N   UNL     1     -12.580  12.670  65.701  0.00  0.00    -0.192 NA
ATOM      5  C   UNL     1     -12.524  13.065  64.410  0.00  0.00    +0.261 A 
ATOM      6  N   UNL     1     -11.866  14.196  64.112  0.00  0.00    -0.171 NA
ATOM      7  C   UNL     1     -11.315  14.925  65.084  0.00  0.00    +0.302 A 
ATOM      8  O   UNL     1     -10.578  15.901  64.759  0.00  0.00    -0.263 OA
ATOM      9  N   UNL     1     -12.778  12.065  63.415  0.00  0.00    -0.086 NA
ATOM     10  C   UNL     1     -11.213  14.427  66.378  0.00  0.00    +0.175 A 
ATOM     11  N   UNL     1     -10.471  14.757  67.462  0.00  0.00    -0.217 NA
ATOM     12  C   UNL     1     -10.512  13.731  68.324  0.00  0.00    +0.182 A 
ENDBRANCH   1   2
BRANCH   1  13
ATOM     13  O   UNL     1     -12.293  10.857  68.859  0.00  0.00    -0.328 OA
BRANCH  13  14
ATOM     14  C   UNL     1     -11.926  10.784  70.199  0.00  0.00    +0.192 C 
BRANCH  14  15
ATOM     15  C   UNL     1     -12.937  11.445  71.102  0.00  0.00    +0.240 C 
BRANCH  15  16
ATOM     16  O   UNL     1     -12.446  12.760  71.333  0.00  0.00    -0.445 OA
BRANCH  16  17
ATOM     17  C   UNL     1     -13.228  13.669  71.932  0.00  0.00    +0.335 C 
ATOM     18  O   UNL     1     -14.302  13.417  72.523  0.00  0.00    -0.248 OA
BRANCH  17  19
ATOM     19  C   UNL     1     -13.407  15.146  71.254  0.00  0.00    +0.190 C 
ATOM     20  N   UNL     1     -14.088  15.802  72.547  0.00  0.00    -0.121 NA
BRANCH  19  22
ATOM     21  C   UNL     1     -12.059  16.142  72.486  0.00  0.00    +0.002 C 
ATOM     22  C   UNL     1     -11.888  15.633  71.748  0.00  0.00    +0.029 C 
ATOM     23  C   UNL     1     -11.387  16.391  70.547  0.00  0.00    +0.002 C 
ENDBRANCH  19  22
ENDBRANCH  17  19
ENDBRANCH  16  17
ENDBRANCH  15  16
ENDBRANCH  14  15
ENDBRANCH  13  14
ENDBRANCH   1  13
TORSDOF 8
ENDMDL
MODEL 4
REMARK VINA RESULT:      -6.7      2.243      7.198
REMARK  Name = 
REMARK  8 active torsions:
REMARK  status: ('A' for Active; 'I' for Inactive)
REMARK    1  A    between atoms: C_2  and  C_4
REMARK    2  A    between atoms: C_4  and  C_6
REMARK    3  A    between atoms: C_6  and  O_8
REMARK    4  A    between atoms: O_8  and  C_9
REMARK    5  A    between atoms: C_9  and  C_10
REMARK    6  A    between atoms: C_10  and  O_11
REMARK    7  A    between atoms: O_11  and  C_12
REMARK    8  A    between atoms: C_12  and  N_13
REMARK                            x       y       z     vdW  Elec       q    Type
REMARK                         _______ _______ _______ _____ _____    ______ ____
ROOT
ATOM      1  C   UNL     1     -11.277  11.550  66.644  0.00  0.00    +0.258 C 
ENDROOT
BRANCH   1   2
ATOM      2  N   UNL     1     -11.304  12.380  65.452  0.00  0.00    -0.268 N 
ATOM      3  C   UNL     1     -10.644  13.562  65.398  0.00  0.00    +0.172 A 
ATOM      4  N   UNL     1      -9.573  14.084  66.033  0.00  0.00    -0.192 NA
ATOM      5  C   UNL     1      -9.369  15.412  66.172  0.00  0.00    +0.261 A 
ATOM      6  N   UNL     1     -10.124  16.256  65.454  0.00  0.00    -0.171 NA
ATOM      7  C   UNL     1     -11.029  15.781  64.596  0.00  0.00    +0.302 A 
ATOM      8  O   UNL     1     -11.824  16.598  64.047  0.00  0.00    -0.263 OA
ATOM      9  N   UNL     1      -8.691  15.842  67.359  0.00  0.00    -0.086 NA
ATOM     10  C   UNL     1     -11.365  14.432  64.591  0.00  0.00    +0.175 A 
ATOM     11  N   UNL     1     -12.407  13.720  64.098  0.00  0.00    -0.217 NA
ATOM     12  C   UNL     1     -12.400  12.513  64.683  0.00  0.00    +0.182 A 
ENDBRANCH   1   2
BRANCH   1  13
ATOM     13  O   UNL     1     -11.994  12.112  67.690  0.00  0.00    -0.328 OA
BRANCH  13  14
ATOM     14  C   UNL     1     -12.046  11.154  68.698  0.00  0.00    +0.192 C 
BRANCH  14  15
ATOM     15  C   UNL     1     -11.688  11.728  70.046  0.00  0.00    +0.240 C 
BRANCH  15  16
ATOM     16  O   UNL     1     -12.343  12.988  70.116  0.00  0.00    -0.445 OA
BRANCH  16  17
ATOM     17  C   UNL     1     -12.788  13.445  71.295  0.00  0.00    +0.335 C 
ATOM     18  O   UNL     1     -13.432  12.773  72.131  0.00  0.00    -0.248 OA
BRANCH  17  19
ATOM     19  C   UNL     1     -13.348  14.978  71.403  0.00  0.00    +0.190 C 
ATOM     20  N   UNL     1     -13.780  14.851  72.941  0.00  0.00    -0.121 NA
BRANCH  19  22
ATOM     21  C   UNL     1     -12.031  16.162  72.494  0.00  0.00    +0.002 C 
ATOM     22  C   UNL     1     -11.844  15.571  71.825  0.00  0.00    +0.029 C 
ATOM     23  C   UNL     1     -11.368  16.187  70.537  0.00  0.00    +0.002 C 
ENDBRANCH  19  22
ENDBRANCH  17  19
ENDBRANCH  16  17
ENDBRANCH  15  16
ENDBRANCH  14  15
ENDBRANCH  13  14
ENDBRANCH   1  13
TORSDOF 8
ENDMDL
MODEL 5
REMARK VINA RESULT:      -6.6      3.531      6.176
REMARK  Name = 
REMARK  8 active torsions:
REMARK  status: ('A' for Active; 'I' for Inactive)
REMARK    1  A    between atoms: C_2  and  C_4
REMARK    2  A    between atoms: C_4  and  C_6
REMARK    3  A    between atoms: C_6  and  O_8
REMARK    4  A    between atoms: O_8  and  C_9
REMARK    5  A    between atoms: C_9  and  C_10
REMARK    6  A    between atoms: C_10  and  O_11
REMARK    7  A    between atoms: O_11  and  C_12
REMARK    8  A    between atoms: C_12  and  N_13
REMARK                            x       y       z     vdW  Elec       q    Type
REMARK                         _______ _______ _______ _____ _____    ______ ____
ROOT
ATOM      1  C   UNL     1     -10.425  14.510  68.611  0.00  0.00    +0.258 C 
ENDROOT
BRANCH   1   2
ATOM      2  N   UNL     1     -10.668  13.467  67.630  0.00  0.00    -0.268 N 
ATOM      3  C   UNL     1     -10.962  13.763  66.341  0.00  0.00    +0.172 A 
ATOM      4  N   UNL     1     -10.717  14.810  65.525  0.00  0.00    -0.192 NA
ATOM      5  C   UNL     1     -11.480  15.106  64.450  0.00  0.00    +0.261 A 
ATOM      6  N   UNL     1     -12.374  14.199  64.028  0.00  0.00    -0.171 NA
ATOM      7  C   UNL     1     -12.472  13.020  64.642  0.00  0.00    +0.302 A 
ATOM      8  O   UNL     1     -13.422  12.249  64.317  0.00  0.00    -0.263 OA
ATOM      9  N   UNL     1     -11.601  16.491  64.104  0.00  0.00    -0.086 NA
ATOM     10  C   UNL     1     -11.825  12.790  65.851  0.00  0.00    +0.175 A 
ATOM     11  N   UNL     1     -11.962  11.872  66.838  0.00  0.00    -0.217 NA
ATOM     12  C   UNL     1     -11.323  12.330  67.925  0.00  0.00    +0.182 A 
ENDBRANCH   1   2
BRANCH   1  13
ATOM     13  O   UNL     1     -11.428  15.469  68.616  0.00  0.00    -0.328 OA
BRANCH  13  14
ATOM     14  C   UNL     1     -10.822  16.679  68.934  0.00  0.00    +0.192 C 
BRANCH  14  15
ATOM     15  C   UNL     1     -10.577  17.532  67.714  0.00  0.00    +0.240 C 
BRANCH  15  16
ATOM     16  O   UNL     1     -10.607  18.878  68.172  0.00  0.00    -0.445 OA
BRANCH  16  17
ATOM     17  C   UNL     1      -9.609  19.714  67.853  0.00  0.00    +0.335 C 
ATOM     18  O   UNL     1      -9.751  20.828  67.300  0.00  0.00    -0.248 OA
BRANCH  17  19
ATOM     19  C   UNL     1      -8.194  19.103  67.306  0.00  0.00    +0.190 C 
ATOM     20  N   UNL     1      -7.511  20.535  67.083  0.00  0.00    -0.121 NA
BRANCH  19  22
ATOM     21  C   UNL     1      -6.930  19.646  68.866  0.00  0.00    +0.002 C 
ATOM     22  C   UNL     1      -7.566  18.992  68.850  0.00  0.00    +0.029 C 
ATOM     23  C   UNL     1      -7.039  17.582  68.881  0.00  0.00    +0.002 C 
ENDBRANCH  19  22
ENDBRANCH  17  19
ENDBRANCH  16  17
ENDBRANCH  15  16
ENDBRANCH  14  15
ENDBRANCH  13  14
ENDBRANCH   1  13
TORSDOF 8
ENDMDL
MODEL 6
REMARK VINA RESULT:      -6.6      3.374      6.156
REMARK  Name = 
REMARK  8 active torsions:
REMARK  status: ('A' for Active; 'I' for Inactive)
REMARK    1  A    between atoms: C_2  and  C_4
REMARK    2  A    between atoms: C_4  and  C_6
REMARK    3  A    between atoms: C_6  and  O_8
REMARK    4  A    between atoms: O_8  and  C_9
REMARK    5  A    between atoms: C_9  and  C_10
REMARK    6  A    between atoms: C_10  and  O_11
REMARK    7  A    between atoms: O_11  and  C_12
REMARK    8  A    between atoms: C_12  and  N_13
REMARK                            x       y       z     vdW  Elec       q    Type
REMARK                         _______ _______ _______ _____ _____    ______ ____
ROOT
ATOM      1  C   UNL     1     -10.236  14.195  68.493  0.00  0.00    +0.258 C 
ENDROOT
BRANCH   1   2
ATOM      2  N   UNL     1     -10.526  13.211  67.465  0.00  0.00    -0.268 N 
ATOM      3  C   UNL     1     -10.872  13.581  66.208  0.00  0.00    +0.172 A 
ATOM      4  N   UNL     1     -10.656  14.673  65.445  0.00  0.00    -0.192 NA
ATOM      5  C   UNL     1     -11.462  15.033  64.422  0.00  0.00    +0.261 A 
ATOM      6  N   UNL     1     -12.378  14.155  63.986  0.00  0.00    -0.171 NA
ATOM      7  C   UNL     1     -12.456  12.942  64.535  0.00  0.00    +0.302 A 
ATOM      8  O   UNL     1     -13.423  12.195  64.207  0.00  0.00    -0.263 OA
ATOM      9  N   UNL     1     -11.590  16.437  64.162  0.00  0.00    -0.086 NA
ATOM     10  C   UNL     1     -11.760  12.641  65.701  0.00  0.00    +0.175 A 
ATOM     11  N   UNL     1     -11.860  11.668  66.638  0.00  0.00    -0.217 NA
ATOM     12  C   UNL     1     -11.174  12.060  67.721  0.00  0.00    +0.182 A 
ENDBRANCH   1   2
BRANCH   1  13
ATOM     13  O   UNL     1     -11.203  14.213  69.488  0.00  0.00    -0.328 OA
BRANCH  13  14
ATOM     14  C   UNL     1     -11.384  15.546  69.844  0.00  0.00    +0.192 C 
BRANCH  14  15
ATOM     15  C   UNL     1     -11.342  16.464  68.648  0.00  0.00    +0.240 C 
BRANCH  15  16
ATOM     16  O   UNL     1     -10.620  17.615  69.071  0.00  0.00    -0.445 OA
BRANCH  16  17
ATOM     17  C   UNL     1      -9.449  17.918  68.494  0.00  0.00    +0.335 C 
ATOM     18  O   UNL     1      -8.356  17.366  68.750  0.00  0.00    -0.248 OA
BRANCH  17  19
ATOM     19  C   UNL     1      -9.108  19.477  68.139  0.00  0.00    +0.190 C 
ATOM     20  N   UNL     1      -7.521  19.296  68.263  0.00  0.00    -0.121 NA
BRANCH  19  22
ATOM     21  C   UNL     1      -8.410  19.727  66.195  0.00  0.00    +0.002 C 
ATOM     22  C   UNL     1      -9.063  19.166  66.498  0.00  0.00    +0.029 C 
ATOM     23  C   UNL     1     -10.462  19.515  66.066  0.00  0.00    +0.002 C 
ENDBRANCH  19  22
ENDBRANCH  17  19
ENDBRANCH  16  17
ENDBRANCH  15  16
ENDBRANCH  14  15
ENDBRANCH  13  14
ENDBRANCH   1  13
TORSDOF 8
ENDMDL
MODEL 7
REMARK VINA RESULT:      -6.5      2.320      6.939
REMARK  Name = 
REMARK  8 active torsions:
REMARK  status: ('A' for Active; 'I' for Inactive)
REMARK    1  A    between atoms: C_2  and  C_4
REMARK    2  A    between atoms: C_4  and  C_6
REMARK    3  A    between atoms: C_6  and  O_8
REMARK    4  A    between atoms: O_8  and  C_9
REMARK    5  A    between atoms: C_9  and  C_10
REMARK    6  A    between atoms: C_10  and  O_11
REMARK    7  A    between atoms: O_11  and  C_12
REMARK    8  A    between atoms: C_12  and  N_13
REMARK                            x       y       z     vdW  Elec       q    Type
REMARK                         _______ _______ _______ _____ _____    ______ ____
ROOT
ATOM      1  C   UNL     1     -10.821  14.160  68.468  0.00  0.00    +0.258 C 
ENDROOT
BRANCH   1   2
ATOM      2  N   UNL     1     -10.858  13.222  67.359  0.00  0.00    -0.268 N 
ATOM      3  C   UNL     1     -11.051  13.639  66.085  0.00  0.00    +0.172 A 
ATOM      4  N   UNL     1     -10.837  14.793  65.419  0.00  0.00    -0.192 NA
ATOM      5  C   UNL     1     -11.517  15.143  64.305  0.00  0.00    +0.261 A 
ATOM      6  N   UNL     1     -12.267  14.214  63.692  0.00  0.00    -0.171 NA
ATOM      7  C   UNL     1     -12.302  12.966  64.161  0.00  0.00    +0.302 A 
ATOM      8  O   UNL     1     -13.130  12.156  63.653  0.00  0.00    -0.263 OA
ATOM      9  N   UNL     1     -11.746  16.542  64.099  0.00  0.00    -0.086 NA
ATOM     10  C   UNL     1     -11.757  12.656  65.402  0.00  0.00    +0.175 A 
ATOM     11  N   UNL     1     -11.894  11.619  66.263  0.00  0.00    -0.217 NA
ATOM     12  C   UNL     1     -11.417  12.002  67.457  0.00  0.00    +0.182 A 
ENDBRANCH   1   2
BRANCH   1  13
ATOM     13  O   UNL     1      -9.617  14.846  68.533  0.00  0.00    -0.328 OA
BRANCH  13  14
ATOM     14  C   UNL     1      -9.766  15.822  69.513  0.00  0.00    +0.192 C 
BRANCH  14  15
ATOM     15  C   UNL     1     -11.200  15.965  69.959  0.00  0.00    +0.240 C 
BRANCH  15  16
ATOM     16  O   UNL     1     -11.243  15.460  71.288  0.00  0.00    -0.445 OA
BRANCH  16  17
ATOM     17  C   UNL     1     -12.033  16.044  72.200  0.00  0.00    +0.335 C 
ATOM     18  O   UNL     1     -11.716  17.032  72.900  0.00  0.00    -0.248 OA
BRANCH  17  19
ATOM     19  C   UNL     1     -13.016  15.119  73.122  0.00  0.00    +0.190 C 
ATOM     20  N   UNL     1     -14.215  16.182  73.143  0.00  0.00    -0.121 NA
BRANCH  19  22
ATOM     21  C   UNL     1     -14.523  14.642  71.770  0.00  0.00    +0.002 C 
ATOM     22  C   UNL     1     -13.660  14.349  71.786  0.00  0.00    +0.029 C 
ATOM     23  C   UNL     1     -13.479  12.896  72.134  0.00  0.00    +0.002 C 
ENDBRANCH  19  22
ENDBRANCH  17  19
ENDBRANCH  16  17
ENDBRANCH  15  16
ENDBRANCH  14  15
ENDBRANCH  13  14
ENDBRANCH   1  13
TORSDOF 8
ENDMDL
MODEL 8
REMARK VINA RESULT:      -6.2      2.032      4.126
REMARK  Name = 
REMARK  8 active torsions:
REMARK  status: ('A' for Active; 'I' for Inactive)
REMARK    1  A    between atoms: C_2  and  C_4
REMARK    2  A    between atoms: C_4  and  C_6
REMARK    3  A    between atoms: C_6  and  O_8
REMARK    4  A    between atoms: O_8  and  C_9
REMARK    5  A    between atoms: C_9  and  C_10
REMARK    6  A    between atoms: C_10  and  O_11
REMARK    7  A    between atoms: O_11  and  C_12
REMARK    8  A    between atoms: C_12  and  N_13
REMARK                            x       y       z     vdW  Elec       q    Type
REMARK                         _______ _______ _______ _____ _____    ______ ____
ROOT
ATOM      1  C   UNL     1     -11.693  13.562  67.578  0.00  0.00    +0.258 C 
ENDROOT
BRANCH   1   2
ATOM      2  N   UNL     1     -11.679  14.080  68.935  0.00  0.00    -0.268 N 
ATOM      3  C   UNL     1     -11.994  13.296  69.995  0.00  0.00    +0.172 A 
ATOM      4  N   UNL     1     -11.958  11.970  70.241  0.00  0.00    -0.192 NA
ATOM      5  C   UNL     1     -12.737  11.366  71.165  0.00  0.00    +0.261 A 
ATOM      6  N   UNL     1     -13.403  12.133  72.043  0.00  0.00    -0.171 NA
ATOM      7  C   UNL     1     -13.261  13.459  72.016  0.00  0.00    +0.302 A 
ATOM      8  O   UNL     1     -14.013  14.159  72.754  0.00  0.00    -0.263 OA
ATOM      9  N   UNL     1     -13.145  10.020  70.890  0.00  0.00    -0.086 NA
ATOM     10  C   UNL     1     -12.613  14.084  70.957  0.00  0.00    +0.175 A 
ATOM     11  N   UNL     1     -12.576  15.355  70.488  0.00  0.00    -0.217 NA
ATOM     12  C   UNL     1     -12.081  15.326  69.242  0.00  0.00    +0.182 A 
ENDBRANCH   1   2
BRANCH   1  13
ATOM     13  O   UNL     1     -12.001  14.543  66.647  0.00  0.00    -0.328 OA
BRANCH  13  14
ATOM     14  C   UNL     1     -10.966  14.550  65.717  0.00  0.00    +0.192 C 
BRANCH  14  15
ATOM     15  C   UNL     1     -10.716  15.926  65.154  0.00  0.00    +0.240 C 
BRANCH  15  16
ATOM     16  O   UNL     1      -9.434  16.312  65.632  0.00  0.00    -0.445 OA
BRANCH  16  17
ATOM     17  C   UNL     1      -9.315  16.877  66.841  0.00  0.00    +0.335 C 
ATOM     18  O   UNL     1      -8.915  16.294  67.874  0.00  0.00    -0.248 OA
BRANCH  17  19
ATOM     19  C   UNL     1     -10.429  17.970  67.331  0.00  0.00    +0.190 C 
ATOM     20  N   UNL     1      -9.750  18.219  68.760  0.00  0.00    -0.121 NA
BRANCH  19  22
ATOM     21  C   UNL     1      -9.348  19.747  67.376  0.00  0.00    +0.002 C 
ATOM     22  C   UNL     1      -9.582  19.241  66.654  0.00  0.00    +0.029 C 
ATOM     23  C   UNL     1     -10.605  19.858  65.739  0.00  0.00    +0.002 C 
ENDBRANCH  19  22
ENDBRANCH  17  19
ENDBRANCH  16  17
ENDBRANCH  15  16
ENDBRANCH  14  15
ENDBRANCH  13  14
ENDBRANCH   1  13
TORSDOF 8
ENDMDL
MODEL 9
REMARK VINA RESULT:      -6.2      3.690      7.877
REMARK  Name = 
REMARK  8 active torsions:
REMARK  status: ('A' for Active; 'I' for Inactive)
REMARK    1  A    between atoms: C_2  and  C_4
REMARK    2  A    between atoms: C_4  and  C_6
REMARK    3  A    between atoms: C_6  and  O_8
REMARK    4  A    between atoms: O_8  and  C_9
REMARK    5  A    between atoms: C_9  and  C_10
REMARK    6  A    between atoms: C_10  and  O_11
REMARK    7  A    between atoms: O_11  and  C_12
REMARK    8  A    between atoms: C_12  and  N_13
REMARK                            x       y       z     vdW  Elec       q    Type
REMARK                         _______ _______ _______ _____ _____    ______ ____
ROOT
ATOM      1  C   UNL     1     -11.217  11.530  66.720  0.00  0.00    +0.258 C 
ENDROOT
BRANCH   1   2
ATOM      2  N   UNL     1     -11.295  12.337  65.514  0.00  0.00    -0.268 N 
ATOM      3  C   UNL     1     -10.661  13.530  65.420  0.00  0.00    +0.172 A 
ATOM      4  N   UNL     1      -9.584  14.085  66.013  0.00  0.00    -0.192 NA
ATOM      5  C   UNL     1      -9.403  15.420  66.122  0.00  0.00    +0.261 A 
ATOM      6  N   UNL     1     -10.196  16.235  65.410  0.00  0.00    -0.171 NA
ATOM      7  C   UNL     1     -11.114  15.726  64.588  0.00  0.00    +0.302 A 
ATOM      8  O   UNL     1     -11.942  16.516  64.047  0.00  0.00    -0.263 OA
ATOM      9  N   UNL     1      -8.701  15.886  67.281  0.00  0.00    -0.086 NA
ATOM     10  C   UNL     1     -11.423  14.371  64.617  0.00  0.00    +0.175 A 
ATOM     11  N   UNL     1     -12.463  13.628  64.169  0.00  0.00    -0.217 NA
ATOM     12  C   UNL     1     -12.415  12.433  64.775  0.00  0.00    +0.182 A 
ENDBRANCH   1   2
BRANCH   1  13
ATOM     13  O   UNL     1     -12.061  11.997  67.718  0.00  0.00    -0.328 OA
BRANCH  13  14
ATOM     14  C   UNL     1     -11.419  11.756  68.928  0.00  0.00    +0.192 C 
BRANCH  14  15
ATOM     15  C   UNL     1     -11.374  10.286  69.265  0.00  0.00    +0.240 C 
BRANCH  15  16
ATOM     16  O   UNL     1     -11.389  10.216  70.686  0.00  0.00    -0.445 OA
BRANCH  16  17
ATOM     17  C   UNL     1     -12.543   9.998  71.331  0.00  0.00    +0.335 C 
ATOM     18  O   UNL     1     -13.333  10.889  71.716  0.00  0.00    -0.248 OA
BRANCH  17  19
ATOM     19  C   UNL     1     -12.631   8.794  72.435  0.00  0.00    +0.190 C 
ATOM     20  N   UNL     1     -14.202   8.971  72.697  0.00  0.00    -0.121 NA
BRANCH  19  22
ATOM     21  C   UNL     1     -13.755   7.352  71.443  0.00  0.00    +0.002 C 
ATOM     22  C   UNL     1     -12.910   7.642  71.258  0.00  0.00    +0.029 C 
ATOM     23  C   UNL     1     -11.816   6.642  71.522  0.00  0.00    +0.002 C 
ENDBRANCH  19  22
ENDBRANCH  17  19
ENDBRANCH  16  17
ENDBRANCH  15  16
ENDBRANCH  14  15
ENDBRANCH  13  14
ENDBRANCH   1  13
TORSDOF 8
ENDMDL
