MODEL 1
REMARK VINA RESULT:      -7.2      0.000      0.000
REMARK  Name = 
REMARK  9 active torsions:
REMARK  status: ('A' for Active; 'I' for Inactive)
REMARK    1  A    between atoms: N_2  and  C_3
REMARK    2  A    between atoms: C_8  and  C_9
REMARK    3  A    between atoms: C_12  and  O_13
REMARK    4  A    between atoms: O_13  and  C_14
REMARK    5  A    between atoms: C_15  and  O_16
REMARK    6  A    between atoms: O_16  and  C_17
REMARK    7  A    between atoms: C_22  and  N_23
REMARK    8  A    between atoms: C_29  and  N_30
REMARK    9  A    between atoms: C_37  and  C_39
REMARK                            x       y       z     vdW  Elec       q    Type
REMARK                         _______ _______ _______ _____ _____    ______ ____
ROOT
ATOM      1  C   UNL     1     -11.113  12.074  65.804  0.00  0.00    +0.211 C 
ATOM      2  C   UNL     1     -11.256  12.626  64.283  0.00  0.00    +0.238 C 
ATOM      3  O   UNL     1     -10.089  12.814  63.700  0.00  0.00    -0.212 OA
ATOM      4  C   UNL     1     -11.990  14.093  64.524  0.00  0.00    +0.155 C 
ATOM      5  C   UNL     1     -10.524  14.919  64.636  0.00  0.00    +0.035 C 
ATOM      6  O   UNL     1     -12.205  13.930  66.043  0.00  0.00    -0.328 OA
ATOM      7  C   UNL     1     -10.693  13.724  66.288  0.00  0.00    +0.267 C 
ENDROOT
BRANCH   2   8
ATOM      8  C   UNL     1     -12.325  11.950  63.588  0.00  0.00    +0.242 C 
ATOM      9  O   UNL     1     -13.497  11.882  63.873  0.00  0.00    -0.285 OA
ENDBRANCH   2   8
BRANCH   1  10
ATOM     10  O   UNL     1      -9.667  11.621  65.639  0.00  0.00    -0.324 OA
BRANCH  10  12
ATOM     11  C   UNL     1      -9.290   9.317  64.962  0.00  0.00    +0.162 C 
ATOM     12  C   UNL     1     -10.015  10.240  66.264  0.00  0.00    +0.255 C 
ATOM     13  O   UNL     1      -8.741  10.261  67.137  0.00  0.00    -0.326 OA
ATOM     14  C   UNL     1      -9.100   9.180  68.163  0.00  0.00    +0.183 C 
ATOM     15  C   UNL     1      -9.423   7.966  66.960  0.00  0.00    +0.213 C 
ATOM     16  O   UNL     1      -8.490   7.005  67.648  0.00  0.00    -0.218 OA
ATOM     17  C   UNL     1      -8.143   8.528  65.956  0.00  0.00    +0.205 C 
ATOM     18  O   UNL     1      -8.191   7.268  65.121  0.00  0.00    -0.219 OA
BRANCH  14  19
ATOM     19  C   UNL     1     -10.687   9.624  68.333  0.00  0.00    +0.214 C 
ATOM     20  O   UNL     1     -11.053   9.454  69.600  0.00  0.00    -0.218 OA
ENDBRANCH  14  19
BRANCH  11  22
ATOM     21  C   UNL     1      -8.089  10.164  63.647  0.00  0.00    +0.108 C 
ATOM     22  N   UNL     1      -8.219  10.352  64.547  0.00  0.00    -0.210 NA
ENDBRANCH  11  22
ENDBRANCH  10  12
ENDBRANCH   1  10
BRANCH   7  23
ATOM     23  O   UNL     1     -10.778  13.426  67.781  0.00  0.00    -0.325 OA
BRANCH  23  24
ATOM     24  C   UNL     1     -11.821  14.274  68.431  0.00  0.00    +0.193 C 
ATOM     25  C   UNL     1     -10.778  15.374  69.263  0.00  0.00    +0.244 C 
ATOM     26  C   UNL     1     -12.065  15.949  70.254  0.00  0.00    +0.236 C 
ATOM     27  O   UNL     1     -11.171  16.992  70.888  0.00  0.00    -0.215 OA
ATOM     28  C   UNL     1     -11.773  14.797  71.486  0.00  0.00    +0.247 C 
ATOM     29  C   UNL     1     -12.955  13.857  70.662  0.00  0.00    +0.227 C 
ATOM     30  O   UNL     1     -12.836  12.754  71.690  0.00  0.00    -0.216 OA
ATOM     31  C   UNL     1     -11.708  13.127  69.736  0.00  0.00    +0.216 C 
ATOM     32  O   UNL     1     -12.691  12.200  69.072  0.00  0.00    -0.218 OA
BRANCH  28  33
ATOM     33  N   UNL     1     -12.836  15.465  72.407  0.00  0.00    -0.085 NA
ATOM     34  C   UNL     1     -12.409  15.623  73.757  0.00  0.00    +0.535 C 
ATOM     35  N   UNL     1     -12.810  16.711  74.587  0.00  0.00    +0.135 NA
ATOM     36  N   UNL     1     -11.970  14.572  74.341  0.00  0.00    +0.135 NA
ENDBRANCH  28  33
BRANCH  25  37
ATOM     37  N   UNL     1     -11.187  16.594  68.398  0.00  0.00    -0.085 NA
ATOM     38  C   UNL     1     -10.241  17.417  67.824  0.00  0.00    +0.535 C 
ATOM     39  N   UNL     1     -10.765  18.479  67.022  0.00  0.00    +0.135 NA
ATOM     40  N   UNL     1      -9.182  16.870  67.390  0.00  0.00    +0.135 NA
ENDBRANCH  25  37
ENDBRANCH  23  24
ENDBRANCH   7  23
TORSDOF 9
ENDMDL
MODEL 2
REMARK VINA RESULT:      -7.0      3.471      6.999
REMARK  Name = 
REMARK  9 active torsions:
REMARK  status: ('A' for Active; 'I' for Inactive)
REMARK    1  A    between atoms: N_2  and  C_3
REMARK    2  A    between atoms: C_8  and  C_9
REMARK    3  A    between atoms: C_12  and  O_13
REMARK    4  A    between atoms: O_13  and  C_14
REMARK    5  A    between atoms: C_15  and  O_16
REMARK    6  A    between atoms: O_16  and  C_17
REMARK    7  A    between atoms: C_22  and  N_23
REMARK    8  A    between atoms: C_29  and  N_30
REMARK    9  A    between atoms: C_37  and  C_39
REMARK                            x       y       z     vdW  Elec       q    Type
REMARK                         _______ _______ _______ _____ _____    ______ ____
ROOT
ATOM      1  C   UNL     1     -11.075  13.894  67.017  0.00  0.00    +0.211 C 
ATOM      2  C   UNL     1     -11.309  12.554  66.129  0.00  0.00    +0.238 C 
ATOM      3  O   UNL     1     -11.028  11.450  66.793  0.00  0.00    -0.212 OA
ATOM      4  C   UNL     1     -10.200  12.757  64.912  0.00  0.00    +0.155 C 
ATOM      5  C   UNL     1      -8.987  11.935  65.747  0.00  0.00    +0.035 C 
ATOM      6  O   UNL     1      -9.753  14.175  65.323  0.00  0.00    -0.328 OA
ATOM      7  C   UNL     1      -9.339  13.694  66.732  0.00  0.00    +0.267 C 
ENDROOT
BRANCH   2   8
ATOM      8  C   UNL     1     -12.519  12.656  65.350  0.00  0.00    +0.242 C 
ATOM      9  O   UNL     1     -13.117  13.644  64.995  0.00  0.00    -0.285 OA
ENDBRANCH   2   8
BRANCH   1  10
ATOM     10  O   UNL     1     -11.068  13.162  68.353  0.00  0.00    -0.324 OA
BRANCH  10  12
ATOM     11  C   UNL     1     -12.816  13.213  70.041  0.00  0.00    +0.162 C 
ATOM     12  C   UNL     1     -11.917  14.295  68.994  0.00  0.00    +0.255 C 
ATOM     13  O   UNL     1     -10.814  14.599  70.032  0.00  0.00    -0.326 OA
ATOM     14  C   UNL     1     -11.267  15.986  70.505  0.00  0.00    +0.183 C 
ATOM     15  C   UNL     1     -12.869  15.459  70.929  0.00  0.00    +0.213 C 
ATOM     16  O   UNL     1     -12.725  16.054  72.305  0.00  0.00    -0.218 OA
ATOM     17  C   UNL     1     -12.290  13.941  71.497  0.00  0.00    +0.205 C 
ATOM     18  O   UNL     1     -13.604  13.654  72.189  0.00  0.00    -0.219 OA
BRANCH  14  19
ATOM     19  C   UNL     1     -11.703  16.546  69.008  0.00  0.00    +0.214 C 
ATOM     20  O   UNL     1     -10.990  17.632  68.726  0.00  0.00    -0.218 OA
ENDBRANCH  14  19
BRANCH  11  22
ATOM     21  C   UNL     1     -12.228  11.342  70.245  0.00  0.00    +0.108 C 
ATOM     22  N   UNL     1     -11.729  12.124  70.193  0.00  0.00    -0.210 NA
ENDBRANCH  11  22
ENDBRANCH  10  12
ENDBRANCH   1  10
BRANCH   7  23
ATOM     23  O   UNL     1      -8.976  15.060  67.303  0.00  0.00    -0.325 OA
BRANCH  23  24
ATOM     24  C   UNL     1      -7.819  15.651  66.567  0.00  0.00    +0.193 C 
ATOM     25  C   UNL     1      -6.704  15.760  67.884  0.00  0.00    +0.244 C 
ATOM     26  C   UNL     1      -5.664  16.815  67.003  0.00  0.00    +0.236 C 
ATOM     27  O   UNL     1      -4.637  16.803  68.115  0.00  0.00    -0.215 OA
ATOM     28  C   UNL     1      -6.431  18.230  67.584  0.00  0.00    +0.247 C 
ATOM     29  C   UNL     1      -7.372  18.113  66.149  0.00  0.00    +0.227 C 
ATOM     30  O   UNL     1      -8.126  19.374  66.506  0.00  0.00    -0.216 OA
ATOM     31  C   UNL     1      -8.532  17.179  67.001  0.00  0.00    +0.216 C 
ATOM     32  O   UNL     1      -9.445  17.149  65.804  0.00  0.00    -0.218 OA
BRANCH  28  33
ATOM     33  N   UNL     1      -5.361  19.130  66.901  0.00  0.00    -0.085 NA
ATOM     34  C   UNL     1      -4.886  20.188  67.729  0.00  0.00    +0.535 C 
ATOM     35  N   UNL     1      -3.554  20.691  67.675  0.00  0.00    +0.135 NA
ATOM     36  N   UNL     1      -5.776  20.944  68.252  0.00  0.00    +0.135 NA
ENDBRANCH  28  33
BRANCH  25  37
ATOM     37  N   UNL     1      -5.744  14.686  67.309  0.00  0.00    -0.085 NA
ATOM     38  C   UNL     1      -5.463  13.528  68.003  0.00  0.00    +0.535 C 
ATOM     39  N   UNL     1      -4.593  12.612  67.332  0.00  0.00    +0.135 NA
ATOM     40  N   UNL     1      -6.411  13.003  68.664  0.00  0.00    +0.135 NA
ENDBRANCH  25  37
ENDBRANCH  23  24
ENDBRANCH   7  23
TORSDOF 9
ENDMDL
MODEL 3
REMARK VINA RESULT:      -6.8      3.632      6.991
REMARK  Name = 
REMARK  9 active torsions:
REMARK  status: ('A' for Active; 'I' for Inactive)
REMARK    1  A    between atoms: N_2  and  C_3
REMARK    2  A    between atoms: C_8  and  C_9
REMARK    3  A    between atoms: C_12  and  O_13
REMARK    4  A    between atoms: O_13  and  C_14
REMARK    5  A    between atoms: C_15  and  O_16
REMARK    6  A    between atoms: O_16  and  C_17
REMARK    7  A    between atoms: C_22  and  N_23
REMARK    8  A    between atoms: C_29  and  N_30
REMARK    9  A    between atoms: C_37  and  C_39
REMARK                            x       y       z     vdW  Elec       q    Type
REMARK                         _______ _______ _______ _____ _____    ______ ____
ROOT
ATOM      1  C   UNL     1     -11.179  13.759  67.082  0.00  0.00    +0.211 C 
ATOM      2  C   UNL     1     -11.663  12.557  66.103  0.00  0.00    +0.238 C 
ATOM      3  O   UNL     1     -11.703  11.390  66.714  0.00  0.00    -0.212 OA
ATOM      4  C   UNL     1     -10.454  12.539  64.968  0.00  0.00    +0.155 C 
ATOM      5  C   UNL     1      -9.535  11.411  65.821  0.00  0.00    +0.035 C 
ATOM      6  O   UNL     1      -9.711  13.787  65.489  0.00  0.00    -0.328 OA
ATOM      7  C   UNL     1      -9.526  13.157  66.889  0.00  0.00    +0.267 C 
ENDROOT
BRANCH   2   8
ATOM      8  C   UNL     1     -12.755  12.985  65.262  0.00  0.00    +0.242 C 
ATOM      9  O   UNL     1     -13.124  14.105  65.002  0.00  0.00    -0.285 OA
ENDBRANCH   2   8
BRANCH   1  10
ATOM     10  O   UNL     1     -11.443  12.988  68.370  0.00  0.00    -0.324 OA
BRANCH  10  12
ATOM     11  C   UNL     1     -12.914  13.365  70.267  0.00  0.00    +0.162 C 
ATOM     12  C   UNL     1     -12.068  14.256  69.017  0.00  0.00    +0.255 C 
ATOM     13  O   UNL     1     -10.802  14.506  69.865  0.00  0.00    -0.326 OA
ATOM     14  C   UNL     1     -11.034  15.966  70.270  0.00  0.00    +0.183 C 
ATOM     15  C   UNL     1     -12.604  15.661  70.953  0.00  0.00    +0.213 C 
ATOM     16  O   UNL     1     -12.202  16.334  72.238  0.00  0.00    -0.218 OA
ATOM     17  C   UNL     1     -12.111  14.131  71.569  0.00  0.00    +0.205 C 
ATOM     18  O   UNL     1     -13.334  14.050  72.455  0.00  0.00    -0.219 OA
BRANCH  14  19
ATOM     19  C   UNL     1     -11.621  16.462  68.802  0.00  0.00    +0.214 C 
ATOM     20  O   UNL     1     -10.875  17.467  68.353  0.00  0.00    -0.218 OA
ENDBRANCH  14  19
BRANCH  11  22
ATOM     21  C   UNL     1     -12.497  11.465  70.590  0.00  0.00    +0.108 C 
ATOM     22  N   UNL     1     -11.937  12.171  70.367  0.00  0.00    -0.210 NA
ENDBRANCH  11  22
ENDBRANCH  10  12
ENDBRANCH   1  10
BRANCH   7  23
ATOM     23  O   UNL     1      -8.888  14.367  67.561  0.00  0.00    -0.325 OA
BRANCH  23  24
ATOM     24  C   UNL     1      -7.439  14.463  67.216  0.00  0.00    +0.193 C 
ATOM     25  C   UNL     1      -6.778  13.964  68.733  0.00  0.00    +0.244 C 
ATOM     26  C   UNL     1      -5.209  14.540  68.314  0.00  0.00    +0.236 C 
ATOM     27  O   UNL     1      -4.616  13.989  69.593  0.00  0.00    -0.215 OA
ATOM     28  C   UNL     1      -5.482  16.091  68.984  0.00  0.00    +0.247 C 
ATOM     29  C   UNL     1      -5.960  16.518  67.388  0.00  0.00    +0.227 C 
ATOM     30  O   UNL     1      -6.222  17.944  67.817  0.00  0.00    -0.216 OA
ATOM     31  C   UNL     1      -7.579  16.105  67.778  0.00  0.00    +0.216 C 
ATOM     32  O   UNL     1      -8.065  16.576  66.433  0.00  0.00    -0.218 OA
BRANCH  28  33
ATOM     33  N   UNL     1      -4.000  16.497  68.731  0.00  0.00    -0.085 NA
ATOM     34  C   UNL     1      -3.372  17.111  69.852  0.00  0.00    +0.535 C 
ATOM     35  N   UNL     1      -1.987  16.967  70.156  0.00  0.00    +0.135 NA
ATOM     36  N   UNL     1      -3.984  18.110  70.370  0.00  0.00    +0.135 NA
ENDBRANCH  28  33
BRANCH  25  37
ATOM     37  N   UNL     1      -6.203  12.636  68.175  0.00  0.00    -0.085 NA
ATOM     38  C   UNL     1      -6.552  11.418  68.719  0.00  0.00    +0.535 C 
ATOM     39  N   UNL     1      -5.974  10.277  68.077  0.00  0.00    +0.135 NA
ATOM     40  N   UNL     1      -7.750  11.280  69.114  0.00  0.00    +0.135 NA
ENDBRANCH  25  37
ENDBRANCH  23  24
ENDBRANCH   7  23
TORSDOF 9
ENDMDL
MODEL 4
REMARK VINA RESULT:      -6.7      5.974      9.916
REMARK  Name = 
REMARK  9 active torsions:
REMARK  status: ('A' for Active; 'I' for Inactive)
REMARK    1  A    between atoms: N_2  and  C_3
REMARK    2  A    between atoms: C_8  and  C_9
REMARK    3  A    between atoms: C_12  and  O_13
REMARK    4  A    between atoms: O_13  and  C_14
REMARK    5  A    between atoms: C_15  and  O_16
REMARK    6  A    between atoms: O_16  and  C_17
REMARK    7  A    between atoms: C_22  and  N_23
REMARK    8  A    between atoms: C_29  and  N_30
REMARK    9  A    between atoms: C_37  and  C_39
REMARK                            x       y       z     vdW  Elec       q    Type
REMARK                         _______ _______ _______ _____ _____    ______ ____
ROOT
ATOM      1  C   UNL     1      -5.006  20.086  69.233  0.00  0.00    +0.211 C 
ATOM      2  C   UNL     1      -4.169  19.974  70.620  0.00  0.00    +0.238 C 
ATOM      3  O   UNL     1      -3.367  18.928  70.646  0.00  0.00    -0.212 OA
ATOM      4  C   UNL     1      -5.382  19.761  71.730  0.00  0.00    +0.155 C 
ATOM      5  C   UNL     1      -5.326  18.080  71.615  0.00  0.00    +0.035 C 
ATOM      6  O   UNL     1      -6.553  19.956  70.744  0.00  0.00    -0.328 OA
ATOM      7  C   UNL     1      -6.057  18.801  69.845  0.00  0.00    +0.267 C 
ENDROOT
BRANCH   2   8
ATOM      8  C   UNL     1      -3.700  21.271  71.045  0.00  0.00    +0.242 C 
ATOM      9  O   UNL     1      -4.060  21.943  71.982  0.00  0.00    -0.285 OA
ENDBRANCH   2   8
BRANCH   1  10
ATOM     10  O   UNL     1      -4.093  19.144  68.457  0.00  0.00    -0.324 OA
BRANCH  10  12
ATOM     11  C   UNL     1      -2.645  19.435  66.527  0.00  0.00    +0.162 C 
ATOM     12  C   UNL     1      -4.088  20.121  67.248  0.00  0.00    +0.255 C 
ATOM     13  O   UNL     1      -5.070  19.226  66.460  0.00  0.00    -0.326 OA
ATOM     14  C   UNL     1      -5.543  20.221  65.394  0.00  0.00    +0.183 C 
ATOM     15  C   UNL     1      -3.936  20.599  64.849  0.00  0.00    +0.213 C 
ATOM     16  O   UNL     1      -4.325  20.305  63.425  0.00  0.00    -0.218 OA
ATOM     17  C   UNL     1      -3.409  18.975  65.067  0.00  0.00    +0.205 C 
ATOM     18  O   UNL     1      -2.158  19.230  64.257  0.00  0.00    -0.219 OA
BRANCH  14  19
ATOM     19  C   UNL     1      -5.650  21.525  66.410  0.00  0.00    +0.214 C 
ATOM     20  O   UNL     1      -6.897  21.624  66.861  0.00  0.00    -0.218 OA
ENDBRANCH  14  19
BRANCH  11  22
ATOM     21  C   UNL     1      -1.938  17.755  67.278  0.00  0.00    +0.108 C 
ATOM     22  N   UNL     1      -2.810  17.996  67.067  0.00  0.00    -0.210 NA
ENDBRANCH  11  22
ENDBRANCH  10  12
ENDBRANCH   1  10
BRANCH   7  23
ATOM     23  O   UNL     1      -7.089  18.964  68.735  0.00  0.00    -0.325 OA
BRANCH  23  24
ATOM     24  C   UNL     1      -8.172  17.944  68.864  0.00  0.00    +0.193 C 
ATOM     25  C   UNL     1      -7.545  16.762  67.769  0.00  0.00    +0.244 C 
ATOM     26  C   UNL     1      -9.050  15.926  67.706  0.00  0.00    +0.236 C 
ATOM     27  O   UNL     1      -8.457  14.830  66.847  0.00  0.00    -0.215 OA
ATOM     28  C   UNL     1      -9.612  16.821  66.359  0.00  0.00    +0.247 C 
ATOM     29  C   UNL     1     -10.335  17.838  67.543  0.00  0.00    +0.227 C 
ATOM     30  O   UNL     1     -10.931  18.717  66.467  0.00  0.00    -0.216 OA
ATOM     31  C   UNL     1      -8.921  18.810  67.553  0.00  0.00    +0.216 C 
ATOM     32  O   UNL     1      -9.556  19.793  68.500  0.00  0.00    -0.218 OA
BRANCH  28  33
ATOM     33  N   UNL     1     -10.878  15.922  66.248  0.00  0.00    -0.085 NA
ATOM     34  C   UNL     1     -11.232  15.591  64.908  0.00  0.00    +0.535 C 
ATOM     35  N   UNL     1     -11.834  14.354  64.536  0.00  0.00    +0.135 NA
ATOM     36  N   UNL     1     -11.359  16.571  64.095  0.00  0.00    +0.135 NA
ENDBRANCH  28  33
BRANCH  25  37
ATOM     37  N   UNL     1      -7.259  15.718  68.881  0.00  0.00    -0.085 NA
ATOM     38  C   UNL     1      -6.058  15.045  68.943  0.00  0.00    +0.535 C 
ATOM     39  N   UNL     1      -5.922  14.142  70.044  0.00  0.00    +0.135 NA
ATOM     40  N   UNL     1      -5.012  15.693  68.629  0.00  0.00    +0.135 NA
ENDBRANCH  25  37
ENDBRANCH  23  24
ENDBRANCH   7  23
TORSDOF 9
ENDMDL
MODEL 5
REMARK VINA RESULT:      -6.6      3.667      6.703
REMARK  Name = 
REMARK  9 active torsions:
REMARK  status: ('A' for Active; 'I' for Inactive)
REMARK    1  A    between atoms: N_2  and  C_3
REMARK    2  A    between atoms: C_8  and  C_9
REMARK    3  A    between atoms: C_12  and  O_13
REMARK    4  A    between atoms: O_13  and  C_14
REMARK    5  A    between atoms: C_15  and  O_16
REMARK    6  A    between atoms: O_16  and  C_17
REMARK    7  A    between atoms: C_22  and  N_23
REMARK    8  A    between atoms: C_29  and  N_30
REMARK    9  A    between atoms: C_37  and  C_39
REMARK                            x       y       z     vdW  Elec       q    Type
REMARK                         _______ _______ _______ _____ _____    ______ ____
ROOT
ATOM      1  C   UNL     1     -10.105  14.036  68.147  0.00  0.00    +0.211 C 
ATOM      2  C   UNL     1     -11.381  14.327  69.109  0.00  0.00    +0.238 C 
ATOM      3  O   UNL     1     -12.344  14.981  68.491  0.00  0.00    -0.212 OA
ATOM      4  C   UNL     1     -10.713  15.305  70.270  0.00  0.00    +0.155 C 
ATOM      5  C   UNL     1     -11.083  16.720  69.431  0.00  0.00    +0.035 C 
ATOM      6  O   UNL     1      -9.257  15.192  69.773  0.00  0.00    -0.328 OA
ATOM      7  C   UNL     1      -9.638  15.728  68.374  0.00  0.00    +0.267 C 
ENDROOT
BRANCH   2   8
ATOM      8  C   UNL     1     -11.682  13.177  69.928  0.00  0.00    +0.242 C 
ATOM      9  O   UNL     1     -12.412  13.093  70.886  0.00  0.00    -0.285 OA
ENDBRANCH   2   8
BRANCH   1  10
ATOM     10  O   UNL     1     -10.864  14.289  66.850  0.00  0.00    -0.324 OA
BRANCH  10  12
ATOM     11  C   UNL     1     -11.926  12.913  65.151  0.00  0.00    +0.162 C 
ATOM     12  C   UNL     1     -10.867  12.765  66.539  0.00  0.00    +0.255 C 
ATOM     13  O   UNL     1      -9.560  12.881  65.724  0.00  0.00    -0.326 OA
ATOM     14  C   UNL     1      -9.142  11.406  65.678  0.00  0.00    +0.183 C 
ATOM     15  C   UNL     1     -10.652  10.866  65.005  0.00  0.00    +0.213 C 
ATOM     16  O   UNL     1      -9.928  10.150  63.897  0.00  0.00    -0.218 OA
ATOM     17  C   UNL     1     -10.798  12.278  64.032  0.00  0.00    +0.205 C 
ATOM     18  O   UNL     1     -11.887  11.639  63.200  0.00  0.00    -0.219 OA
BRANCH  14  19
ATOM     19  C   UNL     1      -9.560  11.059  67.243  0.00  0.00    +0.214 C 
ATOM     20  O   UNL     1      -8.526  10.486  67.852  0.00  0.00    -0.218 OA
ENDBRANCH  14  19
BRANCH  11  22
ATOM     21  C   UNL     1     -12.315  14.689  64.387  0.00  0.00    +0.108 C 
ATOM     22  N   UNL     1     -11.526  14.349  64.739  0.00  0.00    -0.210 NA
ENDBRANCH  11  22
ENDBRANCH  10  12
ENDBRANCH   1  10
BRANCH   7  23
ATOM     23  O   UNL     1      -8.271  15.555  67.722  0.00  0.00    -0.325 OA
BRANCH  23  24
ATOM     24  C   UNL     1      -7.471  16.810  67.826  0.00  0.00    +0.193 C 
ATOM     25  C   UNL     1      -7.704  17.399  66.217  0.00  0.00    +0.244 C 
ATOM     26  C   UNL     1      -6.421  18.538  66.378  0.00  0.00    +0.236 C 
ATOM     27  O   UNL     1      -6.714  19.128  65.015  0.00  0.00    -0.215 OA
ATOM     28  C   UNL     1      -5.242  17.456  65.771  0.00  0.00    +0.247 C 
ATOM     29  C   UNL     1      -4.979  17.071  67.427  0.00  0.00    +0.227 C 
ATOM     30  O   UNL     1      -3.886  16.094  67.056  0.00  0.00    -0.216 OA
ATOM     31  C   UNL     1      -6.141  15.814  67.305  0.00  0.00    +0.216 C 
ATOM     32  O   UNL     1      -5.861  15.365  68.714  0.00  0.00    -0.218 OA
BRANCH  28  33
ATOM     33  N   UNL     1      -4.160  18.576  65.781  0.00  0.00    -0.085 NA
ATOM     34  C   UNL     1      -3.399  18.650  64.579  0.00  0.00    +0.535 C 
ATOM     35  N   UNL     1      -2.884  19.869  64.048  0.00  0.00    +0.135 NA
ATOM     36  N   UNL     1      -2.851  17.563  64.185  0.00  0.00    +0.135 NA
ENDBRANCH  28  33
BRANCH  25  37
ATOM     37  N   UNL     1      -8.552  18.618  66.665  0.00  0.00    -0.085 NA
ATOM     38  C   UNL     1      -9.774  18.894  66.088  0.00  0.00    +0.535 C 
ATOM     39  N   UNL     1     -10.460  20.027  66.628  0.00  0.00    +0.135 NA
ATOM     40  N   UNL     1     -10.505  17.904  65.776  0.00  0.00    +0.135 NA
ENDBRANCH  25  37
ENDBRANCH  23  24
ENDBRANCH   7  23
TORSDOF 9
ENDMDL
MODEL 6
REMARK VINA RESULT:      -6.5      3.090      6.078
REMARK  Name = 
REMARK  9 active torsions:
REMARK  status: ('A' for Active; 'I' for Inactive)
REMARK    1  A    between atoms: N_2  and  C_3
REMARK    2  A    between atoms: C_8  and  C_9
REMARK    3  A    between atoms: C_12  and  O_13
REMARK    4  A    between atoms: O_13  and  C_14
REMARK    5  A    between atoms: C_15  and  O_16
REMARK    6  A    between atoms: O_16  and  C_17
REMARK    7  A    between atoms: C_22  and  N_23
REMARK    8  A    between atoms: C_29  and  N_30
REMARK    9  A    between atoms: C_37  and  C_39
REMARK                            x       y       z     vdW  Elec       q    Type
REMARK                         _______ _______ _______ _____ _____    ______ ____
ROOT
ATOM      1  C   UNL     1     -10.145   8.829  68.351  0.00  0.00    +0.211 C 
ATOM      2  C   UNL     1      -9.215   7.600  67.838  0.00  0.00    +0.238 C 
ATOM      3  O   UNL     1      -8.448   7.112  68.793  0.00  0.00    -0.212 OA
ATOM      4  C   UNL     1      -8.265   8.347  66.702  0.00  0.00    +0.155 C 
ATOM      5  C   UNL     1      -7.061   8.731  67.818  0.00  0.00    +0.035 C 
ATOM      6  O   UNL     1      -8.979   9.713  66.752  0.00  0.00    -0.328 OA
ATOM      7  C   UNL     1      -8.708   9.859  68.266  0.00  0.00    +0.267 C 
ENDROOT
BRANCH   2   8
ATOM      8  C   UNL     1      -9.957   6.720  66.969  0.00  0.00    +0.242 C 
ATOM      9  O   UNL     1     -11.147   6.523  66.918  0.00  0.00    -0.285 OA
ENDBRANCH   2   8
BRANCH   1  10
ATOM     10  O   UNL     1      -9.980   8.505  69.830  0.00  0.00    -0.324 OA
BRANCH  10  12
ATOM     11  C   UNL     1     -11.945   7.216  70.450  0.00  0.00    +0.162 C 
ATOM     12  C   UNL     1     -11.470   8.864  70.090  0.00  0.00    +0.255 C 
ATOM     13  O   UNL     1     -11.173   9.242  71.558  0.00  0.00    -0.326 OA
ATOM     14  C   UNL     1     -12.438  10.041  71.890  0.00  0.00    +0.183 C 
ATOM     15  C   UNL     1     -13.523   8.764  71.425  0.00  0.00    +0.213 C 
ATOM     16  O   UNL     1     -14.232   8.853  72.750  0.00  0.00    -0.218 OA
ATOM     17  C   UNL     1     -12.466   7.553  72.044  0.00  0.00    +0.205 C 
ATOM     18  O   UNL     1     -13.558   6.510  71.976  0.00  0.00    -0.219 OA
BRANCH  14  19
ATOM     19  C   UNL     1     -12.531  10.831  70.437  0.00  0.00    +0.214 C 
ATOM     20  O   UNL     1     -12.438  12.141  70.647  0.00  0.00    -0.218 OA
ENDBRANCH  14  19
BRANCH  11  22
ATOM     21  C   UNL     1     -10.616   5.811  70.836  0.00  0.00    +0.108 C 
ATOM     22  N   UNL     1     -10.585   6.725  70.999  0.00  0.00    -0.210 NA
ENDBRANCH  11  22
ENDBRANCH  10  12
ENDBRANCH   1  10
BRANCH   7  23
ATOM     23  O   UNL     1      -9.486  11.153  68.478  0.00  0.00    -0.325 OA
BRANCH  23  24
ATOM     24  C   UNL     1      -9.332  12.062  67.304  0.00  0.00    +0.193 C 
ATOM     25  C   UNL     1      -8.385  13.297  68.057  0.00  0.00    +0.244 C 
ATOM     26  C   UNL     1      -8.676  14.400  66.765  0.00  0.00    +0.236 C 
ATOM     27  O   UNL     1      -7.746  15.428  67.374  0.00  0.00    -0.215 OA
ATOM     28  C   UNL     1     -10.067  15.067  67.506  0.00  0.00    +0.247 C 
ATOM     29  C   UNL     1     -10.922  13.900  66.575  0.00  0.00    +0.227 C 
ATOM     30  O   UNL     1     -12.245  14.394  67.117  0.00  0.00    -0.216 OA
ATOM     31  C   UNL     1     -10.804  12.792  67.880  0.00  0.00    +0.216 C 
ATOM     32  O   UNL     1     -11.649  11.782  67.151  0.00  0.00    -0.218 OA
BRANCH  28  33
ATOM     33  N   UNL     1     -10.181  16.150  66.394  0.00  0.00    -0.085 NA
ATOM     34  C   UNL     1     -10.119  17.486  66.883  0.00  0.00    +0.535 C 
ATOM     35  N   UNL     1      -9.543  18.566  66.153  0.00  0.00    +0.135 NA
ATOM     36  N   UNL     1     -10.934  17.785  67.825  0.00  0.00    +0.135 NA
ENDBRANCH  28  33
BRANCH  25  37
ATOM     37  N   UNL     1      -7.115  12.991  67.222  0.00  0.00    -0.085 NA
ATOM     38  C   UNL     1      -5.907  12.715  67.827  0.00  0.00    +0.535 C 
ATOM     39  N   UNL     1      -4.832  12.414  66.931  0.00  0.00    +0.135 NA
ATOM     40  N   UNL     1      -5.936  12.037  68.900  0.00  0.00    +0.135 NA
ENDBRANCH  25  37
ENDBRANCH  23  24
ENDBRANCH   7  23
TORSDOF 9
ENDMDL
MODEL 7
REMARK VINA RESULT:      -6.4      4.017      5.706
REMARK  Name = 
REMARK  9 active torsions:
REMARK  status: ('A' for Active; 'I' for Inactive)
REMARK    1  A    between atoms: N_2  and  C_3
REMARK    2  A    between atoms: C_8  and  C_9
REMARK    3  A    between atoms: C_12  and  O_13
REMARK    4  A    between atoms: O_13  and  C_14
REMARK    5  A    between atoms: C_15  and  O_16
REMARK    6  A    between atoms: O_16  and  C_17
REMARK    7  A    between atoms: C_22  and  N_23
REMARK    8  A    between atoms: C_29  and  N_30
REMARK    9  A    between atoms: C_37  and  C_39
REMARK                            x       y       z     vdW  Elec       q    Type
REMARK                         _______ _______ _______ _____ _____    ______ ____
ROOT
ATOM      1  C   UNL     1     -10.733  10.299  66.782  0.00  0.00    +0.211 C 
ATOM      2  C   UNL     1     -10.755  11.843  66.280  0.00  0.00    +0.238 C 
ATOM      3  O   UNL     1      -9.552  12.380  66.240  0.00  0.00    -0.212 OA
ATOM      4  C   UNL     1     -11.642  12.574  67.474  0.00  0.00    +0.155 C 
ATOM      5  C   UNL     1     -10.279  12.943  68.397  0.00  0.00    +0.035 C 
ATOM      6  O   UNL     1     -12.010  11.281  68.231  0.00  0.00    -0.328 OA
ATOM      7  C   UNL     1     -10.523  10.911  68.429  0.00  0.00    +0.267 C 
ENDROOT
BRANCH   2   8
ATOM      8  C   UNL     1     -11.673  12.014  65.179  0.00  0.00    +0.242 C 
ATOM      9  O   UNL     1     -12.756  12.548  65.166  0.00  0.00    -0.285 OA
ENDBRANCH   2   8
BRANCH   1  10
ATOM     10  O   UNL     1      -9.243  10.103  66.530  0.00  0.00    -0.324 OA
BRANCH  10  12
ATOM     11  C   UNL     1      -8.296   8.735  64.759  0.00  0.00    +0.162 C 
ATOM     12  C   UNL     1      -9.503   8.656  66.026  0.00  0.00    +0.255 C 
ATOM     13  O   UNL     1      -8.547   8.065  67.085  0.00  0.00    -0.326 OA
ATOM     14  C   UNL     1      -8.983   6.595  67.050  0.00  0.00    +0.183 C 
ATOM     15  C   UNL     1      -8.741   6.431  65.336  0.00  0.00    +0.213 C 
ATOM     16  O   UNL     1      -7.883   5.213  65.550  0.00  0.00    -0.218 OA
ATOM     17  C   UNL     1      -7.350   7.446  65.369  0.00  0.00    +0.205 C 
ATOM     18  O   UNL     1      -6.944   7.002  63.982  0.00  0.00    -0.219 OA
BRANCH  14  19
ATOM     19  C   UNL     1     -10.607   6.899  66.927  0.00  0.00    +0.214 C 
ATOM     20  O   UNL     1     -11.250   6.209  67.864  0.00  0.00    -0.218 OA
ENDBRANCH  14  19
BRANCH  11  22
ATOM     21  C   UNL     1      -7.008  10.228  64.718  0.00  0.00    +0.108 C 
ATOM     22  N   UNL     1      -7.350   9.751  65.438  0.00  0.00    -0.210 NA
ENDBRANCH  11  22
ENDBRANCH  10  12
ENDBRANCH   1  10
BRANCH   7  23
ATOM     23  O   UNL     1     -10.748   9.552  69.082  0.00  0.00    -0.325 OA
BRANCH  23  24
ATOM     24  C   UNL     1     -10.504   9.624  70.554  0.00  0.00    +0.193 C 
ATOM     25  C   UNL     1      -9.199   8.494  70.655  0.00  0.00    +0.244 C 
ATOM     26  C   UNL     1      -9.349   8.375  72.367  0.00  0.00    +0.236 C 
ATOM     27  O   UNL     1      -8.129   7.483  72.456  0.00  0.00    -0.215 OA
ATOM     28  C   UNL     1     -10.436   7.056  72.287  0.00  0.00    +0.247 C 
ATOM     29  C   UNL     1     -11.656   8.267  72.361  0.00  0.00    +0.227 C 
ATOM     30  O   UNL     1     -12.742   7.216  72.327  0.00  0.00    -0.216 OA
ATOM     31  C   UNL     1     -11.671   8.336  70.647  0.00  0.00    +0.216 C 
ATOM     32  O   UNL     1     -12.819   9.311  70.658  0.00  0.00    -0.218 OA
BRANCH  28  33
ATOM     33  N   UNL     1     -10.401   6.889  73.834  0.00  0.00    -0.085 NA
ATOM     34  C   UNL     1     -10.218   5.543  74.264  0.00  0.00    +0.535 C 
ATOM     35  N   UNL     1      -9.508   5.184  75.447  0.00  0.00    +0.135 NA
ATOM     36  N   UNL     1     -11.028   4.677  73.782  0.00  0.00    +0.135 NA
ENDBRANCH  28  33
BRANCH  25  37
ATOM     37  N   UNL     1      -8.149   9.569  71.039  0.00  0.00    -0.085 NA
ATOM     38  C   UNL     1      -6.979   9.718  70.323  0.00  0.00    +0.535 C 
ATOM     39  N   UNL     1      -6.124  10.774  70.768  0.00  0.00    +0.135 NA
ATOM     40  N   UNL     1      -7.043   9.554  69.066  0.00  0.00    +0.135 NA
ENDBRANCH  25  37
ENDBRANCH  23  24
ENDBRANCH   7  23
TORSDOF 9
ENDMDL
MODEL 8
REMARK VINA RESULT:      -6.4      5.697      9.307
REMARK  Name = 
REMARK  9 active torsions:
REMARK  status: ('A' for Active; 'I' for Inactive)
REMARK    1  A    between atoms: N_2  and  C_3
REMARK    2  A    between atoms: C_8  and  C_9
REMARK    3  A    between atoms: C_12  and  O_13
REMARK    4  A    between atoms: O_13  and  C_14
REMARK    5  A    between atoms: C_15  and  O_16
REMARK    6  A    between atoms: O_16  and  C_17
REMARK    7  A    between atoms: C_22  and  N_23
REMARK    8  A    between atoms: C_29  and  N_30
REMARK    9  A    between atoms: C_37  and  C_39
REMARK                            x       y       z     vdW  Elec       q    Type
REMARK                         _______ _______ _______ _____ _____    ______ ____
ROOT
ATOM      1  C   UNL     1      -5.320  18.518  67.931  0.00  0.00    +0.211 C 
ATOM      2  C   UNL     1      -4.464  18.569  69.310  0.00  0.00    +0.238 C 
ATOM      3  O   UNL     1      -3.262  18.043  69.181  0.00  0.00    -0.212 OA
ATOM      4  C   UNL     1      -5.376  17.609  70.309  0.00  0.00    +0.155 C 
ATOM      5  C   UNL     1      -4.535  16.208  69.894  0.00  0.00    +0.035 C 
ATOM      6  O   UNL     1      -6.546  17.399  69.324  0.00  0.00    -0.328 OA
ATOM      7  C   UNL     1      -5.605  16.801  68.253  0.00  0.00    +0.267 C 
ENDROOT
BRANCH   2   8
ATOM      8  C   UNL     1      -4.646  19.833  69.983  0.00  0.00    +0.242 C 
ATOM      9  O   UNL     1      -5.647  20.499  70.098  0.00  0.00    -0.285 OA
ENDBRANCH   2   8
BRANCH   1  10
ATOM     10  O   UNL     1      -4.109  18.278  67.038  0.00  0.00    -0.324 OA
BRANCH  10  12
ATOM     11  C   UNL     1      -3.385  19.184  64.902  0.00  0.00    +0.162 C 
ATOM     12  C   UNL     1      -4.392  19.602  66.273  0.00  0.00    +0.255 C 
ATOM     13  O   UNL     1      -5.691  19.028  65.666  0.00  0.00    -0.326 OA
ATOM     14  C   UNL     1      -6.369  20.324  65.207  0.00  0.00    +0.183 C 
ATOM     15  C   UNL     1      -5.011  20.849  64.257  0.00  0.00    +0.213 C 
ATOM     16  O   UNL     1      -5.899  21.049  63.057  0.00  0.00    -0.218 OA
ATOM     17  C   UNL     1      -4.655  19.241  63.757  0.00  0.00    +0.205 C 
ATOM     18  O   UNL     1      -3.736  19.741  62.666  0.00  0.00    -0.219 OA
BRANCH  14  19
ATOM     19  C   UNL     1      -5.953  21.217  66.540  0.00  0.00    +0.214 C 
ATOM     20  O   UNL     1      -7.050  21.493  67.239  0.00  0.00    -0.218 OA
ENDBRANCH  14  19
BRANCH  11  22
ATOM     21  C   UNL     1      -2.699  17.342  64.737  0.00  0.00    +0.108 C 
ATOM     22  N   UNL     1      -3.538  17.648  64.995  0.00  0.00    -0.210 NA
ENDBRANCH  11  22
ENDBRANCH  10  12
ENDBRANCH   1  10
BRANCH   7  23
ATOM     23  O   UNL     1      -6.643  16.652  67.147  0.00  0.00    -0.325 OA
BRANCH  23  24
ATOM     24  C   UNL     1      -7.910  16.073  67.684  0.00  0.00    +0.193 C 
ATOM     25  C   UNL     1      -7.887  14.568  66.834  0.00  0.00    +0.244 C 
ATOM     26  C   UNL     1      -9.541  14.258  67.205  0.00  0.00    +0.236 C 
ATOM     27  O   UNL     1      -9.474  12.888  66.564  0.00  0.00    -0.215 OA
ATOM     28  C   UNL     1     -10.113  15.012  65.779  0.00  0.00    +0.247 C 
ATOM     29  C   UNL     1     -10.252  16.411  66.769  0.00  0.00    +0.227 C 
ATOM     30  O   UNL     1     -10.802  17.213  65.611  0.00  0.00    -0.216 OA
ATOM     31  C   UNL     1      -8.658  16.867  66.327  0.00  0.00    +0.216 C 
ATOM     32  O   UNL     1      -8.776  18.162  67.086  0.00  0.00    -0.218 OA
BRANCH  28  33
ATOM     33  N   UNL     1     -11.570  14.558  66.083  0.00  0.00    -0.085 NA
ATOM     34  C   UNL     1     -12.266  14.055  64.946  0.00  0.00    +0.535 C 
ATOM     35  N   UNL     1     -13.243  13.020  65.015  0.00  0.00    +0.135 NA
ATOM     36  N   UNL     1     -12.284  14.810  63.912  0.00  0.00    +0.135 NA
ENDBRANCH  28  33
BRANCH  25  37
ATOM     37  N   UNL     1      -7.666  13.719  68.113  0.00  0.00    -0.085 NA
ATOM     38  C   UNL     1      -6.598  12.854  68.226  0.00  0.00    +0.535 C 
ATOM     39  N   UNL     1      -6.500  12.167  69.476  0.00  0.00    +0.135 NA
ATOM     40  N   UNL     1      -5.497  13.222  67.712  0.00  0.00    +0.135 NA
ENDBRANCH  25  37
ENDBRANCH  23  24
ENDBRANCH   7  23
TORSDOF 9
ENDMDL
MODEL 9
REMARK VINA RESULT:      -6.4      3.203      4.907
REMARK  Name = 
REMARK  9 active torsions:
REMARK  status: ('A' for Active; 'I' for Inactive)
REMARK    1  A    between atoms: N_2  and  C_3
REMARK    2  A    between atoms: C_8  and  C_9
REMARK    3  A    between atoms: C_12  and  O_13
REMARK    4  A    between atoms: O_13  and  C_14
REMARK    5  A    between atoms: C_15  and  O_16
REMARK    6  A    between atoms: O_16  and  C_17
REMARK    7  A    between atoms: C_22  and  N_23
REMARK    8  A    between atoms: C_29  and  N_30
REMARK    9  A    between atoms: C_37  and  C_39
REMARK                            x       y       z     vdW  Elec       q    Type
REMARK                         _______ _______ _______ _____ _____    ______ ____
ROOT
ATOM      1  C   UNL     1      -9.817  12.345  67.531  0.00  0.00    +0.211 C 
ATOM      2  C   UNL     1     -11.428  12.251  67.707  0.00  0.00    +0.238 C 
ATOM      3  O   UNL     1     -12.063  12.211  66.552  0.00  0.00    -0.212 OA
ATOM      4  C   UNL     1     -11.769  13.683  68.470  0.00  0.00    +0.155 C 
ATOM      5  C   UNL     1     -12.023  14.508  67.021  0.00  0.00    +0.035 C 
ATOM      6  O   UNL     1     -10.305  14.128  68.661  0.00  0.00    -0.328 OA
ATOM      7  C   UNL     1     -10.030  14.058  67.142  0.00  0.00    +0.267 C 
ENDROOT
BRANCH   2   8
ATOM      8  C   UNL     1     -11.779  11.340  68.770  0.00  0.00    +0.242 C 
ATOM      9  O   UNL     1     -12.062  11.581  69.919  0.00  0.00    -0.285 OA
ENDBRANCH   2   8
BRANCH   1  10
ATOM     10  O   UNL     1      -9.820  11.885  66.078  0.00  0.00    -0.324 OA
BRANCH  10  12
ATOM     11  C   UNL     1      -9.543   9.736  64.977  0.00  0.00    +0.162 C 
ATOM     12  C   UNL     1      -9.164  10.537  66.489  0.00  0.00    +0.255 C 
ATOM     13  O   UNL     1      -7.769  11.023  66.036  0.00  0.00    -0.326 OA
ATOM     14  C   UNL     1      -6.882   9.998  66.751  0.00  0.00    +0.183 C 
ATOM     15  C   UNL     1      -7.693   8.623  66.061  0.00  0.00    +0.213 C 
ATOM     16  O   UNL     1      -6.381   8.056  65.591  0.00  0.00    -0.218 OA
ATOM     17  C   UNL     1      -7.914   9.428  64.555  0.00  0.00    +0.205 C 
ATOM     18  O   UNL     1      -8.271   8.129  63.869  0.00  0.00    -0.219 OA
BRANCH  14  19
ATOM     19  C   UNL     1      -7.751   9.971  68.162  0.00  0.00    +0.214 C 
ATOM     20  O   UNL     1      -6.913  10.062  69.191  0.00  0.00    -0.218 OA
ENDBRANCH  14  19
BRANCH  11  22
ATOM     21  C   UNL     1     -10.237  10.820  63.484  0.00  0.00    +0.108 C 
ATOM     22  N   UNL     1      -9.540  10.990  64.073  0.00  0.00    -0.210 NA
ENDBRANCH  11  22
ENDBRANCH  10  12
ENDBRANCH   1  10
BRANCH   7  23
ATOM     23  O   UNL     1      -8.539  14.371  67.201  0.00  0.00    -0.325 OA
BRANCH  23  24
ATOM     24  C   UNL     1      -8.233  15.276  68.348  0.00  0.00    +0.193 C 
ATOM     25  C   UNL     1      -7.732  16.668  67.453  0.00  0.00    +0.244 C 
ATOM     26  C   UNL     1      -7.031  17.395  68.849  0.00  0.00    +0.236 C 
ATOM     27  O   UNL     1      -6.707  18.659  68.083  0.00  0.00    -0.215 OA
ATOM     28  C   UNL     1      -5.491  16.704  68.566  0.00  0.00    +0.247 C 
ATOM     29  C   UNL     1      -6.039  15.453  69.610  0.00  0.00    +0.227 C 
ATOM     30  O   UNL     1      -4.717  14.730  69.487  0.00  0.00    -0.216 OA
ATOM     31  C   UNL     1      -6.634  14.595  68.248  0.00  0.00    +0.216 C 
ATOM     32  O   UNL     1      -7.025  13.423  69.108  0.00  0.00    -0.218 OA
BRANCH  28  33
ATOM     33  N   UNL     1      -4.872  17.518  69.740  0.00  0.00    -0.085 NA
ATOM     34  C   UNL     1      -3.633  18.142  69.418  0.00  0.00    +0.535 C 
ATOM     35  N   UNL     1      -3.214  19.390  69.963  0.00  0.00    +0.135 NA
ATOM     36  N   UNL     1      -2.725  17.383  68.929  0.00  0.00    +0.135 NA
ENDBRANCH  28  33
BRANCH  25  37
ATOM     37  N   UNL     1      -8.951  17.525  67.887  0.00  0.00    -0.085 NA
ATOM     38  C   UNL     1      -9.783  18.111  66.957  0.00  0.00    +0.535 C 
ATOM     39  N   UNL     1     -10.887  18.839  67.502  0.00  0.00    +0.135 NA
ATOM     40  N   UNL     1     -10.026  17.454  65.898  0.00  0.00    +0.135 NA
ENDBRANCH  25  37
ENDBRANCH  23  24
ENDBRANCH   7  23
TORSDOF 9
ENDMDL
