MODEL 1
REMARK VINA RESULT:      -6.0      0.000      0.000
REMARK  Name = 
REMARK  7 active torsions:
REMARK  status: ('A' for Active; 'I' for Inactive)
REMARK    1  A    between atoms: C_2  and  C_3
REMARK    2  A    between atoms: C_3  and  N_4
REMARK    3  A    between atoms: N_4  and  C_5
REMARK    4  A    between atoms: N_4  and  C_8
REMARK    5  A    between atoms: C_5  and  C_6
REMARK    6  A    between atoms: C_8  and  C_9
REMARK    7  A    between atoms: C_9  and  C_10
REMARK                            x       y       z     vdW  Elec       q    Type
REMARK                         _______ _______ _______ _____ _____    ______ ____
ROOT
ATOM      1  C   UNL     1     -11.979  13.299  69.703  0.00  0.00    -0.023 A 
ATOM      2  C   UNL     1     -12.438  13.692  70.954  0.00  0.00    -0.002 A 
ATOM      3  C   UNL     1     -12.629  15.032  71.591  0.00  0.00    +0.114 C 
ATOM      4  C   UNL     1     -14.039  14.907  72.077  0.00  0.00    +0.250 C 
ATOM      5  N   UNL     1     -14.197  13.523  72.407  0.00  0.00    -0.179 NA
ATOM      6  O   UNL     1     -14.931  15.739  71.728  0.00  0.00    -0.273 OA
ATOM      7  C   UNL     1     -13.120  12.811  71.785  0.00  0.00    +0.070 A 
ATOM      8  C   UNL     1     -12.850  11.468  71.562  0.00  0.00    +0.016 A 
ATOM      9  C   UNL     1     -12.109  11.037  70.472  0.00  0.00    +0.001 A 
ATOM     10  C   UNL     1     -11.878  11.942  69.444  0.00  0.00    -0.004 A 
ENDROOT
BRANCH   1  11
ATOM     11  C   UNL     1     -11.199  14.256  68.860  0.00  0.00    +0.043 C 
BRANCH  11  12
ATOM     12  C   UNL     1     -11.885  14.318  67.522  0.00  0.00    +0.077 C 
BRANCH  12  13
ATOM     13  N   UNL     1     -11.007  14.089  66.410  0.00  0.00    -0.272 NA
BRANCH  13  14
ATOM     14  C   UNL     1     -11.122  12.785  65.826  0.00  0.00    +0.072 C 
BRANCH  14  16
ATOM     15  C   UNL     1     -12.257  12.204  63.664  0.00  0.00    +0.001 C 
ATOM     16  C   UNL     1     -12.443  12.728  65.070  0.00  0.00    +0.017 C 
ENDBRANCH  14  16
ENDBRANCH  13  14
BRANCH  13  17
ATOM     17  C   UNL     1     -10.950  15.164  65.464  0.00  0.00    +0.072 C 
BRANCH  17  18
ATOM     18  C   UNL     1     -10.148  16.342  66.005  0.00  0.00    +0.017 C 
ATOM     19  C   UNL     1      -8.732  15.820  66.219  0.00  0.00    +0.001 C 
ENDBRANCH  17  18
ENDBRANCH  13  17
ENDBRANCH  12  13
ENDBRANCH  11  12
ENDBRANCH   1  11
TORSDOF 7
ENDMDL
MODEL 2
REMARK VINA RESULT:      -6.0      0.723      2.441
REMARK  Name = 
REMARK  7 active torsions:
REMARK  status: ('A' for Active; 'I' for Inactive)
REMARK    1  A    between atoms: C_2  and  C_3
REMARK    2  A    between atoms: C_3  and  N_4
REMARK    3  A    between atoms: N_4  and  C_5
REMARK    4  A    between atoms: N_4  and  C_8
REMARK    5  A    between atoms: C_5  and  C_6
REMARK    6  A    between atoms: C_8  and  C_9
REMARK    7  A    between atoms: C_9  and  C_10
REMARK                            x       y       z     vdW  Elec       q    Type
REMARK                         _______ _______ _______ _____ _____    ______ ____
ROOT
ATOM      1  C   UNL     1     -12.039  12.756  69.754  0.00  0.00    -0.023 A 
ATOM      2  C   UNL     1     -12.442  13.276  70.978  0.00  0.00    -0.002 A 
ATOM      3  C   UNL     1     -12.493  14.667  71.524  0.00  0.00    +0.114 C 
ATOM      4  C   UNL     1     -13.902  14.714  72.026  0.00  0.00    +0.250 C 
ATOM      5  N   UNL     1     -14.190  13.377  72.450  0.00  0.00    -0.179 NA
ATOM      6  O   UNL     1     -14.713  15.603  71.627  0.00  0.00    -0.273 OA
ATOM      7  C   UNL     1     -13.196  12.522  71.871  0.00  0.00    +0.070 A 
ATOM      8  C   UNL     1     -13.061  11.148  71.738  0.00  0.00    +0.016 A 
ATOM      9  C   UNL     1     -12.378  10.575  70.674  0.00  0.00    +0.001 A 
ATOM     10  C   UNL     1     -12.074  11.383  69.586  0.00  0.00    -0.004 A 
ENDROOT
BRANCH   1  11
ATOM     11  C   UNL     1     -11.181  13.574  68.843  0.00  0.00    +0.043 C 
BRANCH  11  12
ATOM     12  C   UNL     1     -11.605  13.251  67.436  0.00  0.00    +0.077 C 
BRANCH  12  13
ATOM     13  N   UNL     1     -11.916  14.407  66.644  0.00  0.00    -0.272 NA
BRANCH  13  14
ATOM     14  C   UNL     1     -10.966  15.475  66.760  0.00  0.00    +0.072 C 
BRANCH  14  16
ATOM     15  C   UNL     1      -8.574  15.991  66.198  0.00  0.00    +0.001 C 
ATOM     16  C   UNL     1      -9.779  15.139  65.866  0.00  0.00    +0.017 C 
ENDBRANCH  14  16
ENDBRANCH  13  14
BRANCH  13  17
ATOM     17  C   UNL     1     -12.330  14.118  65.303  0.00  0.00    +0.072 C 
BRANCH  17  18
ATOM     18  C   UNL     1     -12.376  12.617  65.044  0.00  0.00    +0.017 C 
ATOM     19  C   UNL     1     -12.119  12.443  63.552  0.00  0.00    +0.001 C 
ENDBRANCH  17  18
ENDBRANCH  13  17
ENDBRANCH  12  13
ENDBRANCH  11  12
ENDBRANCH   1  11
TORSDOF 7
ENDMDL
MODEL 3
REMARK VINA RESULT:      -5.9      1.113      2.345
REMARK  Name = 
REMARK  7 active torsions:
REMARK  status: ('A' for Active; 'I' for Inactive)
REMARK    1  A    between atoms: C_2  and  C_3
REMARK    2  A    between atoms: C_3  and  N_4
REMARK    3  A    between atoms: N_4  and  C_5
REMARK    4  A    between atoms: N_4  and  C_8
REMARK    5  A    between atoms: C_5  and  C_6
REMARK    6  A    between atoms: C_8  and  C_9
REMARK    7  A    between atoms: C_9  and  C_10
REMARK                            x       y       z     vdW  Elec       q    Type
REMARK                         _______ _______ _______ _____ _____    ______ ____
ROOT
ATOM      1  C   UNL     1     -11.983  13.127  69.801  0.00  0.00    -0.023 A 
ATOM      2  C   UNL     1     -12.479  13.578  71.018  0.00  0.00    -0.002 A 
ATOM      3  C   UNL     1     -12.670  14.946  71.592  0.00  0.00    +0.114 C 
ATOM      4  C   UNL     1     -14.098  14.861  72.032  0.00  0.00    +0.250 C 
ATOM      5  N   UNL     1     -14.290  13.495  72.412  0.00  0.00    -0.179 NA
ATOM      6  O   UNL     1     -14.964  15.691  71.618  0.00  0.00    -0.273 OA
ATOM      7  C   UNL     1     -13.204  12.742  71.859  0.00  0.00    +0.070 A 
ATOM      8  C   UNL     1     -12.948  11.387  71.700  0.00  0.00    +0.016 A 
ATOM      9  C   UNL     1     -12.176  10.901  70.655  0.00  0.00    +0.001 A 
ATOM     10  C   UNL     1     -11.894  11.760  69.600  0.00  0.00    -0.004 A 
ENDROOT
BRANCH   1  11
ATOM     11  C   UNL     1     -11.159  14.037  68.948  0.00  0.00    +0.043 C 
BRANCH  11  12
ATOM     12  C   UNL     1     -11.854  14.138  67.617  0.00  0.00    +0.077 C 
BRANCH  12  13
ATOM     13  N   UNL     1     -11.117  13.553  66.533  0.00  0.00    -0.272 NA
BRANCH  13  14
ATOM     14  C   UNL     1      -9.703  13.472  66.756  0.00  0.00    +0.072 C 
BRANCH  14  16
ATOM     15  C   UNL     1      -8.591  11.475  67.794  0.00  0.00    +0.001 C 
ATOM     16  C   UNL     1      -9.286  12.019  66.566  0.00  0.00    +0.017 C 
ENDBRANCH  14  16
ENDBRANCH  13  14
BRANCH  13  17
ATOM     17  C   UNL     1     -11.705  12.366  65.984  0.00  0.00    +0.072 C 
BRANCH  17  18
ATOM     18  C   UNL     1     -12.568  12.682  64.768  0.00  0.00    +0.017 C 
ATOM     19  C   UNL     1     -11.682  12.435  63.553  0.00  0.00    +0.001 C 
ENDBRANCH  17  18
ENDBRANCH  13  17
ENDBRANCH  12  13
ENDBRANCH  11  12
ENDBRANCH   1  11
TORSDOF 7
ENDMDL
MODEL 4
REMARK VINA RESULT:      -5.9      1.081      2.777
REMARK  Name = 
REMARK  7 active torsions:
REMARK  status: ('A' for Active; 'I' for Inactive)
REMARK    1  A    between atoms: C_2  and  C_3
REMARK    2  A    between atoms: C_3  and  N_4
REMARK    3  A    between atoms: N_4  and  C_5
REMARK    4  A    between atoms: N_4  and  C_8
REMARK    5  A    between atoms: C_5  and  C_6
REMARK    6  A    between atoms: C_8  and  C_9
REMARK    7  A    between atoms: C_9  and  C_10
REMARK                            x       y       z     vdW  Elec       q    Type
REMARK                         _______ _______ _______ _____ _____    ______ ____
ROOT
ATOM      1  C   UNL     1     -11.799  13.581  69.918  0.00  0.00    -0.023 A 
ATOM      2  C   UNL     1     -12.343  13.828  71.172  0.00  0.00    -0.002 A 
ATOM      3  C   UNL     1     -12.515  15.077  71.977  0.00  0.00    +0.114 C 
ATOM      4  C   UNL     1     -13.966  14.980  72.327  0.00  0.00    +0.250 C 
ATOM      5  N   UNL     1     -14.229  13.577  72.443  0.00  0.00    -0.179 NA
ATOM      6  O   UNL     1     -14.778  15.909  72.032  0.00  0.00    -0.273 OA
ATOM      7  C   UNL     1     -13.142  12.887  71.812  0.00  0.00    +0.070 A 
ATOM      8  C   UNL     1     -12.928  11.573  71.422  0.00  0.00    +0.016 A 
ATOM      9  C   UNL     1     -12.118  11.249  70.343  0.00  0.00    +0.001 A 
ATOM     10  C   UNL     1     -11.749  12.269  69.476  0.00  0.00    -0.004 A 
ENDROOT
BRANCH   1  11
ATOM     11  C   UNL     1     -10.897  14.591  69.284  0.00  0.00    +0.043 C 
BRANCH  11  12
ATOM     12  C   UNL     1     -11.729  15.358  68.293  0.00  0.00    +0.077 C 
BRANCH  12  13
ATOM     13  N   UNL     1     -11.024  15.707  67.092  0.00  0.00    -0.272 NA
BRANCH  13  14
ATOM     14  C   UNL     1      -9.818  16.450  67.311  0.00  0.00    +0.072 C 
BRANCH  14  16
ATOM     15  C   UNL     1     -10.418  18.687  66.341  0.00  0.00    +0.001 C 
ATOM     16  C   UNL     1     -10.208  17.892  67.611  0.00  0.00    +0.017 C 
ENDBRANCH  14  16
ENDBRANCH  13  14
BRANCH  13  17
ATOM     17  C   UNL     1     -10.906  14.644  66.139  0.00  0.00    +0.072 C 
BRANCH  17  18
ATOM     18  C   UNL     1     -12.237  13.932  65.929  0.00  0.00    +0.017 C 
ATOM     19  C   UNL     1     -11.898  12.458  65.744  0.00  0.00    +0.001 C 
ENDBRANCH  17  18
ENDBRANCH  13  17
ENDBRANCH  12  13
ENDBRANCH  11  12
ENDBRANCH   1  11
TORSDOF 7
ENDMDL
MODEL 5
REMARK VINA RESULT:      -5.6      3.262      6.576
REMARK  Name = 
REMARK  7 active torsions:
REMARK  status: ('A' for Active; 'I' for Inactive)
REMARK    1  A    between atoms: C_2  and  C_3
REMARK    2  A    between atoms: C_3  and  N_4
REMARK    3  A    between atoms: N_4  and  C_5
REMARK    4  A    between atoms: N_4  and  C_8
REMARK    5  A    between atoms: C_5  and  C_6
REMARK    6  A    between atoms: C_8  and  C_9
REMARK    7  A    between atoms: C_9  and  C_10
REMARK                            x       y       z     vdW  Elec       q    Type
REMARK                         _______ _______ _______ _____ _____    ______ ____
ROOT
ATOM      1  C   UNL     1     -11.714  11.667  68.446  0.00  0.00    -0.023 A 
ATOM      2  C   UNL     1     -11.563  12.425  67.291  0.00  0.00    -0.002 A 
ATOM      3  C   UNL     1     -11.340  12.058  65.858  0.00  0.00    +0.114 C 
ATOM      4  C   UNL     1     -12.418  12.861  65.200  0.00  0.00    +0.250 C 
ATOM      5  N   UNL     1     -12.550  14.038  66.004  0.00  0.00    -0.179 NA
ATOM      6  O   UNL     1     -13.292  12.310  64.464  0.00  0.00    -0.273 OA
ATOM      7  C   UNL     1     -11.909  13.771  67.258  0.00  0.00    +0.070 A 
ATOM      8  C   UNL     1     -11.885  14.413  68.488  0.00  0.00    +0.016 A 
ATOM      9  C   UNL     1     -11.717  13.718  69.677  0.00  0.00    +0.001 A 
ATOM     10  C   UNL     1     -11.859  12.337  69.650  0.00  0.00    -0.004 A 
ENDROOT
BRANCH   1  11
ATOM     11  C   UNL     1     -11.278  10.237  68.463  0.00  0.00    +0.043 C 
BRANCH  11  12
ATOM     12  C   UNL     1     -10.706   9.971  69.829  0.00  0.00    +0.077 C 
BRANCH  12  13
ATOM     13  N   UNL     1     -11.281   8.831  70.485  0.00  0.00    -0.272 NA
BRANCH  13  14
ATOM     14  C   UNL     1     -10.420   7.686  70.544  0.00  0.00    +0.072 C 
BRANCH  14  16
ATOM     15  C   UNL     1     -11.117   6.275  68.589  0.00  0.00    +0.001 C 
ATOM     16  C   UNL     1     -11.224   6.477  70.084  0.00  0.00    +0.017 C 
ENDBRANCH  14  16
ENDBRANCH  13  14
BRANCH  13  17
ATOM     17  C   UNL     1     -11.963   9.130  71.710  0.00  0.00    +0.072 C 
BRANCH  17  18
ATOM     18  C   UNL     1     -13.419   9.503  71.461  0.00  0.00    +0.017 C 
ATOM     19  C   UNL     1     -14.223   8.229  71.694  0.00  0.00    +0.001 C 
ENDBRANCH  17  18
ENDBRANCH  13  17
ENDBRANCH  12  13
ENDBRANCH  11  12
ENDBRANCH   1  11
TORSDOF 7
ENDMDL
MODEL 6
REMARK VINA RESULT:      -5.6      1.631      2.346
REMARK  Name = 
REMARK  7 active torsions:
REMARK  status: ('A' for Active; 'I' for Inactive)
REMARK    1  A    between atoms: C_2  and  C_3
REMARK    2  A    between atoms: C_3  and  N_4
REMARK    3  A    between atoms: N_4  and  C_5
REMARK    4  A    between atoms: N_4  and  C_8
REMARK    5  A    between atoms: C_5  and  C_6
REMARK    6  A    between atoms: C_8  and  C_9
REMARK    7  A    between atoms: C_9  and  C_10
REMARK                            x       y       z     vdW  Elec       q    Type
REMARK                         _______ _______ _______ _____ _____    ______ ____
ROOT
ATOM      1  C   UNL     1     -11.842  14.870  69.375  0.00  0.00    -0.023 A 
ATOM      2  C   UNL     1     -12.086  14.708  70.733  0.00  0.00    -0.002 A 
ATOM      3  C   UNL     1     -12.215  15.678  71.865  0.00  0.00    +0.114 C 
ATOM      4  C   UNL     1     -13.508  15.225  72.466  0.00  0.00    +0.250 C 
ATOM      5  N   UNL     1     -13.546  13.811  72.248  0.00  0.00    -0.179 NA
ATOM      6  O   UNL     1     -14.483  16.025  72.609  0.00  0.00    -0.273 OA
ATOM      7  C   UNL     1     -12.569  13.509  71.244  0.00  0.00    +0.070 A 
ATOM      8  C   UNL     1     -12.287  12.388  70.475  0.00  0.00    +0.016 A 
ATOM      9  C   UNL     1     -11.736  12.486  69.206  0.00  0.00    +0.001 A 
ATOM     10  C   UNL     1     -11.732  13.733  68.592  0.00  0.00    -0.004 A 
ENDROOT
BRANCH   1  11
ATOM     11  C   UNL     1     -11.267  16.154  68.868  0.00  0.00    +0.043 C 
BRANCH  11  12
ATOM     12  C   UNL     1      -9.861  15.858  68.423  0.00  0.00    +0.077 C 
BRANCH  12  13
ATOM     13  N   UNL     1      -9.483  16.528  67.212  0.00  0.00    -0.272 NA
BRANCH  13  14
ATOM     14  C   UNL     1      -9.091  15.651  66.148  0.00  0.00    +0.072 C 
BRANCH  14  16
ATOM     15  C   UNL     1     -10.460  13.868  65.028  0.00  0.00    +0.001 C 
ATOM     16  C   UNL     1     -10.331  15.348  65.315  0.00  0.00    +0.017 C 
ENDBRANCH  14  16
ENDBRANCH  13  14
BRANCH  13  17
ATOM     17  C   UNL     1     -10.363  17.589  66.818  0.00  0.00    +0.072 C 
BRANCH  17  18
ATOM     18  C   UNL     1      -9.781  18.954  67.162  0.00  0.00    +0.017 C 
ATOM     19  C   UNL     1     -10.241  19.896  66.056  0.00  0.00    +0.001 C 
ENDBRANCH  17  18
ENDBRANCH  13  17
ENDBRANCH  12  13
ENDBRANCH  11  12
ENDBRANCH   1  11
TORSDOF 7
ENDMDL
MODEL 7
REMARK VINA RESULT:      -5.5      2.306      4.036
REMARK  Name = 
REMARK  7 active torsions:
REMARK  status: ('A' for Active; 'I' for Inactive)
REMARK    1  A    between atoms: C_2  and  C_3
REMARK    2  A    between atoms: C_3  and  N_4
REMARK    3  A    between atoms: N_4  and  C_5
REMARK    4  A    between atoms: N_4  and  C_8
REMARK    5  A    between atoms: C_5  and  C_6
REMARK    6  A    between atoms: C_8  and  C_9
REMARK    7  A    between atoms: C_9  and  C_10
REMARK                            x       y       z     vdW  Elec       q    Type
REMARK                         _______ _______ _______ _____ _____    ______ ____
ROOT
ATOM      1  C   UNL     1     -11.497  14.926  71.032  0.00  0.00    -0.023 A 
ATOM      2  C   UNL     1     -12.220  13.785  70.703  0.00  0.00    -0.002 A 
ATOM      3  C   UNL     1     -12.040  12.736  69.652  0.00  0.00    +0.114 C 
ATOM      4  C   UNL     1     -12.130  11.496  70.484  0.00  0.00    +0.250 C 
ATOM      5  N   UNL     1     -13.042  11.821  71.539  0.00  0.00    -0.179 NA
ATOM      6  O   UNL     1     -11.196  10.638  70.491  0.00  0.00    -0.273 OA
ATOM      7  C   UNL     1     -13.161  13.249  71.574  0.00  0.00    +0.070 A 
ATOM      8  C   UNL     1     -13.707  14.152  72.475  0.00  0.00    +0.016 A 
ATOM      9  C   UNL     1     -13.211  15.440  72.619  0.00  0.00    +0.001 A 
ATOM     10  C   UNL     1     -11.974  15.727  72.055  0.00  0.00    -0.004 A 
ENDROOT
BRANCH   1  11
ATOM     11  C   UNL     1     -10.534  15.508  70.047  0.00  0.00    +0.043 C 
BRANCH  11  12
ATOM     12  C   UNL     1     -11.342  16.332  69.081  0.00  0.00    +0.077 C 
BRANCH  12  13
ATOM     13  N   UNL     1     -10.609  16.744  67.918  0.00  0.00    -0.272 NA
BRANCH  13  14
ATOM     14  C   UNL     1      -9.802  17.913  68.111  0.00  0.00    +0.072 C 
BRANCH  14  16
ATOM     15  C   UNL     1     -10.392  19.254  66.072  0.00  0.00    +0.001 C 
ATOM     16  C   UNL     1     -10.577  19.107  67.566  0.00  0.00    +0.017 C 
ENDBRANCH  14  16
ENDBRANCH  13  14
BRANCH  13  17
ATOM     17  C   UNL     1      -9.957  15.678  67.215  0.00  0.00    +0.072 C 
BRANCH  17  18
ATOM     18  C   UNL     1     -10.932  14.922  66.319  0.00  0.00    +0.017 C 
ATOM     19  C   UNL     1     -10.888  15.625  64.968  0.00  0.00    +0.001 C 
ENDBRANCH  17  18
ENDBRANCH  13  17
ENDBRANCH  12  13
ENDBRANCH  11  12
ENDBRANCH   1  11
TORSDOF 7
ENDMDL
MODEL 8
REMARK VINA RESULT:      -5.5      2.799      6.716
REMARK  Name = 
REMARK  7 active torsions:
REMARK  status: ('A' for Active; 'I' for Inactive)
REMARK    1  A    between atoms: C_2  and  C_3
REMARK    2  A    between atoms: C_3  and  N_4
REMARK    3  A    between atoms: N_4  and  C_5
REMARK    4  A    between atoms: N_4  and  C_8
REMARK    5  A    between atoms: C_5  and  C_6
REMARK    6  A    between atoms: C_8  and  C_9
REMARK    7  A    between atoms: C_9  and  C_10
REMARK                            x       y       z     vdW  Elec       q    Type
REMARK                         _______ _______ _______ _____ _____    ______ ____
ROOT
ATOM      1  C   UNL     1     -10.126  17.024  68.007  0.00  0.00    -0.023 A 
ATOM      2  C   UNL     1     -10.033  16.749  66.648  0.00  0.00    -0.002 A 
ATOM      3  C   UNL     1      -9.867  15.478  65.878  0.00  0.00    +0.114 C 
ATOM      4  C   UNL     1     -10.981  15.610  64.888  0.00  0.00    +0.250 C 
ATOM      5  N   UNL     1     -11.094  17.015  64.639  0.00  0.00    -0.179 NA
ATOM      6  O   UNL     1     -11.879  14.719  64.785  0.00  0.00    -0.273 OA
ATOM      7  C   UNL     1     -10.397  17.692  65.693  0.00  0.00    +0.070 A 
ATOM      8  C   UNL     1     -10.329  19.011  66.116  0.00  0.00    +0.016 A 
ATOM      9  C   UNL     1     -10.102  19.348  67.442  0.00  0.00    +0.001 A 
ATOM     10  C   UNL     1     -10.228  18.348  68.398  0.00  0.00    -0.004 A 
ENDROOT
BRANCH   1  11
ATOM     11  C   UNL     1      -9.671  16.009  69.006  0.00  0.00    +0.043 C 
BRANCH  11  12
ATOM     12  C   UNL     1     -10.797  15.828  69.988  0.00  0.00    +0.077 C 
BRANCH  12  13
ATOM     13  N   UNL     1     -11.386  14.520  69.959  0.00  0.00    -0.272 NA
BRANCH  13  14
ATOM     14  C   UNL     1     -12.200  14.213  71.100  0.00  0.00    +0.072 C 
BRANCH  14  16
ATOM     15  C   UNL     1     -12.735  15.026  73.414  0.00  0.00    +0.001 C 
ATOM     16  C   UNL     1     -11.850  15.207  72.201  0.00  0.00    +0.017 C 
ENDBRANCH  14  16
ENDBRANCH  13  14
BRANCH  13  17
ATOM     17  C   UNL     1     -11.961  14.151  68.699  0.00  0.00    +0.072 C 
BRANCH  17  18
ATOM     18  C   UNL     1     -11.757  12.670  68.405  0.00  0.00    +0.017 C 
ATOM     19  C   UNL     1     -10.249  12.461  68.341  0.00  0.00    +0.001 C 
ENDBRANCH  17  18
ENDBRANCH  13  17
ENDBRANCH  12  13
ENDBRANCH  11  12
ENDBRANCH   1  11
TORSDOF 7
ENDMDL
MODEL 9
REMARK VINA RESULT:      -5.5      3.320      5.612
REMARK  Name = 
REMARK  7 active torsions:
REMARK  status: ('A' for Active; 'I' for Inactive)
REMARK    1  A    between atoms: C_2  and  C_3
REMARK    2  A    between atoms: C_3  and  N_4
REMARK    3  A    between atoms: N_4  and  C_5
REMARK    4  A    between atoms: N_4  and  C_8
REMARK    5  A    between atoms: C_5  and  C_6
REMARK    6  A    between atoms: C_8  and  C_9
REMARK    7  A    between atoms: C_9  and  C_10
REMARK                            x       y       z     vdW  Elec       q    Type
REMARK                         _______ _______ _______ _____ _____    ______ ____
ROOT
ATOM      1  C   UNL     1      -9.549  14.228  66.432  0.00  0.00    -0.023 A 
ATOM      2  C   UNL     1     -10.861  13.807  66.257  0.00  0.00    -0.002 A 
ATOM      3  C   UNL     1     -12.015  14.372  65.491  0.00  0.00    +0.114 C 
ATOM      4  C   UNL     1     -12.444  13.167  64.713  0.00  0.00    +0.250 C 
ATOM      5  N   UNL     1     -12.156  12.053  65.565  0.00  0.00    -0.179 NA
ATOM      6  O   UNL     1     -12.512  13.191  63.447  0.00  0.00    -0.273 OA
ATOM      7  C   UNL     1     -11.256  12.514  66.580  0.00  0.00    +0.070 A 
ATOM      8  C   UNL     1     -10.472  11.884  67.537  0.00  0.00    +0.016 A 
ATOM      9  C   UNL     1      -9.280  12.431  67.988  0.00  0.00    +0.001 A 
ATOM     10  C   UNL     1      -8.731  13.482  67.264  0.00  0.00    -0.004 A 
ENDROOT
BRANCH   1  11
ATOM     11  C   UNL     1      -9.172  15.642  66.127  0.00  0.00    +0.043 C 
BRANCH  11  12
ATOM     12  C   UNL     1      -8.688  16.253  67.415  0.00  0.00    +0.077 C 
BRANCH  12  13
ATOM     13  N   UNL     1      -9.680  17.041  68.090  0.00  0.00    -0.272 NA
BRANCH  13  14
ATOM     14  C   UNL     1     -10.647  17.644  67.221  0.00  0.00    +0.072 C 
BRANCH  14  16
ATOM     15  C   UNL     1      -9.804  19.800  66.250  0.00  0.00    +0.001 C 
ATOM     16  C   UNL     1     -10.551  19.155  67.396  0.00  0.00    +0.017 C 
ENDBRANCH  14  16
ENDBRANCH  13  14
BRANCH  13  17
ATOM     17  C   UNL     1     -10.230  16.430  69.264  0.00  0.00    +0.072 C 
BRANCH  17  18
ATOM     18  C   UNL     1     -11.653  15.943  69.025  0.00  0.00    +0.017 C 
ATOM     19  C   UNL     1     -11.773  14.622  69.776  0.00  0.00    +0.001 C 
ENDBRANCH  17  18
ENDBRANCH  13  17
ENDBRANCH  12  13
ENDBRANCH  11  12
ENDBRANCH   1  11
TORSDOF 7
ENDMDL
