MODEL 1
REMARK VINA RESULT:      -6.4      0.000      0.000
REMARK  Name = 
REMARK  2 active torsions:
REMARK  status: ('A' for Active; 'I' for Inactive)
REMARK    1  A    between atoms: C_2  and  C_3
REMARK    2  A    between atoms: C_22  and  C_23
REMARK                            x       y       z     vdW  Elec       q    Type
REMARK                         _______ _______ _______ _____ _____    ______ ____
ROOT
ATOM      1  C   UNL     1     -11.278  12.229  65.875  0.00  0.00    +0.180 C 
ATOM      2  C   UNL     1     -10.666  13.306  66.702  0.00  0.00    +0.040 C 
ATOM      3  C   UNL     1     -10.699  14.382  65.492  0.00  0.00    +0.004 C 
ATOM      4  C   UNL     1     -10.492  15.678  66.539  0.00  0.00    +0.004 C 
ATOM      5  C   UNL     1      -8.862  15.722  66.159  0.00  0.00    +0.022 C 
ATOM      6  C   UNL     1      -8.529  14.517  67.134  0.00  0.00    -0.044 C 
ATOM      7  C   UNL     1      -7.296  14.478  67.641  0.00  0.00    -0.009 C 
ATOM      8  C   UNL     1      -8.415  16.858  67.329  0.00  0.00    +0.023 C 
ATOM      9  C   UNL     1      -9.662  17.844  67.194  0.00  0.00    -0.041 C 
ATOM     10  C   UNL     1      -9.325  18.902  67.945  0.00  0.00    +0.029 C 
ATOM     11  C   UNL     1      -7.898  19.200  68.162  0.00  0.00    +0.173 C 
ATOM     12  C   UNL     1      -7.075  18.951  66.934  0.00  0.00    +0.069 C 
ATOM     13  O   UNL     1      -7.390  19.396  69.280  0.00  0.00    -0.291 OA
ATOM     14  C   UNL     1     -10.263  17.991  65.840  0.00  0.00    +0.022 C 
ATOM     15  C   UNL     1      -7.556  17.707  66.238  0.00  0.00    +0.012 C 
ATOM     16  C   UNL     1     -10.874  16.722  65.381  0.00  0.00    +0.005 C 
ATOM     17  C   UNL     1     -12.312  14.421  65.589  0.00  0.00    +0.004 C 
ATOM     18  C   UNL     1      -9.216  13.227  66.959  0.00  0.00    +0.025 C 
ATOM     19  C   UNL     1     -12.502  12.934  65.296  0.00  0.00    +0.043 C 
ATOM     20  O   UNL     1     -11.703  11.123  66.572  0.00  0.00    -0.212 OA
ENDROOT
BRANCH   1  22
ATOM     21  C   UNL     1      -9.753  11.356  63.906  0.00  0.00    -0.012 C 
ATOM     22  C   UNL     1     -10.346  11.835  64.820  0.00  0.00    -0.049 C 
ENDBRANCH   1  22
BRANCH   2  23
ATOM     23  C   UNL     1     -11.515  13.807  67.811  0.00  0.00    +0.004 C 
ATOM     24  C   UNL     1     -11.264  13.180  69.147  0.00  0.00    +0.000 C 
ENDBRANCH   2  23
TORSDOF 2
ENDMDL
MODEL 2
REMARK VINA RESULT:      -6.4      2.348      4.350
REMARK  Name = 
REMARK  2 active torsions:
REMARK  status: ('A' for Active; 'I' for Inactive)
REMARK    1  A    between atoms: C_2  and  C_3
REMARK    2  A    between atoms: C_22  and  C_23
REMARK                            x       y       z     vdW  Elec       q    Type
REMARK                         _______ _______ _______ _____ _____    ______ ____
ROOT
ATOM      1  C   UNL     1     -10.867  14.948  68.203  0.00  0.00    +0.180 C 
ATOM      2  C   UNL     1     -10.296  15.924  67.234  0.00  0.00    +0.040 C 
ATOM      3  C   UNL     1      -8.891  16.033  68.032  0.00  0.00    +0.004 C 
ATOM      4  C   UNL     1      -8.107  16.709  66.709  0.00  0.00    +0.004 C 
ATOM      5  C   UNL     1      -8.286  18.231  67.383  0.00  0.00    +0.022 C 
ATOM      6  C   UNL     1      -9.793  18.344  66.903  0.00  0.00    -0.044 C 
ATOM      7  C   UNL     1     -10.266  19.573  66.695  0.00  0.00    -0.009 C 
ATOM      8  C   UNL     1      -7.742  19.107  66.043  0.00  0.00    +0.023 C 
ATOM      9  C   UNL     1      -6.526  18.165  65.618  0.00  0.00    -0.041 C 
ATOM     10  C   UNL     1      -5.887  18.863  64.669  0.00  0.00    +0.029 C 
ATOM     11  C   UNL     1      -5.993  20.334  64.669  0.00  0.00    +0.173 C 
ATOM     12  C   UNL     1      -5.978  20.903  66.056  0.00  0.00    +0.069 C 
ATOM     13  O   UNL     1      -6.305  21.009  63.672  0.00  0.00    -0.291 OA
ATOM     14  C   UNL     1      -5.800  17.465  66.713  0.00  0.00    +0.022 C 
ATOM     15  C   UNL     1      -6.776  20.022  66.980  0.00  0.00    +0.012 C 
ATOM     16  C   UNL     1      -6.674  16.482  67.397  0.00  0.00    +0.005 C 
ATOM     17  C   UNL     1      -8.543  14.515  67.600  0.00  0.00    +0.004 C 
ATOM     18  C   UNL     1     -10.766  17.319  67.314  0.00  0.00    +0.025 C 
ATOM     19  C   UNL     1      -9.763  13.897  68.281  0.00  0.00    +0.043 C 
ATOM     20  O   UNL     1     -12.027  14.330  67.799  0.00  0.00    -0.212 OA
ENDROOT
BRANCH   1  22
ATOM     21  C   UNL     1     -11.386  15.963  70.583  0.00  0.00    -0.012 C 
ATOM     22  C   UNL     1     -11.067  15.603  69.494  0.00  0.00    -0.049 C 
ENDBRANCH   1  22
BRANCH   2  23
ATOM     23  C   UNL     1     -10.034  15.384  65.877  0.00  0.00    +0.004 C 
ATOM     24  C   UNL     1     -11.082  15.687  64.851  0.00  0.00    +0.000 C 
ENDBRANCH   2  23
TORSDOF 2
ENDMDL
MODEL 3
REMARK VINA RESULT:      -6.2      2.074      6.966
REMARK  Name = 
REMARK  2 active torsions:
REMARK  status: ('A' for Active; 'I' for Inactive)
REMARK    1  A    between atoms: C_2  and  C_3
REMARK    2  A    between atoms: C_22  and  C_23
REMARK                            x       y       z     vdW  Elec       q    Type
REMARK                         _______ _______ _______ _____ _____    ______ ____
ROOT
ATOM      1  C   UNL     1      -5.336  20.001  68.773  0.00  0.00    +0.180 C 
ATOM      2  C   UNL     1      -6.006  18.816  68.168  0.00  0.00    +0.040 C 
ATOM      3  C   UNL     1      -7.483  19.463  68.310  0.00  0.00    +0.004 C 
ATOM      4  C   UNL     1      -8.143  18.384  67.206  0.00  0.00    +0.004 C 
ATOM      5  C   UNL     1      -8.734  17.457  68.468  0.00  0.00    +0.022 C 
ATOM      6  C   UNL     1      -7.326  16.774  68.720  0.00  0.00    -0.044 C 
ATOM      7  C   UNL     1      -7.338  15.553  69.256  0.00  0.00    -0.009 C 
ATOM      8  C   UNL     1      -9.255  16.151  67.529  0.00  0.00    +0.023 C 
ATOM      9  C   UNL     1      -9.872  16.967  66.305  0.00  0.00    -0.041 C 
ATOM     10  C   UNL     1     -10.498  16.035  65.572  0.00  0.00    +0.029 C 
ATOM     11  C   UNL     1     -10.979  14.808  66.234  0.00  0.00    +0.173 C 
ATOM     12  C   UNL     1     -11.534  15.083  67.600  0.00  0.00    +0.069 C 
ATOM     13  O   UNL     1     -10.737  13.658  65.828  0.00  0.00    -0.291 OA
ATOM     14  C   UNL     1     -10.496  18.282  66.616  0.00  0.00    +0.022 C 
ATOM     15  C   UNL     1     -10.689  16.115  68.298  0.00  0.00    +0.012 C 
ATOM     16  C   UNL     1      -9.489  19.254  67.105  0.00  0.00    +0.005 C 
ATOM     17  C   UNL     1      -7.099  20.553  67.180  0.00  0.00    +0.004 C 
ATOM     18  C   UNL     1      -6.152  17.613  69.008  0.00  0.00    +0.025 C 
ATOM     19  C   UNL     1      -5.927  21.148  67.957  0.00  0.00    +0.043 C 
ATOM     20  O   UNL     1      -3.968  20.034  68.641  0.00  0.00    -0.212 OA
ENDROOT
BRANCH   1  22
ATOM     21  C   UNL     1      -5.784  20.210  71.366  0.00  0.00    -0.012 C 
ATOM     22  C   UNL     1      -5.711  20.106  70.182  0.00  0.00    -0.049 C 
ENDBRANCH   1  22
BRANCH   2  23
ATOM     23  C   UNL     1      -5.716  18.596  66.730  0.00  0.00    +0.004 C 
ATOM     24  C   UNL     1      -4.692  17.545  66.433  0.00  0.00    +0.000 C 
ENDBRANCH   2  23
TORSDOF 2
ENDMDL
MODEL 4
REMARK VINA RESULT:      -6.0      3.386      5.568
REMARK  Name = 
REMARK  2 active torsions:
REMARK  status: ('A' for Active; 'I' for Inactive)
REMARK    1  A    between atoms: C_2  and  C_3
REMARK    2  A    between atoms: C_22  and  C_23
REMARK                            x       y       z     vdW  Elec       q    Type
REMARK                         _______ _______ _______ _____ _____    ______ ____
ROOT
ATOM      1  C   UNL     1      -9.232   7.913  68.258  0.00  0.00    +0.180 C 
ATOM      2  C   UNL     1      -9.151   9.246  67.600  0.00  0.00    +0.040 C 
ATOM      3  C   UNL     1     -10.601   9.709  68.151  0.00  0.00    +0.004 C 
ATOM      4  C   UNL     1     -10.285  11.329  67.843  0.00  0.00    +0.004 C 
ATOM      5  C   UNL     1     -11.168  11.229  66.424  0.00  0.00    +0.022 C 
ATOM      6  C   UNL     1      -9.966  10.555  65.640  0.00  0.00    -0.044 C 
ATOM      7  C   UNL     1      -9.925  10.750  64.321  0.00  0.00    -0.009 C 
ATOM      8  C   UNL     1     -10.762  12.759  65.829  0.00  0.00    +0.023 C 
ATOM      9  C   UNL     1     -10.855  13.579  67.195  0.00  0.00    -0.041 C 
ATOM     10  C   UNL     1     -10.740  14.860  66.816  0.00  0.00    +0.029 C 
ATOM     11  C   UNL     1     -11.145  15.241  65.451  0.00  0.00    +0.173 C 
ATOM     12  C   UNL     1     -12.371  14.507  64.998  0.00  0.00    +0.069 C 
ATOM     13  O   UNL     1     -10.433  15.899  64.671  0.00  0.00    -0.291 OA
ATOM     14  C   UNL     1     -11.874  13.132  68.183  0.00  0.00    +0.022 C 
ATOM     15  C   UNL     1     -12.317  13.079  65.470  0.00  0.00    +0.012 C 
ATOM     16  C   UNL     1     -11.563  11.780  68.704  0.00  0.00    +0.005 C 
ATOM     17  C   UNL     1      -9.999   9.764  69.650  0.00  0.00    +0.004 C 
ATOM     18  C   UNL     1      -9.380   9.303  66.144  0.00  0.00    +0.025 C 
ATOM     19  C   UNL     1      -9.600   8.290  69.691  0.00  0.00    +0.043 C 
ATOM     20  O   UNL     1      -8.056   7.199  68.286  0.00  0.00    -0.212 OA
ENDROOT
BRANCH   1  22
ATOM     21  C   UNL     1     -11.019   6.294  67.187  0.00  0.00    -0.012 C 
ATOM     22  C   UNL     1     -10.288   7.122  67.631  0.00  0.00    -0.049 C 
ENDBRANCH   1  22
BRANCH   2  23
ATOM     23  C   UNL     1      -8.118  10.158  68.150  0.00  0.00    +0.004 C 
ATOM     24  C   UNL     1      -6.840  10.225  67.373  0.00  0.00    +0.000 C 
ENDBRANCH   2  23
TORSDOF 2
ENDMDL
MODEL 5
REMARK VINA RESULT:      -5.9      3.064      6.889
REMARK  Name = 
REMARK  2 active torsions:
REMARK  status: ('A' for Active; 'I' for Inactive)
REMARK    1  A    between atoms: C_2  and  C_3
REMARK    2  A    between atoms: C_22  and  C_23
REMARK                            x       y       z     vdW  Elec       q    Type
REMARK                         _______ _______ _______ _____ _____    ______ ____
ROOT
ATOM      1  C   UNL     1      -5.365  20.203  66.075  0.00  0.00    +0.180 C 
ATOM      2  C   UNL     1      -6.356  19.711  67.073  0.00  0.00    +0.040 C 
ATOM      3  C   UNL     1      -6.633  18.339  66.259  0.00  0.00    +0.004 C 
ATOM      4  C   UNL     1      -7.331  17.599  67.594  0.00  0.00    +0.004 C 
ATOM      5  C   UNL     1      -8.852  17.939  66.985  0.00  0.00    +0.022 C 
ATOM      6  C   UNL     1      -8.799  19.440  67.491  0.00  0.00    -0.044 C 
ATOM      7  C   UNL     1      -9.967  20.027  67.756  0.00  0.00    -0.009 C 
ATOM      8  C   UNL     1      -9.726  17.457  68.350  0.00  0.00    +0.023 C 
ATOM      9  C   UNL     1      -8.893  16.147  68.718  0.00  0.00    -0.041 C 
ATOM     10  C   UNL     1      -9.614  15.561  69.684  0.00  0.00    +0.029 C 
ATOM     11  C   UNL     1     -11.066  15.811  69.744  0.00  0.00    +0.173 C 
ATOM     12  C   UNL     1     -11.686  15.878  68.381  0.00  0.00    +0.069 C 
ATOM     13  O   UNL     1     -11.669  16.167  70.772  0.00  0.00    -0.291 OA
ATOM     14  C   UNL     1      -8.310  15.378  67.585  0.00  0.00    +0.022 C 
ATOM     15  C   UNL     1     -10.767  16.603  67.435  0.00  0.00    +0.012 C 
ATOM     16  C   UNL     1      -7.273  16.164  66.876  0.00  0.00    +0.005 C 
ATOM     17  C   UNL     1      -5.140  17.836  66.624  0.00  0.00    +0.004 C 
ATOM     18  C   UNL     1      -7.700  20.316  67.055  0.00  0.00    +0.025 C 
ATOM     19  C   UNL     1      -4.432  19.003  65.938  0.00  0.00    +0.043 C 
ATOM     20  O   UNL     1      -4.621  21.288  66.472  0.00  0.00    -0.212 OA
ENDROOT
BRANCH   1  22
ATOM     21  C   UNL     1      -6.392  20.813  63.722  0.00  0.00    -0.012 C 
ATOM     22  C   UNL     1      -6.046  20.490  64.814  0.00  0.00    -0.049 C 
ENDBRANCH   1  22
BRANCH   2  23
ATOM     23  C   UNL     1      -5.792  19.372  68.403  0.00  0.00    +0.004 C 
ATOM     24  C   UNL     1      -5.930  20.434  69.449  0.00  0.00    +0.000 C 
ENDBRANCH   2  23
TORSDOF 2
ENDMDL
MODEL 6
REMARK VINA RESULT:      -5.6      4.982      8.630
REMARK  Name = 
REMARK  2 active torsions:
REMARK  status: ('A' for Active; 'I' for Inactive)
REMARK    1  A    between atoms: C_2  and  C_3
REMARK    2  A    between atoms: C_22  and  C_23
REMARK                            x       y       z     vdW  Elec       q    Type
REMARK                         _______ _______ _______ _____ _____    ______ ____
ROOT
ATOM      1  C   UNL     1      -9.459  11.489  67.240  0.00  0.00    +0.180 C 
ATOM      2  C   UNL     1      -9.651  10.179  67.921  0.00  0.00    +0.040 C 
ATOM      3  C   UNL     1     -10.357  10.849  69.214  0.00  0.00    +0.004 C 
ATOM      4  C   UNL     1     -11.001   9.383  69.716  0.00  0.00    +0.004 C 
ATOM      5  C   UNL     1      -9.760   9.220  70.828  0.00  0.00    +0.022 C 
ATOM      6  C   UNL     1      -8.741   8.716  69.724  0.00  0.00    -0.044 C 
ATOM      7  C   UNL     1      -7.752   7.922  70.137  0.00  0.00    -0.009 C 
ATOM      8  C   UNL     1     -10.116   7.635  71.295  0.00  0.00    +0.023 C 
ATOM      9  C   UNL     1     -11.707   7.751  71.345  0.00  0.00    -0.041 C 
ATOM     10  C   UNL     1     -12.102   6.595  71.896  0.00  0.00    +0.029 C 
ATOM     11  C   UNL     1     -11.175   5.873  72.786  0.00  0.00    +0.173 C 
ATOM     12  C   UNL     1     -10.384   6.803  73.656  0.00  0.00    +0.069 C 
ATOM     13  O   UNL     1     -10.896   4.666  72.668  0.00  0.00    -0.291 OA
ATOM     14  C   UNL     1     -12.275   9.063  71.758  0.00  0.00    +0.022 C 
ATOM     15  C   UNL     1      -9.984   8.023  72.870  0.00  0.00    +0.012 C 
ATOM     16  C   UNL     1     -11.960  10.123  70.771  0.00  0.00    +0.005 C 
ATOM     17  C   UNL     1     -11.639  11.224  68.303  0.00  0.00    +0.004 C 
ATOM     18  C   UNL     1      -8.470   9.555  68.546  0.00  0.00    +0.025 C 
ATOM     19  C   UNL     1     -10.858  12.095  67.321  0.00  0.00    +0.043 C 
ATOM     20  O   UNL     1      -9.094  11.416  65.916  0.00  0.00    -0.212 OA
ENDROOT
BRANCH   1  22
ATOM     21  C   UNL     1      -7.691  13.069  68.399  0.00  0.00    -0.012 C 
ATOM     22  C   UNL     1      -8.491  12.290  67.988  0.00  0.00    -0.049 C 
ENDBRANCH   1  22
BRANCH   2  23
ATOM     23  C   UNL     1     -10.621   9.266  67.266  0.00  0.00    +0.004 C 
ATOM     24  C   UNL     1     -10.017   8.155  66.464  0.00  0.00    +0.000 C 
ENDBRANCH   2  23
TORSDOF 2
ENDMDL
MODEL 7
REMARK VINA RESULT:      -5.6      6.341      8.866
REMARK  Name = 
REMARK  2 active torsions:
REMARK  status: ('A' for Active; 'I' for Inactive)
REMARK    1  A    between atoms: C_2  and  C_3
REMARK    2  A    between atoms: C_22  and  C_23
REMARK                            x       y       z     vdW  Elec       q    Type
REMARK                         _______ _______ _______ _____ _____    ______ ____
ROOT
ATOM      1  C   UNL     1     -11.661   6.666  71.915  0.00  0.00    +0.180 C 
ATOM      2  C   UNL     1     -10.772   6.670  70.720  0.00  0.00    +0.040 C 
ATOM      3  C   UNL     1     -10.916   8.268  70.504  0.00  0.00    +0.004 C 
ATOM      4  C   UNL     1      -9.563   8.331  69.513  0.00  0.00    +0.004 C 
ATOM      5  C   UNL     1     -10.553   8.342  68.164  0.00  0.00    +0.022 C 
ATOM      6  C   UNL     1     -10.780   6.775  68.229  0.00  0.00    -0.044 C 
ATOM      7  C   UNL     1     -11.051   6.158  67.078  0.00  0.00    -0.009 C 
ATOM      8  C   UNL     1      -9.326   8.167  67.013  0.00  0.00    +0.023 C 
ATOM      9  C   UNL     1      -8.246   9.145  67.664  0.00  0.00    -0.041 C 
ATOM     10  C   UNL     1      -7.288   9.241  66.732  0.00  0.00    +0.029 C 
ATOM     11  C   UNL     1      -7.642   9.025  65.317  0.00  0.00    +0.173 C 
ATOM     12  C   UNL     1      -8.983   9.602  64.974  0.00  0.00    +0.069 C 
ATOM     13  O   UNL     1      -7.031   8.252  64.558  0.00  0.00    -0.291 OA
ATOM     14  C   UNL     1      -8.766  10.333  68.395  0.00  0.00    +0.022 C 
ATOM     15  C   UNL     1      -9.946   9.367  66.106  0.00  0.00    +0.012 C 
ATOM     16  C   UNL     1      -9.527   9.934  69.602  0.00  0.00    +0.005 C 
ATOM     17  C   UNL     1     -10.070   8.514  71.859  0.00  0.00    +0.004 C 
ATOM     18  C   UNL     1     -11.332   6.170  69.451  0.00  0.00    +0.025 C 
ATOM     19  C   UNL     1     -11.049   7.774  72.768  0.00  0.00    +0.043 C 
ATOM     20  O   UNL     1     -11.655   5.502  72.647  0.00  0.00    -0.212 OA
ENDROOT
BRANCH   1  22
ATOM     21  C   UNL     1     -14.164   7.329  71.406  0.00  0.00    -0.012 C 
ATOM     22  C   UNL     1     -13.024   7.001  71.509  0.00  0.00    -0.049 C 
ENDBRANCH   1  22
BRANCH   2  23
ATOM     23  C   UNL     1      -9.349   6.352  70.994  0.00  0.00    +0.004 C 
ATOM     24  C   UNL     1      -8.944   4.935  70.728  0.00  0.00    +0.000 C 
ENDBRANCH   2  23
TORSDOF 2
ENDMDL
MODEL 8
REMARK VINA RESULT:      -5.6      3.109      7.064
REMARK  Name = 
REMARK  2 active torsions:
REMARK  status: ('A' for Active; 'I' for Inactive)
REMARK    1  A    between atoms: C_2  and  C_3
REMARK    2  A    between atoms: C_22  and  C_23
REMARK                            x       y       z     vdW  Elec       q    Type
REMARK                         _______ _______ _______ _____ _____    ______ ____
ROOT
ATOM      1  C   UNL     1     -10.056  14.023  66.513  0.00  0.00    +0.180 C 
ATOM      2  C   UNL     1     -10.630  12.737  66.996  0.00  0.00    +0.040 C 
ATOM      3  C   UNL     1     -10.679  13.230  68.537  0.00  0.00    +0.004 C 
ATOM      4  C   UNL     1     -11.756  12.017  68.969  0.00  0.00    +0.004 C 
ATOM      5  C   UNL     1     -10.489  11.116  69.591  0.00  0.00    +0.022 C 
ATOM      6  C   UNL     1     -10.054  10.605  68.154  0.00  0.00    -0.044 C 
ATOM      7  C   UNL     1      -9.432   9.427  68.099  0.00  0.00    -0.009 C 
ATOM      8  C   UNL     1     -11.372   9.703  69.880  0.00  0.00    +0.023 C 
ATOM      9  C   UNL     1     -12.708  10.367  70.447  0.00  0.00    -0.041 C 
ATOM     10  C   UNL     1     -13.424   9.327  70.898  0.00  0.00    +0.029 C 
ATOM     11  C   UNL     1     -12.720   8.102  71.319  0.00  0.00    +0.173 C 
ATOM     12  C   UNL     1     -11.437   8.404  72.035  0.00  0.00    +0.069 C 
ATOM     13  O   UNL     1     -13.013   6.960  70.923  0.00  0.00    -0.291 OA
ATOM     14  C   UNL     1     -12.557  11.625  71.227  0.00  0.00    +0.022 C 
ATOM     15  C   UNL     1     -10.743   9.564  71.374  0.00  0.00    +0.012 C 
ATOM     16  C   UNL     1     -12.049  12.729  70.379  0.00  0.00    +0.005 C 
ATOM     17  C   UNL     1     -11.846  14.279  68.151  0.00  0.00    +0.004 C 
ATOM     18  C   UNL     1      -9.720  11.582  67.106  0.00  0.00    +0.025 C 
ATOM     19  C   UNL     1     -11.008  15.045  67.129  0.00  0.00    +0.043 C 
ATOM     20  O   UNL     1     -10.060  14.193  65.149  0.00  0.00    -0.212 OA
ENDROOT
BRANCH   1  22
ATOM     21  C   UNL     1      -7.566  14.447  67.280  0.00  0.00    -0.012 C 
ATOM     22  C   UNL     1      -8.701  14.179  67.039  0.00  0.00    -0.049 C 
ENDBRANCH   1  22
BRANCH   2  23
ATOM     23  C   UNL     1     -12.014  12.456  66.540  0.00  0.00    +0.004 C 
ATOM     24  C   UNL     1     -12.165  12.176  65.077  0.00  0.00    +0.000 C 
ENDBRANCH   2  23
TORSDOF 2
ENDMDL
MODEL 9
REMARK VINA RESULT:      -5.6      2.169      3.991
REMARK  Name = 
REMARK  2 active torsions:
REMARK  status: ('A' for Active; 'I' for Inactive)
REMARK    1  A    between atoms: C_2  and  C_3
REMARK    2  A    between atoms: C_22  and  C_23
REMARK                            x       y       z     vdW  Elec       q    Type
REMARK                         _______ _______ _______ _____ _____    ______ ____
ROOT
ATOM      1  C   UNL     1      -9.808   9.725  67.103  0.00  0.00    +0.180 C 
ATOM      2  C   UNL     1     -10.035  11.114  66.617  0.00  0.00    +0.040 C 
ATOM      3  C   UNL     1      -9.050  11.763  67.726  0.00  0.00    +0.004 C 
ATOM      4  C   UNL     1      -8.922  13.205  66.877  0.00  0.00    +0.004 C 
ATOM      5  C   UNL     1     -10.060  13.900  67.890  0.00  0.00    +0.022 C 
ATOM      6  C   UNL     1     -11.266  13.225  67.114  0.00  0.00    -0.044 C 
ATOM      7  C   UNL     1     -12.438  13.862  67.154  0.00  0.00    -0.009 C 
ATOM      8  C   UNL     1     -10.245  15.341  67.024  0.00  0.00    +0.023 C 
ATOM      9  C   UNL     1      -8.713  15.597  66.656  0.00  0.00    -0.041 C 
ATOM     10  C   UNL     1      -8.706  16.828  66.125  0.00  0.00    +0.029 C 
ATOM     11  C   UNL     1      -9.761  17.781  66.515  0.00  0.00    +0.173 C 
ATOM     12  C   UNL     1     -10.115  17.671  67.968  0.00  0.00    +0.069 C 
ATOM     13  O   UNL     1     -10.450  18.427  65.705  0.00  0.00    -0.291 OA
ATOM     14  C   UNL     1      -7.697  15.154  67.649  0.00  0.00    +0.022 C 
ATOM     15  C   UNL     1     -10.121  16.224  68.385  0.00  0.00    +0.012 C 
ATOM     16  C   UNL     1      -7.694  13.680  67.796  0.00  0.00    +0.005 C 
ATOM     17  C   UNL     1      -7.786  11.085  66.979  0.00  0.00    +0.004 C 
ATOM     18  C   UNL     1     -11.312  11.761  66.972  0.00  0.00    +0.025 C 
ATOM     19  C   UNL     1      -8.284   9.651  67.143  0.00  0.00    +0.043 C 
ATOM     20  O   UNL     1     -10.269   8.730  66.274  0.00  0.00    -0.212 OA
ENDROOT
BRANCH   1  22
ATOM     21  C   UNL     1     -10.905   9.239  69.453  0.00  0.00    -0.012 C 
ATOM     22  C   UNL     1     -10.381   9.577  68.439  0.00  0.00    -0.049 C 
ENDBRANCH   1  22
BRANCH   2  23
ATOM     23  C   UNL     1      -9.492  11.405  65.267  0.00  0.00    +0.004 C 
ATOM     24  C   UNL     1     -10.475  11.301  64.142  0.00  0.00    +0.000 C 
ENDBRANCH   2  23
TORSDOF 2
ENDMDL
