MODEL 1
REMARK VINA RESULT:      -7.6      0.000      0.000
REMARK  Name = 
REMARK  5 active torsions:
REMARK  status: ('A' for Active; 'I' for Inactive)
REMARK    1  A    between atoms: C_2  and  C_3
REMARK    2  A    between atoms: C_2  and  C_19
REMARK    3  A    between atoms: C_3  and  C_4
REMARK    4  A    between atoms: C_13  and  C_14
REMARK    5  A    between atoms: C_19  and  C_20
REMARK                            x       y       z     vdW  Elec       q    Type
REMARK                         _______ _______ _______ _____ _____    ______ ____
ROOT
ATOM      1  C   UNL     1      -8.783  13.126  67.886  0.00  0.00    +0.227 C 
ATOM      2  N   UNL     1      -8.841  14.512  67.521  0.00  0.00    -0.270 N 
ATOM      3  C   UNL     1      -8.956  14.756  66.100  0.00  0.00    +0.160 C 
ATOM      4  C   UNL     1      -9.976  15.827  65.927  0.00  0.00    +0.164 A 
ATOM      5  N   UNL     1     -10.812  16.096  64.919  0.00  0.00    -0.132 NA
ATOM      6  N   UNL     1     -10.953  17.419  64.857  0.00  0.00    -0.125 NA
ATOM      7  C   UNL     1     -10.540  17.921  66.047  0.00  0.00    +0.238 A 
ATOM      8  N   UNL     1     -10.019  16.897  66.725  0.00  0.00    -0.292 N 
ATOM      9  C   UNL     1      -9.505  16.825  68.065  0.00  0.00    +0.130 C 
ATOM     10  C   UNL     1      -9.266  15.427  68.545  0.00  0.00    +0.118 C 
ATOM     11  O   UNL     1      -7.658  12.650  68.162  0.00  0.00    -0.275 OA
ENDROOT
BRANCH   7  12
ATOM     12  C   UNL     1     -10.401  19.379  66.247  0.00  0.00    +0.452 C 
ATOM     13  F   UNL     1     -11.064  19.988  65.185  0.00  0.00    -0.163 F 
ATOM     14  F   UNL     1      -9.108  19.812  66.306  0.00  0.00    -0.163 F 
ATOM     15  F   UNL     1     -11.026  19.728  67.439  0.00  0.00    -0.163 F 
ENDBRANCH   7  12
BRANCH   1  16
ATOM     16  C   UNL     1      -9.953  12.304  67.499  0.00  0.00    +0.105 C 
BRANCH  16  18
ATOM     17  N   UNL     1     -10.136  10.028  67.955  0.00  0.00    -0.132 NA
ATOM     18  C   UNL     1     -10.112  11.346  68.847  0.00  0.00    +0.105 C 
BRANCH  18  19
ATOM     19  C   UNL     1     -11.764  11.495  68.811  0.00  0.00    +0.048 C 
BRANCH  19  20
ATOM     20  C   UNL     1     -12.120  12.286  70.003  0.00  0.00    +0.009 A 
ATOM     21  C   UNL     1     -12.827  11.605  70.989  0.00  0.00    +0.139 A 
ATOM     22  F   UNL     1     -13.358  10.374  70.734  0.00  0.00    -0.204 F 
ATOM     23  C   UNL     1     -13.250  12.274  72.113  0.00  0.00    +0.061 A 
ATOM     24  C   UNL     1     -13.156  13.648  72.126  0.00  0.00    +0.170 A 
ATOM     25  F   UNL     1     -13.238  14.383  73.266  0.00  0.00    -0.202 F 
ATOM     26  C   UNL     1     -12.838  14.345  70.970  0.00  0.00    +0.167 A 
ATOM     27  F   UNL     1     -13.332  15.603  70.830  0.00  0.00    -0.202 F 
ATOM     28  C   UNL     1     -12.232  13.666  69.923  0.00  0.00    +0.030 A 
ENDBRANCH  19  20
ENDBRANCH  18  19
ENDBRANCH  16  18
ENDBRANCH   1  16
TORSDOF 5
ENDMDL
MODEL 2
REMARK VINA RESULT:      -7.5      2.595      3.928
REMARK  Name = 
REMARK  5 active torsions:
REMARK  status: ('A' for Active; 'I' for Inactive)
REMARK    1  A    between atoms: C_2  and  C_3
REMARK    2  A    between atoms: C_2  and  C_19
REMARK    3  A    between atoms: C_3  and  C_4
REMARK    4  A    between atoms: C_13  and  C_14
REMARK    5  A    between atoms: C_19  and  C_20
REMARK                            x       y       z     vdW  Elec       q    Type
REMARK                         _______ _______ _______ _____ _____    ______ ____
ROOT
ATOM      1  C   UNL     1     -11.124  12.479  67.235  0.00  0.00    +0.227 C 
ATOM      2  N   UNL     1     -11.057  13.861  66.858  0.00  0.00    -0.270 N 
ATOM      3  C   UNL     1     -11.837  14.751  67.690  0.00  0.00    +0.160 C 
ATOM      4  C   UNL     1     -10.989  15.946  67.958  0.00  0.00    +0.164 A 
ATOM      5  N   UNL     1     -10.963  16.796  68.988  0.00  0.00    -0.132 NA
ATOM      6  N   UNL     1     -10.652  17.999  68.507  0.00  0.00    -0.125 NA
ATOM      7  C   UNL     1     -10.103  17.810  67.281  0.00  0.00    +0.238 A 
ATOM      8  N   UNL     1     -10.247  16.513  67.004  0.00  0.00    -0.292 N 
ATOM      9  C   UNL     1      -9.784  15.738  65.886  0.00  0.00    +0.130 C 
ATOM     10  C   UNL     1      -9.914  14.258  66.082  0.00  0.00    +0.118 C 
ATOM     11  O   UNL     1     -11.873  11.734  66.564  0.00  0.00    -0.275 OA
ENDROOT
BRANCH   7  12
ATOM     12  C   UNL     1      -9.808  18.957  66.398  0.00  0.00    +0.452 C 
ATOM     13  F   UNL     1     -10.763  18.933  65.385  0.00  0.00    -0.163 F 
ATOM     14  F   UNL     1      -8.552  18.938  65.862  0.00  0.00    -0.163 F 
ATOM     15  F   UNL     1      -9.945  20.131  67.131  0.00  0.00    -0.163 F 
ENDBRANCH   7  12
BRANCH   1  16
ATOM     16  C   UNL     1     -10.653  12.157  68.603  0.00  0.00    +0.105 C 
BRANCH  16  18
ATOM     17  N   UNL     1     -12.134  12.842  70.263  0.00  0.00    -0.132 NA
ATOM     18  C   UNL     1     -12.058  11.590  69.283  0.00  0.00    +0.105 C 
BRANCH  18  19
ATOM     19  C   UNL     1     -11.211  10.681  70.383  0.00  0.00    +0.048 C 
BRANCH  19  20
ATOM     20  C   UNL     1     -12.094   9.554  70.733  0.00  0.00    +0.009 A 
ATOM     21  C   UNL     1     -13.128   9.850  71.615  0.00  0.00    +0.139 A 
ATOM     22  F   UNL     1     -13.146  11.038  72.285  0.00  0.00    -0.204 F 
ATOM     23  C   UNL     1     -13.970   8.851  72.042  0.00  0.00    +0.061 A 
ATOM     24  C   UNL     1     -13.628   7.547  71.760  0.00  0.00    +0.170 A 
ATOM     25  F   UNL     1     -14.511   6.517  71.844  0.00  0.00    -0.202 F 
ATOM     26  C   UNL     1     -12.378   7.241  71.245  0.00  0.00    +0.167 A 
ATOM     27  F   UNL     1     -11.846   6.028  71.545  0.00  0.00    -0.202 F 
ATOM     28  C   UNL     1     -11.634   8.248  70.646  0.00  0.00    +0.030 A 
ENDBRANCH  19  20
ENDBRANCH  18  19
ENDBRANCH  16  18
ENDBRANCH   1  16
TORSDOF 5
ENDMDL
MODEL 3
REMARK VINA RESULT:      -7.4      1.926      2.978
REMARK  Name = 
REMARK  5 active torsions:
REMARK  status: ('A' for Active; 'I' for Inactive)
REMARK    1  A    between atoms: C_2  and  C_3
REMARK    2  A    between atoms: C_2  and  C_19
REMARK    3  A    between atoms: C_3  and  C_4
REMARK    4  A    between atoms: C_13  and  C_14
REMARK    5  A    between atoms: C_19  and  C_20
REMARK                            x       y       z     vdW  Elec       q    Type
REMARK                         _______ _______ _______ _____ _____    ______ ____
ROOT
ATOM      1  C   UNL     1      -9.281  13.137  68.006  0.00  0.00    +0.227 C 
ATOM      2  N   UNL     1      -9.206  14.524  67.647  0.00  0.00    -0.270 N 
ATOM      3  C   UNL     1      -9.233  14.780  66.223  0.00  0.00    +0.160 C 
ATOM      4  C   UNL     1     -10.151  15.933  66.009  0.00  0.00    +0.164 A 
ATOM      5  N   UNL     1     -10.913  16.272  64.964  0.00  0.00    -0.132 NA
ATOM      6  N   UNL     1     -10.941  17.602  64.904  0.00  0.00    -0.125 NA
ATOM      7  C   UNL     1     -10.545  18.066  66.116  0.00  0.00    +0.238 A 
ATOM      8  N   UNL     1     -10.144  17.000  66.810  0.00  0.00    -0.292 N 
ATOM      9  C   UNL     1      -9.702  16.883  68.173  0.00  0.00    +0.130 C 
ATOM     10  C   UNL     1      -9.602  15.468  68.655  0.00  0.00    +0.118 C 
ATOM     11  O   UNL     1      -8.213  12.569  68.331  0.00  0.00    -0.275 OA
ENDROOT
BRANCH   7  12
ATOM     12  C   UNL     1     -10.296  19.507  66.331  0.00  0.00    +0.452 C 
ATOM     13  F   UNL     1     -10.885  20.174  65.260  0.00  0.00    -0.163 F 
ATOM     14  F   UNL     1      -8.973  19.835  66.420  0.00  0.00    -0.163 F 
ATOM     15  F   UNL     1     -10.917  19.896  67.512  0.00  0.00    -0.163 F 
ENDBRANCH   7  12
BRANCH   1  16
ATOM     16  C   UNL     1     -10.495  12.416  67.559  0.00  0.00    +0.105 C 
BRANCH  16  18
ATOM     17  N   UNL     1     -11.315  10.250  67.318  0.00  0.00    -0.132 NA
ATOM     18  C   UNL     1     -10.261  10.943  68.290  0.00  0.00    +0.105 C 
BRANCH  18  19
ATOM     19  C   UNL     1     -11.418  11.277  69.432  0.00  0.00    +0.048 C 
BRANCH  19  20
ATOM     20  C   UNL     1     -11.397  10.138  70.366  0.00  0.00    +0.009 A 
ATOM     21  C   UNL     1     -12.467  10.064  71.252  0.00  0.00    +0.139 A 
ATOM     22  F   UNL     1     -13.322  11.119  71.391  0.00  0.00    -0.204 F 
ATOM     23  C   UNL     1     -12.507   9.067  72.197  0.00  0.00    +0.061 A 
ATOM     24  C   UNL     1     -11.376   8.305  72.385  0.00  0.00    +0.170 A 
ATOM     25  F   UNL     1     -11.388   7.114  73.042  0.00  0.00    -0.202 F 
ATOM     26  C   UNL     1     -10.176   8.661  71.789  0.00  0.00    +0.167 A 
ATOM     27  F   UNL     1      -9.024   8.324  72.426  0.00  0.00    -0.202 F 
ATOM     28  C   UNL     1     -10.197   9.529  70.706  0.00  0.00    +0.030 A 
ENDBRANCH  19  20
ENDBRANCH  18  19
ENDBRANCH  16  18
ENDBRANCH   1  16
TORSDOF 5
ENDMDL
MODEL 4
REMARK VINA RESULT:      -7.2      4.215      7.798
REMARK  Name = 
REMARK  5 active torsions:
REMARK  status: ('A' for Active; 'I' for Inactive)
REMARK    1  A    between atoms: C_2  and  C_3
REMARK    2  A    between atoms: C_2  and  C_19
REMARK    3  A    between atoms: C_3  and  C_4
REMARK    4  A    between atoms: C_13  and  C_14
REMARK    5  A    between atoms: C_19  and  C_20
REMARK                            x       y       z     vdW  Elec       q    Type
REMARK                         _______ _______ _______ _____ _____    ______ ____
ROOT
ATOM      1  C   UNL     1     -10.040  16.224  68.275  0.00  0.00    +0.227 C 
ATOM      2  N   UNL     1     -10.275  15.034  67.509  0.00  0.00    -0.270 N 
ATOM      3  C   UNL     1     -11.671  14.706  67.319  0.00  0.00    +0.160 C 
ATOM      4  C   UNL     1     -11.831  14.305  65.894  0.00  0.00    +0.164 A 
ATOM      5  N   UNL     1     -12.879  14.381  65.068  0.00  0.00    -0.132 NA
ATOM      6  N   UNL     1     -12.827  13.326  64.257  0.00  0.00    -0.125 NA
ATOM      7  C   UNL     1     -11.562  12.839  64.314  0.00  0.00    +0.238 A 
ATOM      8  N   UNL     1     -10.942  13.523  65.277  0.00  0.00    -0.292 N 
ATOM      9  C   UNL     1      -9.575  13.489  65.717  0.00  0.00    +0.130 C 
ATOM     10  C   UNL     1      -9.211  14.610  66.642  0.00  0.00    +0.118 C 
ATOM     11  O   UNL     1      -9.713  16.080  69.475  0.00  0.00    -0.275 OA
ENDROOT
BRANCH   7  12
ATOM     12  C   UNL     1     -11.213  11.559  63.664  0.00  0.00    +0.452 C 
ATOM     13  F   UNL     1     -12.339  11.159  62.949  0.00  0.00    -0.163 F 
ATOM     14  F   UNL     1     -10.835  10.577  64.534  0.00  0.00    -0.163 F 
ATOM     15  F   UNL     1     -10.162  11.779  62.780  0.00  0.00    -0.163 F 
ENDBRANCH   7  12
BRANCH   1  16
ATOM     16  C   UNL     1     -10.605  17.475  67.719  0.00  0.00    +0.105 C 
BRANCH  16  18
ATOM     17  N   UNL     1     -10.629  19.790  67.963  0.00  0.00    -0.132 NA
ATOM     18  C   UNL     1      -9.823  18.605  68.653  0.00  0.00    +0.105 C 
BRANCH  18  19
ATOM     19  C   UNL     1      -8.579  18.710  67.560  0.00  0.00    +0.048 C 
BRANCH  19  20
ATOM     20  C   UNL     1      -7.505  19.448  68.249  0.00  0.00    +0.009 A 
ATOM     21  C   UNL     1      -6.894  20.454  67.508  0.00  0.00    +0.139 A 
ATOM     22  F   UNL     1      -7.118  20.557  66.165  0.00  0.00    -0.204 F 
ATOM     23  C   UNL     1      -5.845  21.160  68.046  0.00  0.00    +0.061 A 
ATOM     24  C   UNL     1      -5.285  20.700  69.217  0.00  0.00    +0.170 A 
ATOM     25  F   UNL     1      -4.477  21.464  70.000  0.00  0.00    -0.202 F 
ATOM     26  C   UNL     1      -5.630  19.457  69.725  0.00  0.00    +0.167 A 
ATOM     27  F   UNL     1      -4.699  18.785  70.449  0.00  0.00    -0.202 F 
ATOM     28  C   UNL     1      -6.806  18.860  69.293  0.00  0.00    +0.030 A 
ENDBRANCH  19  20
ENDBRANCH  18  19
ENDBRANCH  16  18
ENDBRANCH   1  16
TORSDOF 5
ENDMDL
MODEL 5
REMARK VINA RESULT:      -7.0      3.169      4.840
REMARK  Name = 
REMARK  5 active torsions:
REMARK  status: ('A' for Active; 'I' for Inactive)
REMARK    1  A    between atoms: C_2  and  C_3
REMARK    2  A    between atoms: C_2  and  C_19
REMARK    3  A    between atoms: C_3  and  C_4
REMARK    4  A    between atoms: C_13  and  C_14
REMARK    5  A    between atoms: C_19  and  C_20
REMARK                            x       y       z     vdW  Elec       q    Type
REMARK                         _______ _______ _______ _____ _____    ______ ____
ROOT
ATOM      1  C   UNL     1     -11.229  12.677  66.969  0.00  0.00    +0.227 C 
ATOM      2  N   UNL     1     -11.198  14.082  66.684  0.00  0.00    -0.270 N 
ATOM      3  C   UNL     1     -11.876  14.910  67.657  0.00  0.00    +0.160 C 
ATOM      4  C   UNL     1     -10.998  16.086  67.911  0.00  0.00    +0.164 A 
ATOM      5  N   UNL     1     -10.853  16.862  68.989  0.00  0.00    -0.132 NA
ATOM      6  N   UNL     1     -10.591  18.096  68.561  0.00  0.00    -0.125 NA
ATOM      7  C   UNL     1     -10.183  17.995  67.271  0.00  0.00    +0.238 A 
ATOM      8  N   UNL     1     -10.363  16.720  66.923  0.00  0.00    -0.292 N 
ATOM      9  C   UNL     1     -10.031  16.026  65.709  0.00  0.00    +0.130 C 
ATOM     10  C   UNL     1     -10.146  14.536  65.815  0.00  0.00    +0.118 C 
ATOM     11  O   UNL     1     -12.053  11.979  66.334  0.00  0.00    -0.275 OA
ENDROOT
BRANCH   7  12
ATOM     12  C   UNL     1      -9.981  19.202  66.443  0.00  0.00    +0.452 C 
ATOM     13  F   UNL     1      -8.684  19.126  65.943  0.00  0.00    -0.163 F 
ATOM     14  F   UNL     1     -10.158  20.375  67.118  0.00  0.00    -0.163 F 
ATOM     15  F   UNL     1     -10.884  19.173  65.386  0.00  0.00    -0.163 F 
ENDBRANCH   7  12
BRANCH   1  16
ATOM     16  C   UNL     1     -10.611  12.262  68.250  0.00  0.00    +0.105 C 
BRANCH  16  18
ATOM     17  N   UNL     1     -11.913  11.976  70.159  0.00  0.00    -0.132 NA
ATOM     18  C   UNL     1     -11.742  11.173  68.795  0.00  0.00    +0.105 C 
BRANCH  18  19
ATOM     19  C   UNL     1     -10.560  10.196  69.428  0.00  0.00    +0.048 C 
BRANCH  19  20
ATOM     20  C   UNL     1     -10.705   8.899  68.742  0.00  0.00    +0.009 A 
ATOM     21  C   UNL     1     -10.769   7.783  69.570  0.00  0.00    +0.139 A 
ATOM     22  F   UNL     1     -10.462   7.888  70.896  0.00  0.00    -0.204 F 
ATOM     23  C   UNL     1     -10.849   6.526  69.020  0.00  0.00    +0.061 A 
ATOM     24  C   UNL     1     -10.638   6.395  67.665  0.00  0.00    +0.170 A 
ATOM     25  F   UNL     1     -10.997   5.286  66.966  0.00  0.00    -0.202 F 
ATOM     26  C   UNL     1     -10.160   7.461  66.918  0.00  0.00    +0.167 A 
ATOM     27  F   UNL     1      -9.407   7.182  65.823  0.00  0.00    -0.202 F 
ATOM     28  C   UNL     1     -10.273   8.744  67.433  0.00  0.00    +0.030 A 
ENDBRANCH  19  20
ENDBRANCH  18  19
ENDBRANCH  16  18
ENDBRANCH   1  16
TORSDOF 5
ENDMDL
MODEL 6
REMARK VINA RESULT:      -6.9      2.391      3.253
REMARK  Name = 
REMARK  5 active torsions:
REMARK  status: ('A' for Active; 'I' for Inactive)
REMARK    1  A    between atoms: C_2  and  C_3
REMARK    2  A    between atoms: C_2  and  C_19
REMARK    3  A    between atoms: C_3  and  C_4
REMARK    4  A    between atoms: C_13  and  C_14
REMARK    5  A    between atoms: C_19  and  C_20
REMARK                            x       y       z     vdW  Elec       q    Type
REMARK                         _______ _______ _______ _____ _____    ______ ____
ROOT
ATOM      1  C   UNL     1      -9.032   9.512  68.083  0.00  0.00    +0.227 C 
ATOM      2  N   UNL     1      -9.152  10.753  67.376  0.00  0.00    -0.270 N 
ATOM      3  C   UNL     1     -10.093  10.733  66.277  0.00  0.00    +0.160 C 
ATOM      4  C   UNL     1     -10.878  11.995  66.356  0.00  0.00    +0.164 A 
ATOM      5  N   UNL     1     -12.122  12.287  65.964  0.00  0.00    -0.132 NA
ATOM      6  N   UNL     1     -12.126  13.554  65.555  0.00  0.00    -0.125 NA
ATOM      7  C   UNL     1     -11.015  14.143  66.064  0.00  0.00    +0.238 A 
ATOM      8  N   UNL     1     -10.303  13.168  66.631  0.00  0.00    -0.292 N 
ATOM      9  C   UNL     1      -9.083  13.220  67.389  0.00  0.00    +0.130 C 
ATOM     10  C   UNL     1      -8.752  11.937  68.087  0.00  0.00    +0.118 C 
ATOM     11  O   UNL     1      -8.037   8.796  67.825  0.00  0.00    -0.275 OA
ENDROOT
BRANCH   7  12
ATOM     12  C   UNL     1     -10.626  15.508  65.653  0.00  0.00    +0.452 C 
ATOM     13  F   UNL     1     -10.805  16.323  66.768  0.00  0.00    -0.163 F 
ATOM     14  F   UNL     1     -11.338  15.995  64.594  0.00  0.00    -0.163 F 
ATOM     15  F   UNL     1      -9.281  15.501  65.300  0.00  0.00    -0.163 F 
ENDBRANCH   7  12
BRANCH   1  16
ATOM     16  C   UNL     1     -10.272   9.002  68.714  0.00  0.00    +0.105 C 
BRANCH  16  18
ATOM     17  N   UNL     1     -10.140   8.221  70.903  0.00  0.00    -0.132 NA
ATOM     18  C   UNL     1     -10.137   9.664  70.231  0.00  0.00    +0.105 C 
BRANCH  18  19
ATOM     19  C   UNL     1     -11.784   9.813  70.360  0.00  0.00    +0.048 C 
BRANCH  19  20
ATOM     20  C   UNL     1     -12.031  11.223  70.711  0.00  0.00    +0.009 A 
ATOM     21  C   UNL     1     -12.962  11.439  71.722  0.00  0.00    +0.139 A 
ATOM     22  F   UNL     1     -13.757  10.419  72.159  0.00  0.00    -0.204 F 
ATOM     23  C   UNL     1     -13.298  12.722  72.081  0.00  0.00    +0.061 A 
ATOM     24  C   UNL     1     -12.870  13.755  71.277  0.00  0.00    +0.170 A 
ATOM     25  F   UNL     1     -12.861  15.053  71.683  0.00  0.00    -0.202 F 
ATOM     26  C   UNL     1     -12.296  13.498  70.041  0.00  0.00    +0.167 A 
ATOM     27  F   UNL     1     -12.452  14.426  69.062  0.00  0.00    -0.202 F 
ATOM     28  C   UNL     1     -11.793  12.230  69.787  0.00  0.00    +0.030 A 
ENDBRANCH  19  20
ENDBRANCH  18  19
ENDBRANCH  16  18
ENDBRANCH   1  16
TORSDOF 5
ENDMDL
MODEL 7
REMARK VINA RESULT:      -6.9      3.565      7.006
REMARK  Name = 
REMARK  5 active torsions:
REMARK  status: ('A' for Active; 'I' for Inactive)
REMARK    1  A    between atoms: C_2  and  C_3
REMARK    2  A    between atoms: C_2  and  C_19
REMARK    3  A    between atoms: C_3  and  C_4
REMARK    4  A    between atoms: C_13  and  C_14
REMARK    5  A    between atoms: C_19  and  C_20
REMARK                            x       y       z     vdW  Elec       q    Type
REMARK                         _______ _______ _______ _____ _____    ______ ____
ROOT
ATOM      1  C   UNL     1      -9.635  15.118  67.293  0.00  0.00    +0.227 C 
ATOM      2  N   UNL     1     -10.234  14.684  68.522  0.00  0.00    -0.270 N 
ATOM      3  C   UNL     1     -10.567  15.751  69.441  0.00  0.00    +0.160 C 
ATOM      4  C   UNL     1     -11.920  15.449  69.982  0.00  0.00    +0.164 A 
ATOM      5  N   UNL     1     -12.888  16.251  70.435  0.00  0.00    -0.132 NA
ATOM      6  N   UNL     1     -13.511  15.608  71.422  0.00  0.00    -0.125 NA
ATOM      7  C   UNL     1     -13.200  14.293  71.302  0.00  0.00    +0.238 A 
ATOM      8  N   UNL     1     -12.277  14.214  70.342  0.00  0.00    -0.292 N 
ATOM      9  C   UNL     1     -11.647  13.071  69.742  0.00  0.00    +0.130 C 
ATOM     10  C   UNL     1     -10.865  13.393  68.505  0.00  0.00    +0.118 C 
ATOM     11  O   UNL     1      -8.393  15.002  67.184  0.00  0.00    -0.275 OA
ENDROOT
BRANCH   7  12
ATOM     12  C   UNL     1     -13.589  13.325  72.348  0.00  0.00    +0.452 C 
ATOM     13  F   UNL     1     -13.028  13.781  73.538  0.00  0.00    -0.163 F 
ATOM     14  F   UNL     1     -13.187  12.044  72.098  0.00  0.00    -0.163 F 
ATOM     15  F   UNL     1     -14.975  13.325  72.464  0.00  0.00    -0.163 F 
ENDBRANCH   7  12
BRANCH   1  16
ATOM     16  C   UNL     1     -10.453  16.033  66.462  0.00  0.00    +0.105 C 
BRANCH  16  18
ATOM     17  N   UNL     1     -11.143  16.473  64.282  0.00  0.00    -0.132 NA
ATOM     18  C   UNL     1     -10.154  15.418  64.948  0.00  0.00    +0.105 C 
BRANCH  18  19
ATOM     19  C   UNL     1     -11.353  14.286  65.123  0.00  0.00    +0.048 C 
BRANCH  19  20
ATOM     20  C   UNL     1     -10.769  13.012  64.667  0.00  0.00    +0.009 A 
ATOM     21  C   UNL     1     -11.312  12.483  63.500  0.00  0.00    +0.139 A 
ATOM     22  F   UNL     1     -12.466  12.995  62.981  0.00  0.00    -0.204 F 
ATOM     23  C   UNL     1     -10.869  11.271  63.027  0.00  0.00    +0.061 A 
ATOM     24  C   UNL     1     -10.061  10.511  63.842  0.00  0.00    +0.170 A 
ATOM     25  F   UNL     1      -9.316   9.471  63.382  0.00  0.00    -0.202 F 
ATOM     26  C   UNL     1      -9.869  10.860  65.170  0.00  0.00    +0.167 A 
ATOM     27  F   UNL     1      -9.628   9.864  66.061  0.00  0.00    -0.202 F 
ATOM     28  C   UNL     1     -10.149  12.159  65.569  0.00  0.00    +0.030 A 
ENDBRANCH  19  20
ENDBRANCH  18  19
ENDBRANCH  16  18
ENDBRANCH   1  16
TORSDOF 5
ENDMDL
MODEL 8
REMARK VINA RESULT:      -6.8      3.017      6.343
REMARK  Name = 
REMARK  5 active torsions:
REMARK  status: ('A' for Active; 'I' for Inactive)
REMARK    1  A    between atoms: C_2  and  C_3
REMARK    2  A    between atoms: C_2  and  C_19
REMARK    3  A    between atoms: C_3  and  C_4
REMARK    4  A    between atoms: C_13  and  C_14
REMARK    5  A    between atoms: C_19  and  C_20
REMARK                            x       y       z     vdW  Elec       q    Type
REMARK                         _______ _______ _______ _____ _____    ______ ____
ROOT
ATOM      1  C   UNL     1     -10.434  14.818  66.482  0.00  0.00    +0.227 C 
ATOM      2  N   UNL     1     -10.333  13.395  66.621  0.00  0.00    -0.270 N 
ATOM      3  C   UNL     1      -8.984  12.899  66.788  0.00  0.00    +0.160 C 
ATOM      4  C   UNL     1      -9.030  11.873  67.865  0.00  0.00    +0.164 A 
ATOM      5  N   UNL     1      -8.104  11.470  68.740  0.00  0.00    -0.132 NA
ATOM      6  N   UNL     1      -8.292  10.168  68.951  0.00  0.00    -0.125 NA
ATOM      7  C   UNL     1      -9.547   9.871  68.532  0.00  0.00    +0.238 A 
ATOM      8  N   UNL     1     -10.014  10.973  67.942  0.00  0.00    -0.292 N 
ATOM      9  C   UNL     1     -11.308  11.262  67.389  0.00  0.00    +0.130 C 
ATOM     10  C   UNL     1     -11.516  12.710  67.065  0.00  0.00    +0.118 C 
ATOM     11  O   UNL     1     -10.597  15.274  65.327  0.00  0.00    -0.275 OA
ENDROOT
BRANCH   7  12
ATOM     12  C   UNL     1     -10.012   8.470  68.464  0.00  0.00    +0.452 C 
ATOM     13  F   UNL     1     -11.080   8.364  69.350  0.00  0.00    -0.163 F 
ATOM     14  F   UNL     1      -9.051   7.550  68.771  0.00  0.00    -0.163 F 
ATOM     15  F   UNL     1     -10.459   8.211  67.173  0.00  0.00    -0.163 F 
ENDBRANCH   7  12
BRANCH   1  16
ATOM     16  C   UNL     1      -9.920  15.619  67.619  0.00  0.00    +0.105 C 
BRANCH  16  18
ATOM     17  N   UNL     1     -10.800  17.708  68.150  0.00  0.00    -0.132 NA
ATOM     18  C   UNL     1     -11.342  16.214  68.240  0.00  0.00    +0.105 C 
BRANCH  18  19
ATOM     19  C   UNL     1     -10.793  16.025  69.794  0.00  0.00    +0.048 C 
BRANCH  19  20
ATOM     20  C   UNL     1     -11.851  15.282  70.503  0.00  0.00    +0.009 A 
ATOM     21  C   UNL     1     -12.299  15.856  71.688  0.00  0.00    +0.139 A 
ATOM     22  F   UNL     1     -11.615  16.892  72.256  0.00  0.00    -0.204 F 
ATOM     23  C   UNL     1     -13.244  15.210  72.447  0.00  0.00    +0.061 A 
ATOM     24  C   UNL     1     -13.556  13.907  72.126  0.00  0.00    +0.170 A 
ATOM     25  F   UNL     1     -14.673  13.281  72.583  0.00  0.00    -0.202 F 
ATOM     26  C   UNL     1     -12.798  13.207  71.201  0.00  0.00    +0.167 A 
ATOM     27  F   UNL     1     -12.704  11.859  71.345  0.00  0.00    -0.202 F 
ATOM     28  C   UNL     1     -11.994  13.915  70.319  0.00  0.00    +0.030 A 
ENDBRANCH  19  20
ENDBRANCH  18  19
ENDBRANCH  16  18
ENDBRANCH   1  16
TORSDOF 5
ENDMDL
MODEL 9
REMARK VINA RESULT:      -6.7      2.456      7.561
REMARK  Name = 
REMARK  5 active torsions:
REMARK  status: ('A' for Active; 'I' for Inactive)
REMARK    1  A    between atoms: C_2  and  C_3
REMARK    2  A    between atoms: C_2  and  C_19
REMARK    3  A    between atoms: C_3  and  C_4
REMARK    4  A    between atoms: C_13  and  C_14
REMARK    5  A    between atoms: C_19  and  C_20
REMARK                            x       y       z     vdW  Elec       q    Type
REMARK                         _______ _______ _______ _____ _____    ______ ____
ROOT
ATOM      1  C   UNL     1      -9.892  13.779  66.974  0.00  0.00    +0.227 C 
ATOM      2  N   UNL     1     -10.736  12.924  67.758  0.00  0.00    -0.270 N 
ATOM      3  C   UNL     1     -10.378  11.523  67.720  0.00  0.00    +0.160 C 
ATOM      4  C   UNL     1     -10.468  11.015  69.116  0.00  0.00    +0.164 A 
ATOM      5  N   UNL     1      -9.821  10.025  69.739  0.00  0.00    -0.132 NA
ATOM      6  N   UNL     1     -10.668   9.479  70.610  0.00  0.00    -0.125 NA
ATOM      7  C   UNL     1     -11.671  10.371  70.806  0.00  0.00    +0.238 A 
ATOM      8  N   UNL     1     -11.472  11.355  69.927  0.00  0.00    -0.292 N 
ATOM      9  C   UNL     1     -12.172  12.595  69.738  0.00  0.00    +0.130 C 
ATOM     10  C   UNL     1     -11.468  13.551  68.824  0.00  0.00    +0.118 C 
ATOM     11  O   UNL     1     -10.328  14.153  65.861  0.00  0.00    -0.275 OA
ENDROOT
BRANCH   7  12
ATOM     12  C   UNL     1     -12.870  10.002  71.586  0.00  0.00    +0.452 C 
ATOM     13  F   UNL     1     -13.251  11.142  72.289  0.00  0.00    -0.163 F 
ATOM     14  F   UNL     1     -12.676   8.961  72.448  0.00  0.00    -0.163 F 
ATOM     15  F   UNL     1     -13.884   9.646  70.704  0.00  0.00    -0.163 F 
ENDBRANCH   7  12
BRANCH   1  16
ATOM     16  C   UNL     1      -8.457  13.790  67.343  0.00  0.00    +0.105 C 
BRANCH  16  18
ATOM     17  N   UNL     1      -6.527  15.091  67.331  0.00  0.00    -0.132 NA
ATOM     18  C   UNL     1      -8.034  15.327  66.875  0.00  0.00    +0.105 C 
BRANCH  18  19
ATOM     19  C   UNL     1      -8.467  15.942  68.354  0.00  0.00    +0.048 C 
BRANCH  19  20
ATOM     20  C   UNL     1      -8.804  17.357  68.114  0.00  0.00    +0.009 A 
ATOM     21  C   UNL     1     -10.154  17.629  67.916  0.00  0.00    +0.139 A 
ATOM     22  F   UNL     1     -11.042  16.613  67.712  0.00  0.00    -0.204 F 
ATOM     23  C   UNL     1     -10.559  18.911  67.631  0.00  0.00    +0.061 A 
ATOM     24  C   UNL     1      -9.594  19.845  67.328  0.00  0.00    +0.170 A 
ATOM     25  F   UNL     1      -9.831  21.184  67.343  0.00  0.00    -0.202 F 
ATOM     26  C   UNL     1      -8.279  19.460  67.118  0.00  0.00    +0.167 A 
ATOM     27  F   UNL     1      -7.526  20.204  66.266  0.00  0.00    -0.202 F 
ATOM     28  C   UNL     1      -7.857  18.227  67.594  0.00  0.00    +0.030 A 
ENDBRANCH  19  20
ENDBRANCH  18  19
ENDBRANCH  16  18
ENDBRANCH   1  16
TORSDOF 5
ENDMDL
