MODEL 1
REMARK VINA RESULT:      -7.6      0.000      0.000
REMARK  Name = 
REMARK  15 active torsions:
REMARK  status: ('A' for Active; 'I' for Inactive)
REMARK    1  A    between atoms: N_2  and  C_3
REMARK    2  A    between atoms: C_3  and  C_4
REMARK    3  A    between atoms: C_4  and  O_6
REMARK    4  A    between atoms: O_6  and  C_7
REMARK    5  A    between atoms: C_7  and  C_8
REMARK    6  A    between atoms: C_16  and  O_18
REMARK    7  A    between atoms: O_18  and  C_19
REMARK    8  A    between atoms: C_19  and  N_21
REMARK    9  A    between atoms: N_24  and  C_25
REMARK   10  A    between atoms: C_25  and  C_26
REMARK   11  A    between atoms: C_26  and  C_28
REMARK   12  A    between atoms: C_26  and  C_36
REMARK   13  A    between atoms: C_36  and  C_38
REMARK   14  A    between atoms: C_40  and  C_41
REMARK   15  A    between atoms: C_44  and  C_45
REMARK                            x       y       z     vdW  Elec       q    Type
REMARK                         _______ _______ _______ _____ _____    ______ ____
ROOT
ATOM      1  C   UNL     1     -10.036  14.036  68.111  0.00  0.00    +0.169 C 
ENDROOT
BRANCH   1   4
ATOM      2  N   UNL     1      -9.377  17.402  67.566  0.00  0.00    -0.091 N 
ATOM      3  C   UNL     1      -9.356  16.218  66.997  0.00  0.00    +0.402 A 
ATOM      4  N   UNL     1      -9.538  15.367  68.040  0.00  0.00    -0.181 N 
ATOM      5  N   UNL     1      -8.930  15.949  69.077  0.00  0.00    -0.092 NA
ATOM      6  C   UNL     1      -8.645  17.221  68.700  0.00  0.00    +0.423 A 
BRANCH   2   7
ATOM      7  C   UNL     1      -9.049  18.766  66.770  0.00  0.00    +0.437 C 
ATOM      8  C   UNL     1     -10.531  19.472  67.190  0.00  0.00    +0.141 C 
BRANCH   7   9
ATOM      9  O   UNL     1      -8.322  19.446  68.005  0.00  0.00    -0.375 OA
BRANCH   9  13
ATOM     10  C   UNL     1      -4.698  18.688  69.790  0.00  0.00    +0.053 A 
ATOM     11  C   UNL     1      -5.031  19.702  68.898  0.00  0.00    +0.139 A 
ATOM     12  N   UNL     1      -5.836  19.457  67.736  0.00  0.00    -0.208 N 
ATOM     13  C   UNL     1      -7.123  20.014  67.558  0.00  0.00    +0.414 C 
ATOM     14  O   UNL     1      -7.179  21.214  67.150  0.00  0.00    -0.226 OA
ATOM     15  C   UNL     1      -5.365  18.362  66.891  0.00  0.00    +0.125 C 
ATOM     16  N   UNL     1      -5.065  20.963  69.385  0.00  0.00    -0.229 NA
ATOM     17  C   UNL     1      -4.894  21.242  70.694  0.00  0.00    +0.100 A 
ATOM     18  C   UNL     1      -4.843  20.216  71.610  0.00  0.00    +0.021 A 
ATOM     19  C   UNL     1      -4.779  18.901  71.163  0.00  0.00    +0.004 A 
BRANCH  10  20
ATOM     20  C   UNL     1      -5.093  17.315  69.342  0.00  0.00    +0.238 C 
BRANCH  20  21
ATOM     21  O   UNL     1      -5.674  16.553  70.356  0.00  0.00    -0.442 OA
BRANCH  21  22
ATOM     22  C   UNL     1      -5.215  15.328  70.804  0.00  0.00    +0.335 C 
ATOM     23  O   UNL     1      -4.115  15.343  71.392  0.00  0.00    -0.248 OA
BRANCH  22  24
ATOM     24  C   UNL     1      -5.929  14.085  70.439  0.00  0.00    +0.198 C 
BRANCH  24  26
ATOM     25  C   UNL     1      -6.228  13.738  68.181  0.00  0.00    +0.108 C 
ATOM     26  N   UNL     1      -5.419  13.589  69.177  0.00  0.00    -0.205 NA
ENDBRANCH  24  26
ENDBRANCH  22  24
ENDBRANCH  21  22
ENDBRANCH  20  21
ENDBRANCH  10  20
ENDBRANCH   9  13
ENDBRANCH   7   9
ENDBRANCH   2   7
ENDBRANCH   1   4
BRANCH   1  27
ATOM     27  C   UNL     1     -11.501  13.870  68.243  0.00  0.00    +0.176 C 
ATOM     28  O   UNL     1     -12.201  14.574  67.295  0.00  0.00    -0.219 OA
BRANCH  27  29
ATOM     29  C   UNL     1     -12.105  13.977  69.530  0.00  0.00    +0.037 A 
ATOM     30  C   UNL     1     -12.461  15.251  69.977  0.00  0.00    +0.139 A 
ATOM     31  F   UNL     1     -12.030  16.378  69.335  0.00  0.00    -0.204 F 
ATOM     32  C   UNL     1     -13.145  15.463  71.144  0.00  0.00    +0.032 A 
ATOM     33  C   UNL     1     -13.564  14.386  71.904  0.00  0.00    +0.032 A 
ATOM     34  C   UNL     1     -13.027  13.143  71.586  0.00  0.00    +0.140 A 
ATOM     35  F   UNL     1     -13.594  12.080  72.172  0.00  0.00    -0.204 F 
ATOM     36  C   UNL     1     -12.075  13.064  70.577  0.00  0.00    +0.030 A 
ENDBRANCH  27  29
BRANCH  27  37
ATOM     37  C   UNL     1     -11.652  12.325  67.665  0.00  0.00    +0.080 C 
ATOM     38  C   UNL     1     -11.903  12.858  66.111  0.00  0.00    +0.010 C 
BRANCH  37  39
ATOM     39  C   UNL     1     -10.048  12.147  67.420  0.00  0.00    +0.091 A 
ATOM     40  S   UNL     1      -9.107  11.030  68.318  0.00  0.00    -0.070 S 
ATOM     41  C   UNL     1      -8.094  10.531  67.022  0.00  0.00    +0.056 A 
ATOM     42  C   UNL     1      -8.882  10.924  65.941  0.00  0.00    +0.088 A 
ATOM     43  N   UNL     1      -9.554  12.036  66.201  0.00  0.00    -0.243 NA
BRANCH  42  44
ATOM     44  C   UNL     1      -8.795  10.322  64.593  0.00  0.00    +0.018 A 
ATOM     45  C   UNL     1      -9.492  10.869  63.523  0.00  0.00    +0.002 A 
ATOM     46  C   UNL     1      -8.933  10.857  62.246  0.00  0.00    +0.010 A 
ATOM     47  C   UNL     1      -7.566  10.671  62.077  0.00  0.00    +0.068 A 
ATOM     48  C   UNL     1      -6.961   9.885  63.053  0.00  0.00    +0.010 A 
ATOM     49  C   UNL     1      -7.644   9.624  64.236  0.00  0.00    +0.002 A 
BRANCH  47  50
ATOM     50  C   UNL     1      -6.775  11.517  61.216  0.00  0.00    +0.100 C 
ATOM     51  N   UNL     1      -6.220  12.297  60.549  0.00  0.00    -0.191 NA
ENDBRANCH  47  50
ENDBRANCH  42  44
ENDBRANCH  37  39
ENDBRANCH  27  37
ENDBRANCH   1  27
TORSDOF 15
ENDMDL
MODEL 2
REMARK VINA RESULT:      -7.3      1.650      3.800
REMARK  Name = 
REMARK  15 active torsions:
REMARK  status: ('A' for Active; 'I' for Inactive)
REMARK    1  A    between atoms: N_2  and  C_3
REMARK    2  A    between atoms: C_3  and  C_4
REMARK    3  A    between atoms: C_4  and  O_6
REMARK    4  A    between atoms: O_6  and  C_7
REMARK    5  A    between atoms: C_7  and  C_8
REMARK    6  A    between atoms: C_16  and  O_18
REMARK    7  A    between atoms: O_18  and  C_19
REMARK    8  A    between atoms: C_19  and  N_21
REMARK    9  A    between atoms: N_24  and  C_25
REMARK   10  A    between atoms: C_25  and  C_26
REMARK   11  A    between atoms: C_26  and  C_28
REMARK   12  A    between atoms: C_26  and  C_36
REMARK   13  A    between atoms: C_36  and  C_38
REMARK   14  A    between atoms: C_40  and  C_41
REMARK   15  A    between atoms: C_44  and  C_45
REMARK                            x       y       z     vdW  Elec       q    Type
REMARK                         _______ _______ _______ _____ _____    ______ ____
ROOT
ATOM      1  C   UNL     1      -9.867  13.846  68.628  0.00  0.00    +0.169 C 
ENDROOT
BRANCH   1   4
ATOM      2  N   UNL     1      -7.125  15.957  68.926  0.00  0.00    -0.091 N 
ATOM      3  C   UNL     1      -8.322  15.710  69.407  0.00  0.00    +0.402 A 
ATOM      4  N   UNL     1      -8.840  14.825  68.515  0.00  0.00    -0.181 N 
ATOM      5  N   UNL     1      -8.330  15.180  67.333  0.00  0.00    -0.092 NA
ATOM      6  C   UNL     1      -7.339  16.072  67.586  0.00  0.00    +0.423 A 
BRANCH   2   7
ATOM      7  C   UNL     1      -6.142  17.078  69.544  0.00  0.00    +0.437 C 
ATOM      8  C   UNL     1      -5.184  15.928  70.338  0.00  0.00    +0.141 C 
BRANCH   7   9
ATOM      9  O   UNL     1      -5.174  17.085  68.288  0.00  0.00    -0.375 OA
BRANCH   9  13
ATOM     10  C   UNL     1      -5.999  20.037  65.547  0.00  0.00    +0.053 A 
ATOM     11  C   UNL     1      -4.887  19.904  66.372  0.00  0.00    +0.139 A 
ATOM     12  N   UNL     1      -5.004  19.522  67.750  0.00  0.00    -0.208 N 
ATOM     13  C   UNL     1      -4.491  18.307  68.260  0.00  0.00    +0.414 C 
ATOM     14  O   UNL     1      -3.250  18.271  68.520  0.00  0.00    -0.226 OA
ATOM     15  C   UNL     1      -5.945  20.328  68.525  0.00  0.00    +0.125 C 
ATOM     16  N   UNL     1      -3.710  19.607  65.775  0.00  0.00    -0.229 NA
ATOM     17  C   UNL     1      -3.610  19.340  64.456  0.00  0.00    +0.100 A 
ATOM     18  C   UNL     1      -4.751  19.199  63.700  0.00  0.00    +0.021 A 
ATOM     19  C   UNL     1      -5.986  19.517  64.256  0.00  0.00    +0.004 A 
BRANCH  10  20
ATOM     20  C   UNL     1      -7.312  19.925  66.257  0.00  0.00    +0.238 C 
BRANCH  20  21
ATOM     21  O   UNL     1      -8.135  18.927  65.734  0.00  0.00    -0.442 OA
BRANCH  21  22
ATOM     22  C   UNL     1      -9.457  18.711  66.081  0.00  0.00    +0.335 C 
ATOM     23  O   UNL     1      -9.937  17.615  65.729  0.00  0.00    -0.248 OA
BRANCH  22  24
ATOM     24  C   UNL     1     -10.258  19.801  66.678  0.00  0.00    +0.198 C 
BRANCH  24  26
ATOM     25  C   UNL     1      -9.664  19.342  68.856  0.00  0.00    +0.108 C 
ATOM     26  N   UNL     1     -10.648  19.431  68.023  0.00  0.00    -0.205 NA
ENDBRANCH  24  26
ENDBRANCH  22  24
ENDBRANCH  21  22
ENDBRANCH  20  21
ENDBRANCH  10  20
ENDBRANCH   9  13
ENDBRANCH   7   9
ENDBRANCH   2   7
ENDBRANCH   1   4
BRANCH   1  27
ATOM     27  C   UNL     1     -11.260  14.337  68.706  0.00  0.00    +0.176 C 
ATOM     28  O   UNL     1     -11.474  15.451  67.933  0.00  0.00    -0.219 OA
BRANCH  27  29
ATOM     29  C   UNL     1     -11.893  14.451  69.978  0.00  0.00    +0.037 A 
ATOM     30  C   UNL     1     -11.885  15.701  70.599  0.00  0.00    +0.139 A 
ATOM     31  F   UNL     1     -11.094  16.718  70.143  0.00  0.00    -0.204 F 
ATOM     32  C   UNL     1     -12.554  15.953  71.767  0.00  0.00    +0.032 A 
ATOM     33  C   UNL     1     -13.326  14.964  72.348  0.00  0.00    +0.032 A 
ATOM     34  C   UNL     1     -13.162  13.671  71.864  0.00  0.00    +0.140 A 
ATOM     35  F   UNL     1     -14.059  12.762  72.272  0.00  0.00    -0.204 F 
ATOM     36  C   UNL     1     -12.209  13.441  70.879  0.00  0.00    +0.030 A 
ENDBRANCH  27  29
BRANCH  27  37
ATOM     37  C   UNL     1     -12.009  13.173  67.795  0.00  0.00    +0.080 C 
ATOM     38  C   UNL     1     -11.560  13.904  66.370  0.00  0.00    +0.010 C 
BRANCH  37  39
ATOM     39  C   UNL     1     -10.704  12.193  67.784  0.00  0.00    +0.091 A 
ATOM     40  S   UNL     1     -10.672  10.709  68.643  0.00  0.00    -0.070 S 
ATOM     41  C   UNL     1      -9.798   9.813  67.464  0.00  0.00    +0.056 A 
ATOM     42  C   UNL     1     -10.028  10.609  66.343  0.00  0.00    +0.088 A 
ATOM     43  N   UNL     1     -10.085  11.895  66.657  0.00  0.00    -0.243 NA
BRANCH  42  44
ATOM     44  C   UNL     1      -9.970  10.112  64.951  0.00  0.00    +0.018 A 
ATOM     45  C   UNL     1     -10.495  10.863  63.906  0.00  0.00    +0.002 A 
ATOM     46  C   UNL     1      -9.873  10.853  62.659  0.00  0.00    +0.010 A 
ATOM     47  C   UNL     1      -8.553  10.435  62.532  0.00  0.00    +0.068 A 
ATOM     48  C   UNL     1      -8.156   9.475  63.458  0.00  0.00    +0.010 A 
ATOM     49  C   UNL     1      -8.943   9.248  64.582  0.00  0.00    +0.002 A 
BRANCH  47  50
ATOM     50  C   UNL     1      -7.575  11.190  61.787  0.00  0.00    +0.100 C 
ATOM     51  N   UNL     1      -6.835  11.747  61.077  0.00  0.00    -0.191 NA
ENDBRANCH  47  50
ENDBRANCH  42  44
ENDBRANCH  37  39
ENDBRANCH  27  37
ENDBRANCH   1  27
TORSDOF 15
ENDMDL
MODEL 3
REMARK VINA RESULT:      -7.1      4.415      9.536
REMARK  Name = 
REMARK  15 active torsions:
REMARK  status: ('A' for Active; 'I' for Inactive)
REMARK    1  A    between atoms: N_2  and  C_3
REMARK    2  A    between atoms: C_3  and  C_4
REMARK    3  A    between atoms: C_4  and  O_6
REMARK    4  A    between atoms: O_6  and  C_7
REMARK    5  A    between atoms: C_7  and  C_8
REMARK    6  A    between atoms: C_16  and  O_18
REMARK    7  A    between atoms: O_18  and  C_19
REMARK    8  A    between atoms: C_19  and  N_21
REMARK    9  A    between atoms: N_24  and  C_25
REMARK   10  A    between atoms: C_25  and  C_26
REMARK   11  A    between atoms: C_26  and  C_28
REMARK   12  A    between atoms: C_26  and  C_36
REMARK   13  A    between atoms: C_36  and  C_38
REMARK   14  A    between atoms: C_40  and  C_41
REMARK   15  A    between atoms: C_44  and  C_45
REMARK                            x       y       z     vdW  Elec       q    Type
REMARK                         _______ _______ _______ _____ _____    ______ ____
ROOT
ATOM      1  C   UNL     1     -11.601  12.372  67.771  0.00  0.00    +0.169 C 
ENDROOT
BRANCH   1   4
ATOM      2  N   UNL     1     -10.095   9.244  67.681  0.00  0.00    -0.091 N 
ATOM      3  C   UNL     1     -11.257   9.856  67.647  0.00  0.00    +0.402 A 
ATOM      4  N   UNL     1     -10.950  11.130  68.008  0.00  0.00    -0.181 N 
ATOM      5  N   UNL     1      -9.946  11.014  68.881  0.00  0.00    -0.092 NA
ATOM      6  C   UNL     1      -9.514   9.729  68.813  0.00  0.00    +0.423 A 
BRANCH   2   7
ATOM      7  C   UNL     1      -9.933   7.652  67.476  0.00  0.00    +0.437 C 
ATOM      8  C   UNL     1      -8.966   7.838  66.098  0.00  0.00    +0.141 C 
BRANCH   7   9
ATOM      9  O   UNL     1      -8.658   7.546  68.414  0.00  0.00    -0.375 OA
BRANCH   9  13
ATOM     10  C   UNL     1     -10.061   7.412  72.275  0.00  0.00    +0.053 A 
ATOM     11  C   UNL     1      -9.343   6.446  71.579  0.00  0.00    +0.139 A 
ATOM     12  N   UNL     1      -9.640   6.115  70.215  0.00  0.00    -0.208 N 
ATOM     13  C   UNL     1      -8.743   6.358  69.148  0.00  0.00    +0.414 C 
ATOM     14  O   UNL     1      -7.807   5.517  68.983  0.00  0.00    -0.226 OA
ATOM     15  C   UNL     1     -11.042   5.790  69.960  0.00  0.00    +0.125 C 
ATOM     16  N   UNL     1      -8.072   6.216  71.978  0.00  0.00    -0.229 NA
ATOM     17  C   UNL     1      -7.466   6.950  72.935  0.00  0.00    +0.100 A 
ATOM     18  C   UNL     1      -8.084   8.080  73.421  0.00  0.00    +0.021 A 
ATOM     19  C   UNL     1      -9.401   8.349  73.064  0.00  0.00    +0.004 A 
BRANCH  10  20
ATOM     20  C   UNL     1     -11.261   7.935  71.549  0.00  0.00    +0.238 C 
BRANCH  20  21
ATOM     21  O   UNL     1     -11.487   9.294  71.771  0.00  0.00    -0.442 OA
BRANCH  21  22
ATOM     22  C   UNL     1     -12.709   9.934  71.663  0.00  0.00    +0.335 C 
ATOM     23  O   UNL     1     -13.714   9.216  71.841  0.00  0.00    -0.248 OA
BRANCH  22  24
ATOM     24  C   UNL     1     -12.778  11.336  71.198  0.00  0.00    +0.198 C 
BRANCH  24  26
ATOM     25  C   UNL     1     -13.341  13.391  72.076  0.00  0.00    +0.108 C 
ATOM     26  N   UNL     1     -13.556  12.117  72.138  0.00  0.00    -0.205 NA
ENDBRANCH  24  26
ENDBRANCH  22  24
ENDBRANCH  21  22
ENDBRANCH  20  21
ENDBRANCH  10  20
ENDBRANCH   9  13
ENDBRANCH   7   9
ENDBRANCH   2   7
ENDBRANCH   1   4
BRANCH   1  27
ATOM     27  C   UNL     1     -11.250  13.091  66.527  0.00  0.00    +0.176 C 
ATOM     28  O   UNL     1     -12.122  14.112  66.240  0.00  0.00    -0.219 OA
BRANCH  27  29
ATOM     29  C   UNL     1     -10.910  12.347  65.360  0.00  0.00    +0.037 A 
ATOM     30  C   UNL     1     -11.909  12.138  64.407  0.00  0.00    +0.139 A 
ATOM     31  F   UNL     1     -13.220  12.409  64.679  0.00  0.00    -0.204 F 
ATOM     32  C   UNL     1     -11.670  11.535  63.202  0.00  0.00    +0.032 A 
ATOM     33  C   UNL     1     -10.383  11.157  62.862  0.00  0.00    +0.032 A 
ATOM     34  C   UNL     1      -9.437  11.157  63.880  0.00  0.00    +0.140 A 
ATOM     35  F   UNL     1      -8.158  11.006  63.507  0.00  0.00    -0.204 F 
ATOM     36  C   UNL     1      -9.841  11.479  65.169  0.00  0.00    +0.030 A 
ENDBRANCH  27  29
BRANCH  27  37
ATOM     37  C   UNL     1      -9.936  13.943  67.067  0.00  0.00    +0.080 C 
ATOM     38  C   UNL     1      -9.973  14.964  65.756  0.00  0.00    +0.010 C 
BRANCH  37  39
ATOM     39  C   UNL     1     -10.836  14.960  67.973  0.00  0.00    +0.091 A 
ATOM     40  S   UNL     1     -10.778  14.947  69.687  0.00  0.00    -0.070 S 
ATOM     41  C   UNL     1     -10.893  16.648  69.906  0.00  0.00    +0.056 A 
ATOM     42  C   UNL     1     -10.494  17.076  68.640  0.00  0.00    +0.088 A 
ATOM     43  N   UNL     1     -10.900  16.247  67.690  0.00  0.00    -0.243 NA
BRANCH  42  44
ATOM     44  C   UNL     1      -9.909  18.407  68.365  0.00  0.00    +0.018 A 
ATOM     45  C   UNL     1      -8.598  18.695  68.723  0.00  0.00    +0.002 A 
ATOM     46  C   UNL     1      -7.820  19.521  67.914  0.00  0.00    +0.010 A 
ATOM     47  C   UNL     1      -8.175  19.748  66.589  0.00  0.00    +0.068 A 
ATOM     48  C   UNL     1      -9.542  19.704  66.338  0.00  0.00    +0.010 A 
ATOM     49  C   UNL     1     -10.391  19.149  67.289  0.00  0.00    +0.002 A 
BRANCH  47  50
ATOM     50  C   UNL     1      -7.222  19.646  65.509  0.00  0.00    +0.100 C 
ATOM     51  N   UNL     1      -6.446  19.436  64.664  0.00  0.00    -0.191 NA
ENDBRANCH  47  50
ENDBRANCH  42  44
ENDBRANCH  37  39
ENDBRANCH  27  37
ENDBRANCH   1  27
TORSDOF 15
ENDMDL
MODEL 4
REMARK VINA RESULT:      -7.1      4.068      9.433
REMARK  Name = 
REMARK  15 active torsions:
REMARK  status: ('A' for Active; 'I' for Inactive)
REMARK    1  A    between atoms: N_2  and  C_3
REMARK    2  A    between atoms: C_3  and  C_4
REMARK    3  A    between atoms: C_4  and  O_6
REMARK    4  A    between atoms: O_6  and  C_7
REMARK    5  A    between atoms: C_7  and  C_8
REMARK    6  A    between atoms: C_16  and  O_18
REMARK    7  A    between atoms: O_18  and  C_19
REMARK    8  A    between atoms: C_19  and  N_21
REMARK    9  A    between atoms: N_24  and  C_25
REMARK   10  A    between atoms: C_25  and  C_26
REMARK   11  A    between atoms: C_26  and  C_28
REMARK   12  A    between atoms: C_26  and  C_36
REMARK   13  A    between atoms: C_36  and  C_38
REMARK   14  A    between atoms: C_40  and  C_41
REMARK   15  A    between atoms: C_44  and  C_45
REMARK                            x       y       z     vdW  Elec       q    Type
REMARK                         _______ _______ _______ _____ _____    ______ ____
ROOT
ATOM      1  C   UNL     1     -11.869  13.733  67.777  0.00  0.00    +0.169 C 
ENDROOT
BRANCH   1   4
ATOM      2  N   UNL     1      -9.828  10.947  67.408  0.00  0.00    -0.091 N 
ATOM      3  C   UNL     1     -10.064  12.150  66.937  0.00  0.00    +0.402 A 
ATOM      4  N   UNL     1     -11.255  12.479  67.503  0.00  0.00    -0.181 N 
ATOM      5  N   UNL     1     -11.929  11.329  67.593  0.00  0.00    -0.092 NA
ATOM      6  C   UNL     1     -11.042  10.334  67.336  0.00  0.00    +0.423 A 
BRANCH   2   7
ATOM      7  C   UNL     1      -8.590  10.037  66.914  0.00  0.00    +0.437 C 
ATOM      8  C   UNL     1      -7.489  10.826  67.932  0.00  0.00    +0.141 C 
BRANCH   7   9
ATOM      9  O   UNL     1      -8.846   8.903  67.993  0.00  0.00    -0.375 OA
BRANCH   9  13
ATOM     10  C   UNL     1     -10.189   5.435  69.744  0.00  0.00    +0.053 A 
ATOM     11  C   UNL     1      -9.374   5.584  68.627  0.00  0.00    +0.139 A 
ATOM     12  N   UNL     1      -9.645   6.563  67.615  0.00  0.00    -0.208 N 
ATOM     13  C   UNL     1      -8.791   7.660  67.353  0.00  0.00    +0.414 C 
ATOM     14  O   UNL     1      -7.768   7.433  66.637  0.00  0.00    -0.226 OA
ATOM     15  C   UNL     1     -11.004   6.522  67.078  0.00  0.00    +0.125 C 
ATOM     16  N   UNL     1      -8.082   5.208  68.754  0.00  0.00    -0.229 NA
ATOM     17  C   UNL     1      -7.553   4.805  69.928  0.00  0.00    +0.100 A 
ATOM     18  C   UNL     1      -8.289   4.926  71.085  0.00  0.00    +0.021 A 
ATOM     19  C   UNL     1      -9.631   5.283  71.010  0.00  0.00    +0.004 A 
BRANCH  10  20
ATOM     20  C   UNL     1     -11.447   6.246  69.706  0.00  0.00    +0.238 C 
BRANCH  20  21
ATOM     21  O   UNL     1     -11.693   6.934  70.894  0.00  0.00    -0.442 OA
BRANCH  21  22
ATOM     22  C   UNL     1     -11.806   8.306  71.021  0.00  0.00    +0.335 C 
ATOM     23  O   UNL     1     -10.797   8.965  70.696  0.00  0.00    -0.248 OA
BRANCH  22  24
ATOM     24  C   UNL     1     -12.999   8.901  71.662  0.00  0.00    +0.198 C 
BRANCH  24  26
ATOM     25  C   UNL     1     -15.025   7.912  72.136  0.00  0.00    +0.108 C 
ATOM     26  N   UNL     1     -14.187   8.215  71.200  0.00  0.00    -0.205 NA
ENDBRANCH  24  26
ENDBRANCH  22  24
ENDBRANCH  21  22
ENDBRANCH  20  21
ENDBRANCH  10  20
ENDBRANCH   9  13
ENDBRANCH   7   9
ENDBRANCH   2   7
ENDBRANCH   1   4
BRANCH   1  27
ATOM     27  C   UNL     1     -11.521  14.387  69.058  0.00  0.00    +0.176 C 
ATOM     28  O   UNL     1     -10.211  14.185  69.418  0.00  0.00    -0.219 OA
BRANCH  27  29
ATOM     29  C   UNL     1     -12.398  14.256  70.173  0.00  0.00    +0.037 A 
ATOM     30  C   UNL     1     -12.401  13.039  70.858  0.00  0.00    +0.139 A 
ATOM     31  F   UNL     1     -11.786  11.932  70.347  0.00  0.00    -0.204 F 
ATOM     32  C   UNL     1     -13.120  12.837  72.006  0.00  0.00    +0.032 A 
ATOM     33  C   UNL     1     -13.836  13.880  72.565  0.00  0.00    +0.032 A 
ATOM     34  C   UNL     1     -14.016  15.013  71.780  0.00  0.00    +0.140 A 
ATOM     35  F   UNL     1     -14.514  16.094  72.397  0.00  0.00    -0.204 F 
ATOM     36  C   UNL     1     -13.522  15.013  70.482  0.00  0.00    +0.030 A 
ENDBRANCH  27  29
BRANCH  27  37
ATOM     37  C   UNL     1     -11.469  15.963  68.551  0.00  0.00    +0.080 C 
ATOM     38  C   UNL     1     -10.780  16.470  69.977  0.00  0.00    +0.010 C 
BRANCH  37  39
ATOM     39  C   UNL     1     -10.015  15.793  67.828  0.00  0.00    +0.091 A 
ATOM     40  S   UNL     1      -9.842  15.779  66.122  0.00  0.00    -0.070 S 
ATOM     41  C   UNL     1      -8.370  16.666  66.062  0.00  0.00    +0.056 A 
ATOM     42  C   UNL     1      -8.412  17.279  67.313  0.00  0.00    +0.088 A 
ATOM     43  N   UNL     1      -8.971  16.497  68.225  0.00  0.00    -0.243 NA
BRANCH  42  44
ATOM     44  C   UNL     1      -7.704  18.536  67.642  0.00  0.00    +0.018 A 
ATOM     45  C   UNL     1      -7.798  19.093  68.911  0.00  0.00    +0.002 A 
ATOM     46  C   UNL     1      -6.699  19.742  69.471  0.00  0.00    +0.010 A 
ATOM     47  C   UNL     1      -5.419  19.518  68.974  0.00  0.00    +0.068 A 
ATOM     48  C   UNL     1      -5.367  19.215  67.618  0.00  0.00    +0.010 A 
ATOM     49  C   UNL     1      -6.535  18.854  66.956  0.00  0.00    +0.002 A 
BRANCH  47  50
ATOM     50  C   UNL     1      -4.298  19.233  69.838  0.00  0.00    +0.100 C 
ATOM     51  N   UNL     1      -3.480  18.961  70.624  0.00  0.00    -0.191 NA
ENDBRANCH  47  50
ENDBRANCH  42  44
ENDBRANCH  37  39
ENDBRANCH  27  37
ENDBRANCH   1  27
TORSDOF 15
ENDMDL
MODEL 5
REMARK VINA RESULT:      -7.1      1.971      3.121
REMARK  Name = 
REMARK  15 active torsions:
REMARK  status: ('A' for Active; 'I' for Inactive)
REMARK    1  A    between atoms: N_2  and  C_3
REMARK    2  A    between atoms: C_3  and  C_4
REMARK    3  A    between atoms: C_4  and  O_6
REMARK    4  A    between atoms: O_6  and  C_7
REMARK    5  A    between atoms: C_7  and  C_8
REMARK    6  A    between atoms: C_16  and  O_18
REMARK    7  A    between atoms: O_18  and  C_19
REMARK    8  A    between atoms: C_19  and  N_21
REMARK    9  A    between atoms: N_24  and  C_25
REMARK   10  A    between atoms: C_25  and  C_26
REMARK   11  A    between atoms: C_26  and  C_28
REMARK   12  A    between atoms: C_26  and  C_36
REMARK   13  A    between atoms: C_36  and  C_38
REMARK   14  A    between atoms: C_40  and  C_41
REMARK   15  A    between atoms: C_44  and  C_45
REMARK                            x       y       z     vdW  Elec       q    Type
REMARK                         _______ _______ _______ _____ _____    ______ ____
ROOT
ATOM      1  C   UNL     1      -9.949  13.952  68.595  0.00  0.00    +0.169 C 
ENDROOT
BRANCH   1   4
ATOM      2  N   UNL     1      -7.998  16.686  67.714  0.00  0.00    -0.091 N 
ATOM      3  C   UNL     1      -8.405  15.506  67.305  0.00  0.00    +0.402 A 
ATOM      4  N   UNL     1      -8.969  14.967  68.418  0.00  0.00    -0.181 N 
ATOM      5  N   UNL     1      -8.247  15.438  69.439  0.00  0.00    -0.092 NA
ATOM      6  C   UNL     1      -7.467  16.431  68.941  0.00  0.00    +0.423 A 
BRANCH   2   7
ATOM      7  C   UNL     1      -7.115  17.678  66.797  0.00  0.00    +0.437 C 
ATOM      8  C   UNL     1      -7.915  19.059  67.366  0.00  0.00    +0.141 C 
BRANCH   7   9
ATOM      9  O   UNL     1      -5.967  17.840  67.879  0.00  0.00    -0.375 OA
BRANCH   9  13
ATOM     10  C   UNL     1      -3.023  20.608  67.121  0.00  0.00    +0.053 A 
ATOM     11  C   UNL     1      -3.153  19.318  66.616  0.00  0.00    +0.139 A 
ATOM     12  N   UNL     1      -3.531  18.212  67.447  0.00  0.00    -0.208 N 
ATOM     13  C   UNL     1      -4.745  17.504  67.284  0.00  0.00    +0.414 C 
ATOM     14  O   UNL     1      -4.779  16.625  66.370  0.00  0.00    -0.226 OA
ATOM     15  C   UNL     1      -2.724  18.056  68.655  0.00  0.00    +0.125 C 
ATOM     16  N   UNL     1      -3.451  19.199  65.303  0.00  0.00    -0.229 NA
ATOM     17  C   UNL     1      -3.721  20.264  64.518  0.00  0.00    +0.100 A 
ATOM     18  C   UNL     1      -3.865  21.509  65.084  0.00  0.00    +0.021 A 
ATOM     19  C   UNL     1      -3.546  21.694  66.426  0.00  0.00    +0.004 A 
BRANCH  10  20
ATOM     20  C   UNL     1      -3.133  20.703  68.611  0.00  0.00    +0.238 C 
BRANCH  20  21
ATOM     21  O   UNL     1      -4.418  21.032  69.046  0.00  0.00    -0.442 OA
BRANCH  21  22
ATOM     22  C   UNL     1      -4.842  21.044  70.362  0.00  0.00    +0.335 C 
ATOM     23  O   UNL     1      -4.247  21.841  71.116  0.00  0.00    -0.248 OA
BRANCH  22  24
ATOM     24  C   UNL     1      -5.821  20.043  70.839  0.00  0.00    +0.198 C 
BRANCH  24  26
ATOM     25  C   UNL     1      -5.140  17.907  71.370  0.00  0.00    +0.108 C 
ATOM     26  N   UNL     1      -5.172  19.137  71.764  0.00  0.00    -0.205 NA
ENDBRANCH  24  26
ENDBRANCH  22  24
ENDBRANCH  21  22
ENDBRANCH  20  21
ENDBRANCH  10  20
ENDBRANCH   9  13
ENDBRANCH   7   9
ENDBRANCH   2   7
ENDBRANCH   1   4
BRANCH   1  27
ATOM     27  C   UNL     1     -11.356  14.390  68.731  0.00  0.00    +0.176 C 
ATOM     28  O   UNL     1     -11.653  15.471  67.939  0.00  0.00    -0.219 OA
BRANCH  27  29
ATOM     29  C   UNL     1     -11.928  14.517  70.030  0.00  0.00    +0.037 A 
ATOM     30  C   UNL     1     -11.791  15.743  70.684  0.00  0.00    +0.139 A 
ATOM     31  F   UNL     1     -10.936  16.704  70.223  0.00  0.00    -0.204 F 
ATOM     32  C   UNL     1     -12.391  16.015  71.884  0.00  0.00    +0.032 A 
ATOM     33  C   UNL     1     -13.221  15.076  72.469  0.00  0.00    +0.032 A 
ATOM     34  C   UNL     1     -13.185  13.789  71.944  0.00  0.00    +0.140 A 
ATOM     35  F   UNL     1     -14.139  12.946  72.364  0.00  0.00    -0.204 F 
ATOM     36  C   UNL     1     -12.293  13.511  70.916  0.00  0.00    +0.030 A 
ENDBRANCH  27  29
BRANCH  27  37
ATOM     37  C   UNL     1     -12.101  13.171  67.893  0.00  0.00    +0.080 C 
ATOM     38  C   UNL     1     -11.760  13.877  66.427  0.00  0.00    +0.010 C 
BRANCH  37  39
ATOM     39  C   UNL     1     -10.759  12.244  67.839  0.00  0.00    +0.091 A 
ATOM     40  S   UNL     1     -10.636  10.766  68.700  0.00  0.00    -0.070 S 
ATOM     41  C   UNL     1      -9.768   9.902  67.494  0.00  0.00    +0.056 A 
ATOM     42  C   UNL     1     -10.070  10.683  66.380  0.00  0.00    +0.088 A 
ATOM     43  N   UNL     1     -10.169  11.967  66.691  0.00  0.00    -0.243 NA
BRANCH  42  44
ATOM     44  C   UNL     1     -10.042  10.182  64.987  0.00  0.00    +0.018 A 
ATOM     45  C   UNL     1     -10.545  10.951  63.945  0.00  0.00    +0.002 A 
ATOM     46  C   UNL     1      -9.932  10.916  62.694  0.00  0.00    +0.010 A 
ATOM     47  C   UNL     1      -8.630  10.447  62.559  0.00  0.00    +0.068 A 
ATOM     48  C   UNL     1      -8.264   9.474  63.483  0.00  0.00    +0.010 A 
ATOM     49  C   UNL     1      -9.051   9.279  64.613  0.00  0.00    +0.002 A 
BRANCH  47  50
ATOM     50  C   UNL     1      -7.629  11.164  61.805  0.00  0.00    +0.100 C 
ATOM     51  N   UNL     1      -6.875  11.692  61.089  0.00  0.00    -0.191 NA
ENDBRANCH  47  50
ENDBRANCH  42  44
ENDBRANCH  37  39
ENDBRANCH  27  37
ENDBRANCH   1  27
TORSDOF 15
ENDMDL
MODEL 6
REMARK VINA RESULT:      -7.0      1.482      3.632
REMARK  Name = 
REMARK  15 active torsions:
REMARK  status: ('A' for Active; 'I' for Inactive)
REMARK    1  A    between atoms: N_2  and  C_3
REMARK    2  A    between atoms: C_3  and  C_4
REMARK    3  A    between atoms: C_4  and  O_6
REMARK    4  A    between atoms: O_6  and  C_7
REMARK    5  A    between atoms: C_7  and  C_8
REMARK    6  A    between atoms: C_16  and  O_18
REMARK    7  A    between atoms: O_18  and  C_19
REMARK    8  A    between atoms: C_19  and  N_21
REMARK    9  A    between atoms: N_24  and  C_25
REMARK   10  A    between atoms: C_25  and  C_26
REMARK   11  A    between atoms: C_26  and  C_28
REMARK   12  A    between atoms: C_26  and  C_36
REMARK   13  A    between atoms: C_36  and  C_38
REMARK   14  A    between atoms: C_40  and  C_41
REMARK   15  A    between atoms: C_44  and  C_45
REMARK                            x       y       z     vdW  Elec       q    Type
REMARK                         _______ _______ _______ _____ _____    ______ ____
ROOT
ATOM      1  C   UNL     1      -9.822  13.984  68.636  0.00  0.00    +0.169 C 
ENDROOT
BRANCH   1   4
ATOM      2  N   UNL     1      -6.917  15.775  69.280  0.00  0.00    -0.091 N 
ATOM      3  C   UNL     1      -7.859  15.056  69.846  0.00  0.00    +0.402 A 
ATOM      4  N   UNL     1      -8.795  14.941  68.868  0.00  0.00    -0.181 N 
ATOM      5  N   UNL     1      -8.736  16.091  68.190  0.00  0.00    -0.092 NA
ATOM      6  C   UNL     1      -7.612  16.730  68.603  0.00  0.00    +0.423 A 
BRANCH   2   7
ATOM      7  C   UNL     1      -5.631  16.328  70.082  0.00  0.00    +0.437 C 
ATOM      8  C   UNL     1      -4.701  14.963  69.709  0.00  0.00    +0.141 C 
BRANCH   7   9
ATOM      9  O   UNL     1      -5.053  17.121  68.836  0.00  0.00    -0.375 OA
BRANCH   9  13
ATOM     10  C   UNL     1      -6.116  20.835  67.432  0.00  0.00    +0.053 A 
ATOM     11  C   UNL     1      -4.990  20.474  68.164  0.00  0.00    +0.139 A 
ATOM     12  N   UNL     1      -5.067  19.581  69.285  0.00  0.00    -0.208 N 
ATOM     13  C   UNL     1      -4.462  18.303  69.297  0.00  0.00    +0.414 C 
ATOM     14  O   UNL     1      -3.219  18.259  69.548  0.00  0.00    -0.226 OA
ATOM     15  C   UNL     1      -6.059  19.955  70.292  0.00  0.00    +0.125 C 
ATOM     16  N   UNL     1      -3.800  20.516  67.523  0.00  0.00    -0.229 NA
ATOM     17  C   UNL     1      -3.692  20.787  66.206  0.00  0.00    +0.100 A 
ATOM     18  C   UNL     1      -4.826  20.868  65.431  0.00  0.00    +0.021 A 
ATOM     19  C   UNL     1      -6.076  20.857  66.041  0.00  0.00    +0.004 A 
BRANCH  10  20
ATOM     20  C   UNL     1      -7.412  20.364  68.016  0.00  0.00    +0.238 C 
BRANCH  20  21
ATOM     21  O   UNL     1      -8.507  20.597  67.183  0.00  0.00    -0.442 OA
BRANCH  21  22
ATOM     22  C   UNL     1      -9.772  20.066  67.352  0.00  0.00    +0.335 C 
ATOM     23  O   UNL     1     -10.184  20.010  68.528  0.00  0.00    -0.248 OA
BRANCH  22  24
ATOM     24  C   UNL     1     -10.486  19.462  66.206  0.00  0.00    +0.198 C 
BRANCH  24  26
ATOM     25  C   UNL     1     -10.593  17.311  65.388  0.00  0.00    +0.108 C 
ATOM     26  N   UNL     1      -9.805  18.250  65.799  0.00  0.00    -0.205 NA
ENDBRANCH  24  26
ENDBRANCH  22  24
ENDBRANCH  21  22
ENDBRANCH  20  21
ENDBRANCH  10  20
ENDBRANCH   9  13
ENDBRANCH   7   9
ENDBRANCH   2   7
ENDBRANCH   1   4
BRANCH   1  27
ATOM     27  C   UNL     1     -11.220  14.452  68.759  0.00  0.00    +0.176 C 
ATOM     28  O   UNL     1     -11.481  15.552  67.981  0.00  0.00    -0.219 OA
BRANCH  27  29
ATOM     29  C   UNL     1     -11.808  14.571  70.052  0.00  0.00    +0.037 A 
ATOM     30  C   UNL     1     -11.679  15.793  70.715  0.00  0.00    +0.139 A 
ATOM     31  F   UNL     1     -10.819  16.757  70.271  0.00  0.00    -0.204 F 
ATOM     32  C   UNL     1     -12.295  16.057  71.909  0.00  0.00    +0.032 A 
ATOM     33  C   UNL     1     -13.131  15.114  72.479  0.00  0.00    +0.032 A 
ATOM     34  C   UNL     1     -13.089  13.831  71.946  0.00  0.00    +0.140 A 
ATOM     35  F   UNL     1     -14.048  12.985  72.348  0.00  0.00    -0.204 F 
ATOM     36  C   UNL     1     -12.185  13.559  70.927  0.00  0.00    +0.030 A 
ENDBRANCH  27  29
BRANCH  27  37
ATOM     37  C   UNL     1     -11.981  13.264  67.890  0.00  0.00    +0.080 C 
ATOM     38  C   UNL     1     -11.631  14.003  66.443  0.00  0.00    +0.010 C 
BRANCH  37  39
ATOM     39  C   UNL     1     -10.650  12.323  67.812  0.00  0.00    +0.091 A 
ATOM     40  S   UNL     1     -10.513  10.861  68.699  0.00  0.00    -0.070 S 
ATOM     41  C   UNL     1      -9.694   9.963  67.483  0.00  0.00    +0.056 A 
ATOM     42  C   UNL     1     -10.025  10.725  66.363  0.00  0.00    +0.088 A 
ATOM     43  N   UNL     1     -10.100  12.016  66.651  0.00  0.00    -0.243 NA
BRANCH  42  44
ATOM     44  C   UNL     1     -10.046  10.196  64.982  0.00  0.00    +0.018 A 
ATOM     45  C   UNL     1     -10.553  10.960  63.937  0.00  0.00    +0.002 A 
ATOM     46  C   UNL     1      -9.973  10.881  62.671  0.00  0.00    +0.010 A 
ATOM     47  C   UNL     1      -8.690  10.370  62.514  0.00  0.00    +0.068 A 
ATOM     48  C   UNL     1      -8.329   9.405  63.449  0.00  0.00    +0.010 A 
ATOM     49  C   UNL     1      -9.093   9.256  64.601  0.00  0.00    +0.002 A 
BRANCH  47  50
ATOM     50  C   UNL     1      -7.687  11.040  61.721  0.00  0.00    +0.100 C 
ATOM     51  N   UNL     1      -6.907  11.690  61.147  0.00  0.00    -0.191 NA
ENDBRANCH  47  50
ENDBRANCH  42  44
ENDBRANCH  37  39
ENDBRANCH  27  37
ENDBRANCH   1  27
TORSDOF 15
ENDMDL
MODEL 7
REMARK VINA RESULT:      -7.0      3.583      6.554
REMARK  Name = 
REMARK  15 active torsions:
REMARK  status: ('A' for Active; 'I' for Inactive)
REMARK    1  A    between atoms: N_2  and  C_3
REMARK    2  A    between atoms: C_3  and  C_4
REMARK    3  A    between atoms: C_4  and  O_6
REMARK    4  A    between atoms: O_6  and  C_7
REMARK    5  A    between atoms: C_7  and  C_8
REMARK    6  A    between atoms: C_16  and  O_18
REMARK    7  A    between atoms: O_18  and  C_19
REMARK    8  A    between atoms: C_19  and  N_21
REMARK    9  A    between atoms: N_24  and  C_25
REMARK   10  A    between atoms: C_25  and  C_26
REMARK   11  A    between atoms: C_26  and  C_28
REMARK   12  A    between atoms: C_26  and  C_36
REMARK   13  A    between atoms: C_36  and  C_38
REMARK   14  A    between atoms: C_40  and  C_41
REMARK   15  A    between atoms: C_44  and  C_45
REMARK                            x       y       z     vdW  Elec       q    Type
REMARK                         _______ _______ _______ _____ _____    ______ ____
ROOT
ATOM      1  C   UNL     1      -9.286  12.371  67.834  0.00  0.00    +0.169 C 
ENDROOT
BRANCH   1   4
ATOM      2  N   UNL     1      -6.351  14.225  67.946  0.00  0.00    -0.091 N 
ATOM      3  C   UNL     1      -7.146  13.466  68.665  0.00  0.00    +0.402 A 
ATOM      4  N   UNL     1      -8.255  13.350  67.887  0.00  0.00    -0.181 N 
ATOM      5  N   UNL     1      -8.356  14.518  67.246  0.00  0.00    -0.092 NA
ATOM      6  C   UNL     1      -7.187  15.177  67.447  0.00  0.00    +0.423 A 
BRANCH   2   7
ATOM      7  C   UNL     1      -4.943  14.792  68.494  0.00  0.00    +0.437 C 
ATOM      8  C   UNL     1      -4.044  13.647  67.628  0.00  0.00    +0.141 C 
BRANCH   7   9
ATOM      9  O   UNL     1      -4.791  15.860  67.332  0.00  0.00    -0.375 OA
BRANCH   9  13
ATOM     10  C   UNL     1      -6.408  19.516  66.376  0.00  0.00    +0.053 A 
ATOM     11  C   UNL     1      -5.205  19.240  67.015  0.00  0.00    +0.139 A 
ATOM     12  N   UNL     1      -5.100  18.239  68.038  0.00  0.00    -0.208 N 
ATOM     13  C   UNL     1      -4.334  17.060  67.888  0.00  0.00    +0.414 C 
ATOM     14  O   UNL     1      -3.083  17.160  68.078  0.00  0.00    -0.226 OA
ATOM     15  C   UNL     1      -6.072  18.374  69.121  0.00  0.00    +0.125 C 
ATOM     16  N   UNL     1      -4.069  19.506  66.331  0.00  0.00    -0.229 NA
ATOM     17  C   UNL     1      -4.074  19.919  65.046  0.00  0.00    +0.100 A 
ATOM     18  C   UNL     1      -5.251  19.921  64.335  0.00  0.00    +0.021 A 
ATOM     19  C   UNL     1      -6.452  19.681  64.994  0.00  0.00    +0.004 A 
BRANCH  10  20
ATOM     20  C   UNL     1      -7.595  18.819  66.963  0.00  0.00    +0.238 C 
BRANCH  20  21
ATOM     21  O   UNL     1      -8.430  18.250  66.000  0.00  0.00    -0.442 OA
BRANCH  21  22
ATOM     22  C   UNL     1      -9.728  17.822  66.213  0.00  0.00    +0.335 C 
ATOM     23  O   UNL     1     -10.169  16.999  65.386  0.00  0.00    -0.248 OA
BRANCH  22  24
ATOM     24  C   UNL     1     -10.558  18.452  67.263  0.00  0.00    +0.198 C 
BRANCH  24  26
ATOM     25  C   UNL     1     -10.140  17.067  69.056  0.00  0.00    +0.108 C 
ATOM     26  N   UNL     1     -11.021  17.436  68.185  0.00  0.00    -0.205 NA
ENDBRANCH  24  26
ENDBRANCH  22  24
ENDBRANCH  21  22
ENDBRANCH  20  21
ENDBRANCH  10  20
ENDBRANCH   9  13
ENDBRANCH   7   9
ENDBRANCH   2   7
ENDBRANCH   1   4
BRANCH   1  27
ATOM     27  C   UNL     1      -9.397  11.576  66.592  0.00  0.00    +0.176 C 
ATOM     28  O   UNL     1      -8.177  11.161  66.118  0.00  0.00    -0.219 OA
BRANCH  27  29
ATOM     29  C   UNL     1     -10.242  12.034  65.539  0.00  0.00    +0.037 A 
ATOM     30  C   UNL     1     -10.531  11.144  64.503  0.00  0.00    +0.139 A 
ATOM     31  F   UNL     1      -9.844   9.972  64.359  0.00  0.00    -0.204 F 
ATOM     32  C   UNL     1     -11.416  11.436  63.500  0.00  0.00    +0.032 A 
ATOM     33  C   UNL     1     -12.110  12.633  63.518  0.00  0.00    +0.032 A 
ATOM     34  C   UNL     1     -11.669  13.604  64.410  0.00  0.00    +0.140 A 
ATOM     35  F   UNL     1     -12.468  14.666  64.581  0.00  0.00    -0.204 F 
ATOM     36  C   UNL     1     -10.542  13.343  65.180  0.00  0.00    +0.030 A 
ENDBRANCH  27  29
BRANCH  27  37
ATOM     37  C   UNL     1      -9.986  10.163  67.226  0.00  0.00    +0.080 C 
ATOM     38  C   UNL     1      -8.500   9.740  67.839  0.00  0.00    +0.010 C 
BRANCH  37  39
ATOM     39  C   UNL     1     -10.443  10.861  68.629  0.00  0.00    +0.091 A 
ATOM     40  S   UNL     1     -12.009  11.527  68.848  0.00  0.00    -0.070 S 
ATOM     41  C   UNL     1     -12.216  11.023  70.479  0.00  0.00    +0.056 A 
ATOM     42  C   UNL     1     -11.267  10.003  70.533  0.00  0.00    +0.088 A 
ATOM     43  N   UNL     1     -10.206  10.277  69.789  0.00  0.00    -0.243 NA
BRANCH  42  44
ATOM     44  C   UNL     1     -11.322   8.874  71.488  0.00  0.00    +0.018 A 
ATOM     45  C   UNL     1     -12.302   7.896  71.376  0.00  0.00    +0.002 A 
ATOM     46  C   UNL     1     -12.004   6.571  71.689  0.00  0.00    +0.010 A 
ATOM     47  C   UNL     1     -10.683   6.137  71.734  0.00  0.00    +0.068 A 
ATOM     48  C   UNL     1      -9.764   7.111  72.111  0.00  0.00    +0.010 A 
ATOM     49  C   UNL     1     -10.147   8.448  72.101  0.00  0.00    +0.002 A 
BRANCH  47  50
ATOM     50  C   UNL     1     -10.249   4.926  71.080  0.00  0.00    +0.100 C 
ATOM     51  N   UNL     1      -9.784   3.963  70.613  0.00  0.00    -0.191 NA
ENDBRANCH  47  50
ENDBRANCH  42  44
ENDBRANCH  37  39
ENDBRANCH  27  37
ENDBRANCH   1  27
TORSDOF 15
ENDMDL
MODEL 8
REMARK VINA RESULT:      -6.9      4.945     10.096
REMARK  Name = 
REMARK  15 active torsions:
REMARK  status: ('A' for Active; 'I' for Inactive)
REMARK    1  A    between atoms: N_2  and  C_3
REMARK    2  A    between atoms: C_3  and  C_4
REMARK    3  A    between atoms: C_4  and  O_6
REMARK    4  A    between atoms: O_6  and  C_7
REMARK    5  A    between atoms: C_7  and  C_8
REMARK    6  A    between atoms: C_16  and  O_18
REMARK    7  A    between atoms: O_18  and  C_19
REMARK    8  A    between atoms: C_19  and  N_21
REMARK    9  A    between atoms: N_24  and  C_25
REMARK   10  A    between atoms: C_25  and  C_26
REMARK   11  A    between atoms: C_26  and  C_28
REMARK   12  A    between atoms: C_26  and  C_36
REMARK   13  A    between atoms: C_36  and  C_38
REMARK   14  A    between atoms: C_40  and  C_41
REMARK   15  A    between atoms: C_44  and  C_45
REMARK                            x       y       z     vdW  Elec       q    Type
REMARK                         _______ _______ _______ _____ _____    ______ ____
ROOT
ATOM      1  C   UNL     1      -9.808  12.102  67.926  0.00  0.00    +0.169 C 
ENDROOT
BRANCH   1   4
ATOM      2  N   UNL     1      -8.282   9.060  68.616  0.00  0.00    -0.091 N 
ATOM      3  C   UNL     1      -8.987   9.705  67.715  0.00  0.00    +0.402 A 
ATOM      4  N   UNL     1      -9.400  10.817  68.378  0.00  0.00    -0.181 N 
ATOM      5  N   UNL     1      -9.579  10.423  69.642  0.00  0.00    -0.092 NA
ATOM      6  C   UNL     1      -9.023   9.190  69.751  0.00  0.00    +0.423 A 
BRANCH   2   7
ATOM      7  C   UNL     1      -7.687   7.580  68.373  0.00  0.00    +0.437 C 
ATOM      8  C   UNL     1      -6.083   8.123  68.411  0.00  0.00    +0.141 C 
BRANCH   7   9
ATOM      9  O   UNL     1      -7.650   7.217  69.916  0.00  0.00    -0.375 OA
BRANCH   9  13
ATOM     10  C   UNL     1     -10.761   6.290  72.439  0.00  0.00    +0.053 A 
ATOM     11  C   UNL     1      -9.835   5.434  71.851  0.00  0.00    +0.139 A 
ATOM     12  N   UNL     1      -9.443   5.567  70.477  0.00  0.00    -0.208 N 
ATOM     13  C   UNL     1      -8.131   5.913  70.079  0.00  0.00    +0.414 C 
ATOM     14  O   UNL     1      -7.269   4.983  70.070  0.00  0.00    -0.226 OA
ATOM     15  C   UNL     1     -10.556   5.614  69.530  0.00  0.00    +0.125 C 
ATOM     16  N   UNL     1      -8.930   4.851  72.669  0.00  0.00    -0.229 NA
ATOM     17  C   UNL     1      -8.837   5.150  73.982  0.00  0.00    +0.100 A 
ATOM     18  C   UNL     1      -9.566   6.197  74.496  0.00  0.00    +0.021 A 
ATOM     19  C   UNL     1     -10.530   6.815  73.706  0.00  0.00    +0.004 A 
BRANCH  10  20
ATOM     20  C   UNL     1     -11.432   7.226  71.483  0.00  0.00    +0.238 C 
BRANCH  20  21
ATOM     21  O   UNL     1     -11.514   8.534  71.961  0.00  0.00    -0.442 OA
BRANCH  21  22
ATOM     22  C   UNL     1     -12.620   9.358  71.863  0.00  0.00    +0.335 C 
ATOM     23  O   UNL     1     -12.418  10.476  71.348  0.00  0.00    -0.248 OA
BRANCH  22  24
ATOM     24  C   UNL     1     -13.900   8.967  72.494  0.00  0.00    +0.198 C 
BRANCH  24  26
ATOM     25  C   UNL     1     -15.120   7.110  71.886  0.00  0.00    +0.108 C 
ATOM     26  N   UNL     1     -14.728   8.286  71.520  0.00  0.00    -0.205 NA
ENDBRANCH  24  26
ENDBRANCH  22  24
ENDBRANCH  21  22
ENDBRANCH  20  21
ENDBRANCH  10  20
ENDBRANCH   9  13
ENDBRANCH   7   9
ENDBRANCH   2   7
ENDBRANCH   1   4
BRANCH   1  27
ATOM     27  C   UNL     1     -11.101  12.187  67.212  0.00  0.00    +0.176 C 
ATOM     28  O   UNL     1     -12.122  11.568  67.890  0.00  0.00    -0.219 OA
BRANCH  27  29
ATOM     29  C   UNL     1     -11.150  11.906  65.816  0.00  0.00    +0.037 A 
ATOM     30  C   UNL     1     -12.165  12.505  65.067  0.00  0.00    +0.139 A 
ATOM     31  F   UNL     1     -13.219  13.132  65.670  0.00  0.00    -0.204 F 
ATOM     32  C   UNL     1     -12.245  12.396  63.705  0.00  0.00    +0.032 A 
ATOM     33  C   UNL     1     -11.262  11.717  63.008  0.00  0.00    +0.032 A 
ATOM     34  C   UNL     1     -10.383  10.939  63.754  0.00  0.00    +0.140 A 
ATOM     35  F   UNL     1      -9.309  10.465  63.107  0.00  0.00    -0.204 F 
ATOM     36  C   UNL     1     -10.573  10.846  65.127  0.00  0.00    +0.030 A 
ENDBRANCH  27  29
BRANCH  27  37
ATOM     37  C   UNL     1     -11.460  13.780  67.490  0.00  0.00    +0.080 C 
ATOM     38  C   UNL     1     -10.978  13.683  69.078  0.00  0.00    +0.010 C 
BRANCH  37  39
ATOM     39  C   UNL     1      -9.992  14.304  67.004  0.00  0.00    +0.091 A 
ATOM     40  S   UNL     1      -9.759  15.096  65.501  0.00  0.00    -0.070 S 
ATOM     41  C   UNL     1      -8.601  16.240  66.053  0.00  0.00    +0.056 A 
ATOM     42  C   UNL     1      -8.861  16.198  67.421  0.00  0.00    +0.088 A 
ATOM     43  N   UNL     1      -9.207  14.983  67.820  0.00  0.00    -0.243 NA
BRANCH  42  44
ATOM     44  C   UNL     1      -8.553  17.304  68.355  0.00  0.00    +0.018 A 
ATOM     45  C   UNL     1      -7.265  17.484  68.844  0.00  0.00    +0.002 A 
ATOM     46  C   UNL     1      -6.775  18.770  69.063  0.00  0.00    +0.010 A 
ATOM     47  C   UNL     1      -7.377  19.867  68.455  0.00  0.00    +0.068 A 
ATOM     48  C   UNL     1      -8.741  19.727  68.224  0.00  0.00    +0.010 A 
ATOM     49  C   UNL     1      -9.319  18.465  68.305  0.00  0.00    +0.002 A 
BRANCH  47  50
ATOM     50  C   UNL     1      -6.612  20.882  67.771  0.00  0.00    +0.100 C 
ATOM     51  N   UNL     1      -5.981  21.617  67.121  0.00  0.00    -0.191 NA
ENDBRANCH  47  50
ENDBRANCH  42  44
ENDBRANCH  37  39
ENDBRANCH  27  37
ENDBRANCH   1  27
TORSDOF 15
ENDMDL
MODEL 9
REMARK VINA RESULT:      -6.8      3.302      8.537
REMARK  Name = 
REMARK  15 active torsions:
REMARK  status: ('A' for Active; 'I' for Inactive)
REMARK    1  A    between atoms: N_2  and  C_3
REMARK    2  A    between atoms: C_3  and  C_4
REMARK    3  A    between atoms: C_4  and  O_6
REMARK    4  A    between atoms: O_6  and  C_7
REMARK    5  A    between atoms: C_7  and  C_8
REMARK    6  A    between atoms: C_16  and  O_18
REMARK    7  A    between atoms: O_18  and  C_19
REMARK    8  A    between atoms: C_19  and  N_21
REMARK    9  A    between atoms: N_24  and  C_25
REMARK   10  A    between atoms: C_25  and  C_26
REMARK   11  A    between atoms: C_26  and  C_28
REMARK   12  A    between atoms: C_26  and  C_36
REMARK   13  A    between atoms: C_36  and  C_38
REMARK   14  A    between atoms: C_40  and  C_41
REMARK   15  A    between atoms: C_44  and  C_45
REMARK                            x       y       z     vdW  Elec       q    Type
REMARK                         _______ _______ _______ _____ _____    ______ ____
ROOT
ATOM      1  C   UNL     1     -11.993  14.325  67.636  0.00  0.00    +0.169 C 
ENDROOT
BRANCH   1   4
ATOM      2  N   UNL     1     -10.585  11.865  65.630  0.00  0.00    -0.091 N 
ATOM      3  C   UNL     1     -11.686  12.212  66.255  0.00  0.00    +0.402 A 
ATOM      4  N   UNL     1     -11.285  13.241  67.047  0.00  0.00    -0.181 N 
ATOM      5  N   UNL     1     -10.030  12.944  67.397  0.00  0.00    -0.092 NA
ATOM      6  C   UNL     1      -9.637  11.914  66.606  0.00  0.00    +0.423 A 
BRANCH   2   7
ATOM      7  C   UNL     1     -10.488  10.572  64.670  0.00  0.00    +0.437 C 
ATOM      8  C   UNL     1      -9.910  11.477  63.360  0.00  0.00    +0.141 C 
BRANCH   7   9
ATOM      9  O   UNL     1      -9.014  10.202  65.125  0.00  0.00    -0.375 OA
BRANCH   9  13
ATOM     10  C   UNL     1      -8.163   8.299  68.668  0.00  0.00    +0.053 A 
ATOM     11  C   UNL     1      -8.116   7.788  67.375  0.00  0.00    +0.139 A 
ATOM     12  N   UNL     1      -9.144   8.062  66.412  0.00  0.00    -0.208 N 
ATOM     13  C   UNL     1      -8.919   8.810  65.234  0.00  0.00    +0.414 C 
ATOM     14  O   UNL     1      -8.388   8.197  64.258  0.00  0.00    -0.226 OA
ATOM     15  C   UNL     1     -10.501   7.775  66.874  0.00  0.00    +0.125 C 
ATOM     16  N   UNL     1      -6.895   7.504  66.869  0.00  0.00    -0.229 NA
ATOM     17  C   UNL     1      -5.751   7.793  67.524  0.00  0.00    +0.100 A 
ATOM     18  C   UNL     1      -5.795   8.549  68.673  0.00  0.00    +0.021 A 
ATOM     19  C   UNL     1      -7.025   8.847  69.251  0.00  0.00    +0.004 A 
BRANCH  10  20
ATOM     20  C   UNL     1      -9.443   8.994  69.012  0.00  0.00    +0.238 C 
BRANCH  20  21
ATOM     21  O   UNL     1      -9.456   9.510  70.309  0.00  0.00    -0.442 OA
BRANCH  21  22
ATOM     22  C   UNL     1     -10.091   8.937  71.395  0.00  0.00    +0.335 C 
ATOM     23  O   UNL     1      -9.397   8.811  72.424  0.00  0.00    -0.248 OA
BRANCH  22  24
ATOM     24  C   UNL     1     -11.450   8.370  71.252  0.00  0.00    +0.198 C 
BRANCH  24  26
ATOM     25  C   UNL     1     -13.619   8.840  71.870  0.00  0.00    +0.108 C 
ATOM     26  N   UNL     1     -12.423   9.317  71.756  0.00  0.00    -0.205 NA
ENDBRANCH  24  26
ENDBRANCH  22  24
ENDBRANCH  21  22
ENDBRANCH  20  21
ENDBRANCH  10  20
ENDBRANCH   9  13
ENDBRANCH   7   9
ENDBRANCH   2   7
ENDBRANCH   1   4
BRANCH   1  27
ATOM     27  C   UNL     1     -11.559  14.764  68.980  0.00  0.00    +0.176 C 
ATOM     28  O   UNL     1     -10.231  14.507  69.218  0.00  0.00    -0.219 OA
BRANCH  27  29
ATOM     29  C   UNL     1     -12.365  14.453  70.113  0.00  0.00    +0.037 A 
ATOM     30  C   UNL     1     -12.340  13.141  70.590  0.00  0.00    +0.139 A 
ATOM     31  F   UNL     1     -11.772  12.131  69.866  0.00  0.00    -0.204 F 
ATOM     32  C   UNL     1     -12.986  12.755  71.733  0.00  0.00    +0.032 A 
ATOM     33  C   UNL     1     -13.653  13.694  72.500  0.00  0.00    +0.032 A 
ATOM     34  C   UNL     1     -13.868  14.941  71.924  0.00  0.00    +0.140 A 
ATOM     35  F   UNL     1     -14.312  15.907  72.740  0.00  0.00    -0.204 F 
ATOM     36  C   UNL     1     -13.457  15.152  70.614  0.00  0.00    +0.030 A 
ENDBRANCH  27  29
BRANCH  27  37
ATOM     37  C   UNL     1     -11.523  16.401  68.732  0.00  0.00    +0.080 C 
ATOM     38  C   UNL     1     -10.936  16.689  70.261  0.00  0.00    +0.010 C 
BRANCH  37  39
ATOM     39  C   UNL     1     -10.025  16.377  68.085  0.00  0.00    +0.091 A 
ATOM     40  S   UNL     1      -9.759  16.507  66.396  0.00  0.00    -0.070 S 
ATOM     41  C   UNL     1      -8.348  17.484  66.488  0.00  0.00    +0.056 A 
ATOM     42  C   UNL     1      -8.496  17.993  67.778  0.00  0.00    +0.088 A 
ATOM     43  N   UNL     1      -9.051  17.109  68.594  0.00  0.00    -0.243 NA
BRANCH  42  44
ATOM     44  C   UNL     1      -7.890  19.260  68.241  0.00  0.00    +0.018 A 
ATOM     45  C   UNL     1      -6.992  19.273  69.302  0.00  0.00    +0.002 A 
ATOM     46  C   UNL     1      -5.921  20.165  69.298  0.00  0.00    +0.010 A 
ATOM     47  C   UNL     1      -5.504  20.761  68.113  0.00  0.00    +0.068 A 
ATOM     48  C   UNL     1      -6.513  20.962  67.177  0.00  0.00    +0.010 A 
ATOM     49  C   UNL     1      -7.728  20.305  67.334  0.00  0.00    +0.002 A 
BRANCH  47  50
ATOM     50  C   UNL     1      -4.115  20.807  67.722  0.00  0.00    +0.100 C 
ATOM     51  N   UNL     1      -2.967  20.783  67.518  0.00  0.00    -0.191 NA
ENDBRANCH  47  50
ENDBRANCH  42  44
ENDBRANCH  37  39
ENDBRANCH  27  37
ENDBRANCH   1  27
TORSDOF 15
ENDMDL
