MODEL 1
REMARK VINA RESULT:      -5.1      0.000      0.000
REMARK  Name = 
REMARK  5 active torsions:
REMARK  status: ('A' for Active; 'I' for Inactive)
REMARK    1  A    between atoms: C_2  and  C_4
REMARK    2  A    between atoms: C_4  and  C_6
REMARK    3  A    between atoms: C_6  and  C_8
REMARK    4  A    between atoms: C_8  and  C_10
REMARK    5  A    between atoms: C_10  and  C_12
REMARK                            x       y       z     vdW  Elec       q    Type
REMARK                         _______ _______ _______ _____ _____    ______ ____
ROOT
ATOM      1  C   UNL     1     -12.007  13.932  65.931  0.00  0.00    +0.226 C 
ATOM      2  O   UNL     1     -13.208  13.165  65.474  0.00  0.00    -0.217 OA
ENDROOT
BRANCH   1   3
ATOM      3  C   UNL     1     -11.246  14.176  64.406  0.00  0.00    +0.287 C 
ATOM      4  O   UNL     1     -12.485  14.521  63.609  0.00  0.00    -0.208 OA
BRANCH   3   6
ATOM      5  O   UNL     1     -10.475  15.924  65.097  0.00  0.00    -0.243 OA
ATOM      6  C   UNL     1     -10.978  15.733  64.770  0.00  0.00    +0.397 C 
ATOM      7  O   UNL     1     -11.693  16.629  63.959  0.00  0.00    -0.243 OA
ENDBRANCH   3   6
ENDBRANCH   1   3
BRANCH   1   8
ATOM      8  C   UNL     1     -11.002  12.574  66.217  0.00  0.00    +0.218 C 
ATOM      9  O   UNL     1     -12.032  11.789  66.975  0.00  0.00    -0.217 OA
BRANCH   8  10
ATOM     10  C   UNL     1     -10.274  13.337  67.572  0.00  0.00    +0.218 C 
ATOM     11  O   UNL     1      -8.988  13.543  66.802  0.00  0.00    -0.217 OA
BRANCH  10  12
ATOM     12  C   UNL     1      -9.704  11.942  68.224  0.00  0.00    +0.217 C 
ATOM     13  O   UNL     1      -8.373  12.366  68.390  0.00  0.00    -0.217 OA
ENDBRANCH  10  12
ENDBRANCH   8  10
ENDBRANCH   1   8
TORSDOF 5
ENDMDL
MODEL 2
REMARK VINA RESULT:      -5.1      1.266      1.929
REMARK  Name = 
REMARK  5 active torsions:
REMARK  status: ('A' for Active; 'I' for Inactive)
REMARK    1  A    between atoms: C_2  and  C_4
REMARK    2  A    between atoms: C_4  and  C_6
REMARK    3  A    between atoms: C_6  and  C_8
REMARK    4  A    between atoms: C_8  and  C_10
REMARK    5  A    between atoms: C_10  and  C_12
REMARK                            x       y       z     vdW  Elec       q    Type
REMARK                         _______ _______ _______ _____ _____    ______ ____
ROOT
ATOM      1  C   UNL     1     -11.981  14.699  65.724  0.00  0.00    +0.226 C 
ATOM      2  O   UNL     1     -12.913  14.541  64.564  0.00  0.00    -0.217 OA
ENDROOT
BRANCH   1   3
ATOM      3  C   UNL     1     -10.627  15.363  64.893  0.00  0.00    +0.287 C 
ATOM      4  O   UNL     1     -11.369  16.414  64.096  0.00  0.00    -0.208 OA
BRANCH   3   6
ATOM      5  O   UNL     1     -10.065  16.229  66.642  0.00  0.00    -0.243 OA
ATOM      6  C   UNL     1     -10.363  16.397  66.114  0.00  0.00    +0.397 C 
ATOM      7  O   UNL     1     -10.458  17.746  65.737  0.00  0.00    -0.243 OA
ENDBRANCH   3   6
ENDBRANCH   1   3
BRANCH   1   8
ATOM      8  C   UNL     1     -11.276  13.139  65.624  0.00  0.00    +0.218 C 
ATOM      9  O   UNL     1     -12.554  12.425  65.294  0.00  0.00    -0.217 OA
BRANCH   8  10
ATOM     10  C   UNL     1     -11.355  12.943  67.328  0.00  0.00    +0.218 C 
ATOM     11  O   UNL     1      -9.854  13.089  67.443  0.00  0.00    -0.217 OA
BRANCH  10  12
ATOM     12  C   UNL     1     -11.229  11.306  67.282  0.00  0.00    +0.217 C 
ATOM     13  O   UNL     1     -12.147  11.038  68.313  0.00  0.00    -0.217 OA
ENDBRANCH  10  12
ENDBRANCH   8  10
ENDBRANCH   1   8
TORSDOF 5
ENDMDL
MODEL 3
REMARK VINA RESULT:      -4.9      1.688      3.966
REMARK  Name = 
REMARK  5 active torsions:
REMARK  status: ('A' for Active; 'I' for Inactive)
REMARK    1  A    between atoms: C_2  and  C_4
REMARK    2  A    between atoms: C_4  and  C_6
REMARK    3  A    between atoms: C_6  and  C_8
REMARK    4  A    between atoms: C_8  and  C_10
REMARK    5  A    between atoms: C_10  and  C_12
REMARK                            x       y       z     vdW  Elec       q    Type
REMARK                         _______ _______ _______ _____ _____    ______ ____
ROOT
ATOM      1  C   UNL     1     -10.864  14.036  66.097  0.00  0.00    +0.226 C 
ATOM      2  O   UNL     1     -10.002  13.059  66.835  0.00  0.00    -0.217 OA
ENDROOT
BRANCH   1   3
ATOM      3  C   UNL     1     -10.728  13.374  64.514  0.00  0.00    +0.287 C 
ATOM      4  O   UNL     1     -10.993  11.927  64.871  0.00  0.00    -0.208 OA
BRANCH   3   6
ATOM      5  O   UNL     1     -12.505  14.087  63.835  0.00  0.00    -0.243 OA
ATOM      6  C   UNL     1     -12.303  13.653  64.243  0.00  0.00    +0.397 C 
ATOM      7  O   UNL     1     -13.136  12.599  64.648  0.00  0.00    -0.243 OA
ENDBRANCH   3   6
ENDBRANCH   1   3
BRANCH   1   8
ATOM      8  C   UNL     1      -9.622  15.160  65.734  0.00  0.00    +0.218 C 
ATOM      9  O   UNL     1      -8.939  15.055  67.066  0.00  0.00    -0.217 OA
BRANCH   8  10
ATOM     10  C   UNL     1     -10.643  16.485  66.121  0.00  0.00    +0.218 C 
ATOM     11  O   UNL     1     -10.818  16.815  64.655  0.00  0.00    -0.217 OA
BRANCH  10  12
ATOM     12  C   UNL     1      -9.415  17.568  66.256  0.00  0.00    +0.217 C 
ATOM     13  O   UNL     1     -10.126  18.687  65.789  0.00  0.00    -0.217 OA
ENDBRANCH  10  12
ENDBRANCH   8  10
ENDBRANCH   1   8
TORSDOF 5
ENDMDL
MODEL 4
REMARK VINA RESULT:      -4.9      1.544      3.843
REMARK  Name = 
REMARK  5 active torsions:
REMARK  status: ('A' for Active; 'I' for Inactive)
REMARK    1  A    between atoms: C_2  and  C_4
REMARK    2  A    between atoms: C_4  and  C_6
REMARK    3  A    between atoms: C_6  and  C_8
REMARK    4  A    between atoms: C_8  and  C_10
REMARK    5  A    between atoms: C_10  and  C_12
REMARK                            x       y       z     vdW  Elec       q    Type
REMARK                         _______ _______ _______ _____ _____    ______ ____
ROOT
ATOM      1  C   UNL     1     -11.318  14.303  64.615  0.00  0.00    +0.226 C 
ATOM      2  O   UNL     1     -12.453  14.715  63.732  0.00  0.00    -0.217 OA
ENDROOT
BRANCH   1   3
ATOM      3  C   UNL     1     -12.212  13.500  65.849  0.00  0.00    +0.287 C 
ATOM      4  O   UNL     1     -13.117  12.685  64.950  0.00  0.00    -0.208 OA
BRANCH   3   6
ATOM      5  O   UNL     1     -10.792  12.167  66.428  0.00  0.00    -0.243 OA
ATOM      6  C   UNL     1     -11.106  12.315  65.903  0.00  0.00    +0.397 C 
ATOM      7  O   UNL     1     -11.216  11.397  64.846  0.00  0.00    -0.243 OA
ENDBRANCH   3   6
ENDBRANCH   1   3
BRANCH   1   8
ATOM      8  C   UNL     1     -11.282  15.727  65.568  0.00  0.00    +0.218 C 
ATOM      9  O   UNL     1     -11.280  16.677  64.407  0.00  0.00    -0.217 OA
BRANCH   8  10
ATOM     10  C   UNL     1      -9.579  15.616  65.757  0.00  0.00    +0.218 C 
ATOM     11  O   UNL     1      -9.738  15.182  67.198  0.00  0.00    -0.217 OA
BRANCH  10  12
ATOM     12  C   UNL     1      -9.390  17.183  66.211  0.00  0.00    +0.217 C 
ATOM     13  O   UNL     1      -8.073  17.336  65.741  0.00  0.00    -0.217 OA
ENDBRANCH  10  12
ENDBRANCH   8  10
ENDBRANCH   1   8
TORSDOF 5
ENDMDL
MODEL 5
REMARK VINA RESULT:      -4.9      2.794      4.078
REMARK  Name = 
REMARK  5 active torsions:
REMARK  status: ('A' for Active; 'I' for Inactive)
REMARK    1  A    between atoms: C_2  and  C_4
REMARK    2  A    between atoms: C_4  and  C_6
REMARK    3  A    between atoms: C_6  and  C_8
REMARK    4  A    between atoms: C_8  and  C_10
REMARK    5  A    between atoms: C_10  and  C_12
REMARK                            x       y       z     vdW  Elec       q    Type
REMARK                         _______ _______ _______ _____ _____    ______ ____
ROOT
ATOM      1  C   UNL     1     -10.913  15.642  66.661  0.00  0.00    +0.226 C 
ATOM      2  O   UNL     1     -10.659  14.346  67.365  0.00  0.00    -0.217 OA
ENDROOT
BRANCH   1   3
ATOM      3  C   UNL     1     -10.283  15.236  65.111  0.00  0.00    +0.287 C 
ATOM      4  O   UNL     1     -10.966  13.895  64.956  0.00  0.00    -0.208 OA
BRANCH   3   6
ATOM      5  O   UNL     1     -11.453  16.582  64.139  0.00  0.00    -0.243 OA
ATOM      6  C   UNL     1     -11.513  16.008  64.390  0.00  0.00    +0.397 C 
ATOM      7  O   UNL     1     -12.558  15.156  64.000  0.00  0.00    -0.243 OA
ENDBRANCH   3   6
ENDBRANCH   1   3
BRANCH   1   8
ATOM      8  C   UNL     1      -9.423  16.384  67.072  0.00  0.00    +0.218 C 
ATOM      9  O   UNL     1      -9.462  15.993  68.520  0.00  0.00    -0.217 OA
BRANCH   8  10
ATOM     10  C   UNL     1     -10.179  17.916  67.244  0.00  0.00    +0.218 C 
ATOM     11  O   UNL     1      -9.500  18.424  65.991  0.00  0.00    -0.217 OA
BRANCH  10  12
ATOM     12  C   UNL     1      -8.992  18.548  68.187  0.00  0.00    +0.217 C 
ATOM     13  O   UNL     1      -9.797  19.479  68.868  0.00  0.00    -0.217 OA
ENDBRANCH  10  12
ENDBRANCH   8  10
ENDBRANCH   1   8
TORSDOF 5
ENDMDL
MODEL 6
REMARK VINA RESULT:      -4.9      2.456      4.101
REMARK  Name = 
REMARK  5 active torsions:
REMARK  status: ('A' for Active; 'I' for Inactive)
REMARK    1  A    between atoms: C_2  and  C_4
REMARK    2  A    between atoms: C_4  and  C_6
REMARK    3  A    between atoms: C_6  and  C_8
REMARK    4  A    between atoms: C_8  and  C_10
REMARK    5  A    between atoms: C_10  and  C_12
REMARK                            x       y       z     vdW  Elec       q    Type
REMARK                         _______ _______ _______ _____ _____    ______ ____
ROOT
ATOM      1  C   UNL     1     -10.516  15.931  66.276  0.00  0.00    +0.226 C 
ATOM      2  O   UNL     1      -9.316  16.224  65.431  0.00  0.00    -0.217 OA
ENDROOT
BRANCH   1   3
ATOM      3  C   UNL     1      -9.763  15.937  67.825  0.00  0.00    +0.287 C 
ATOM      4  O   UNL     1      -8.866  17.137  67.614  0.00  0.00    -0.208 OA
BRANCH   3   6
ATOM      5  O   UNL     1     -11.411  16.634  68.786  0.00  0.00    -0.243 OA
ATOM      6  C   UNL     1     -10.954  16.863  68.419  0.00  0.00    +0.397 C 
ATOM      7  O   UNL     1     -10.655  18.235  68.411  0.00  0.00    -0.243 OA
ENDBRANCH   3   6
ENDBRANCH   1   3
BRANCH   1   8
ATOM      8  C   UNL     1     -10.386  14.223  66.219  0.00  0.00    +0.218 C 
ATOM      9  O   UNL     1     -10.183  14.144  64.735  0.00  0.00    -0.217 OA
BRANCH   8  10
ATOM     10  C   UNL     1     -12.094  14.046  66.211  0.00  0.00    +0.218 C 
ATOM     11  O   UNL     1     -12.078  13.552  67.641  0.00  0.00    -0.217 OA
BRANCH  10  12
ATOM     12  C   UNL     1     -12.068  12.506  65.639  0.00  0.00    +0.217 C 
ATOM     13  O   UNL     1     -13.187  12.621  64.795  0.00  0.00    -0.217 OA
ENDBRANCH  10  12
ENDBRANCH   8  10
ENDBRANCH   1   8
TORSDOF 5
ENDMDL
MODEL 7
REMARK VINA RESULT:      -4.8      1.656      3.081
REMARK  Name = 
REMARK  5 active torsions:
REMARK  status: ('A' for Active; 'I' for Inactive)
REMARK    1  A    between atoms: C_2  and  C_4
REMARK    2  A    between atoms: C_4  and  C_6
REMARK    3  A    between atoms: C_6  and  C_8
REMARK    4  A    between atoms: C_8  and  C_10
REMARK    5  A    between atoms: C_10  and  C_12
REMARK                            x       y       z     vdW  Elec       q    Type
REMARK                         _______ _______ _______ _____ _____    ______ ____
ROOT
ATOM      1  C   UNL     1     -10.838  14.550  65.477  0.00  0.00    +0.226 C 
ATOM      2  O   UNL     1     -10.706  15.815  64.689  0.00  0.00    -0.217 OA
ENDROOT
BRANCH   1   3
ATOM      3  C   UNL     1     -12.549  14.367  65.410  0.00  0.00    +0.287 C 
ATOM      4  O   UNL     1     -12.727  14.629  63.930  0.00  0.00    -0.208 OA
BRANCH   3   6
ATOM      5  O   UNL     1     -12.347  12.359  65.637  0.00  0.00    -0.243 OA
ATOM      6  C   UNL     1     -12.387  12.772  65.164  0.00  0.00    +0.397 C 
ATOM      7  O   UNL     1     -12.766  12.362  63.877  0.00  0.00    -0.243 OA
ENDBRANCH   3   6
ENDBRANCH   1   3
BRANCH   1   8
ATOM      8  C   UNL     1     -10.977  15.289  67.017  0.00  0.00    +0.218 C 
ATOM      9  O   UNL     1      -9.992  16.386  66.739  0.00  0.00    -0.217 OA
BRANCH   8  10
ATOM     10  C   UNL     1      -9.867  14.174  67.705  0.00  0.00    +0.218 C 
ATOM     11  O   UNL     1     -10.990  13.453  68.418  0.00  0.00    -0.217 OA
BRANCH  10  12
ATOM     12  C   UNL     1      -9.561  15.090  69.034  0.00  0.00    +0.217 C 
ATOM     13  O   UNL     1      -8.194  14.778  69.140  0.00  0.00    -0.217 OA
ENDBRANCH  10  12
ENDBRANCH   8  10
ENDBRANCH   1   8
TORSDOF 5
ENDMDL
MODEL 8
REMARK VINA RESULT:      -4.8      2.676      2.954
REMARK  Name = 
REMARK  5 active torsions:
REMARK  status: ('A' for Active; 'I' for Inactive)
REMARK    1  A    between atoms: C_2  and  C_4
REMARK    2  A    between atoms: C_4  and  C_6
REMARK    3  A    between atoms: C_6  and  C_8
REMARK    4  A    between atoms: C_8  and  C_10
REMARK    5  A    between atoms: C_10  and  C_12
REMARK                            x       y       z     vdW  Elec       q    Type
REMARK                         _______ _______ _______ _____ _____    ______ ____
ROOT
ATOM      1  C   UNL     1     -11.704  14.839  66.707  0.00  0.00    +0.226 C 
ATOM      2  O   UNL     1     -11.991  13.403  66.399  0.00  0.00    -0.217 OA
ENDROOT
BRANCH   1   3
ATOM      3  C   UNL     1     -10.183  14.988  65.914  0.00  0.00    +0.287 C 
ATOM      4  O   UNL     1     -10.589  14.400  64.579  0.00  0.00    -0.208 OA
BRANCH   3   6
ATOM      5  O   UNL     1     -10.260  16.999  65.640  0.00  0.00    -0.243 OA
ATOM      6  C   UNL     1     -10.562  16.488  65.430  0.00  0.00    +0.397 C 
ATOM      7  O   UNL     1     -11.291  16.523  64.231  0.00  0.00    -0.243 OA
ENDBRANCH   3   6
ENDBRANCH   1   3
BRANCH   1   8
ATOM      8  C   UNL     1     -10.901  14.566  68.197  0.00  0.00    +0.218 C 
ATOM      9  O   UNL     1     -11.863  13.526  68.691  0.00  0.00    -0.217 OA
BRANCH   8  10
ATOM     10  C   UNL     1     -11.666  15.925  68.914  0.00  0.00    +0.218 C 
ATOM     11  O   UNL     1     -10.362  16.692  68.921  0.00  0.00    -0.217 OA
BRANCH  10  12
ATOM     12  C   UNL     1     -11.420  15.420  70.458  0.00  0.00    +0.217 C 
ATOM     13  O   UNL     1     -12.638  15.888  70.983  0.00  0.00    -0.217 OA
ENDBRANCH  10  12
ENDBRANCH   8  10
ENDBRANCH   1   8
TORSDOF 5
ENDMDL
MODEL 9
REMARK VINA RESULT:      -4.7      2.339      2.656
REMARK  Name = 
REMARK  5 active torsions:
REMARK  status: ('A' for Active; 'I' for Inactive)
REMARK    1  A    between atoms: C_2  and  C_4
REMARK    2  A    between atoms: C_4  and  C_6
REMARK    3  A    between atoms: C_6  and  C_8
REMARK    4  A    between atoms: C_8  and  C_10
REMARK    5  A    between atoms: C_10  and  C_12
REMARK                            x       y       z     vdW  Elec       q    Type
REMARK                         _______ _______ _______ _____ _____    ______ ____
ROOT
ATOM      1  C   UNL     1     -12.019  14.053  66.485  0.00  0.00    +0.226 C 
ATOM      2  O   UNL     1     -12.165  12.564  66.523  0.00  0.00    -0.217 OA
ENDROOT
BRANCH   1   3
ATOM      3  C   UNL     1     -10.706  14.167  65.377  0.00  0.00    +0.287 C 
ATOM      4  O   UNL     1     -11.260  13.255  64.305  0.00  0.00    -0.208 OA
BRANCH   3   6
ATOM      5  O   UNL     1     -11.067  16.017  64.620  0.00  0.00    -0.243 OA
ATOM      6  C   UNL     1     -11.377  15.474  64.690  0.00  0.00    +0.397 C 
ATOM      7  O   UNL     1     -12.501  15.178  63.904  0.00  0.00    -0.243 OA
ENDBRANCH   3   6
ENDBRANCH   1   3
BRANCH   1   8
ATOM      8  C   UNL     1     -10.923  14.178  67.797  0.00  0.00    +0.218 C 
ATOM      9  O   UNL     1     -11.681  13.255  68.705  0.00  0.00    -0.217 OA
BRANCH   8  10
ATOM     10  C   UNL     1     -11.648  15.641  68.326  0.00  0.00    +0.218 C 
ATOM     11  O   UNL     1     -10.420  16.428  67.925  0.00  0.00    -0.217 OA
BRANCH  10  12
ATOM     12  C   UNL     1     -11.107  15.511  69.871  0.00  0.00    +0.217 C 
ATOM     13  O   UNL     1     -12.214  16.120  70.489  0.00  0.00    -0.217 OA
ENDBRANCH  10  12
ENDBRANCH   8  10
ENDBRANCH   1   8
TORSDOF 5
ENDMDL
