MODEL 1
REMARK VINA RESULT:      -5.5      0.000      0.000
REMARK  Name = 
REMARK  0 active torsions:
REMARK  status: ('A' for Active; 'I' for Inactive)
REMARK                            x       y       z     vdW  Elec       q    Type
REMARK                         _______ _______ _______ _____ _____    ______ ____
ROOT
ATOM      1  O   UNL     1     -13.385  11.206  72.087  0.00  0.00    -0.285 OA
ATOM      2  C   UNL     1     -12.887  12.153  71.198  0.00  0.00    +0.218 A 
ATOM      3  C   UNL     1     -12.942  13.482  71.586  0.00  0.00    +0.121 A 
ATOM      4  C   UNL     1     -12.315  14.429  70.785  0.00  0.00    +0.031 A 
ATOM      5  C   UNL     1     -11.844  15.627  71.283  0.00  0.00    +0.004 A 
ATOM      6  C   UNL     1     -12.084  15.863  72.630  0.00  0.00    +0.021 A 
ATOM      7  C   UNL     1     -12.763  14.919  73.381  0.00  0.00    +0.099 A 
ATOM      8  C   UNL     1     -11.892  14.020  69.527  0.00  0.00    +0.060 A 
ATOM      9 CL   UNL     1     -11.716  15.252  68.282  0.00  0.00    -0.082 Cl
ATOM     10  C   UNL     1     -11.690  12.676  69.235  0.00  0.00    +0.020 A 
ATOM     11  N   UNL     1     -13.411  13.900  72.762  0.00  0.00    -0.241 NA
ATOM     12  C   UNL     1     -12.062  11.714  70.169  0.00  0.00    +0.071 A 
ATOM     13  I   UNL     1     -11.028   9.875  70.325  0.00  0.00    -0.039 I 
ENDROOT
TORSDOF 0
ENDMDL
MODEL 2
REMARK VINA RESULT:      -5.4      5.980      6.548
REMARK  Name = 
REMARK  0 active torsions:
REMARK  status: ('A' for Active; 'I' for Inactive)
REMARK                            x       y       z     vdW  Elec       q    Type
REMARK                         _______ _______ _______ _____ _____    ______ ____
ROOT
ATOM      1  O   UNL     1     -11.282  16.675  64.215  0.00  0.00    -0.285 OA
ATOM      2  C   UNL     1     -10.578  16.411  65.385  0.00  0.00    +0.218 A 
ATOM      3  C   UNL     1     -10.143  17.497  66.127  0.00  0.00    +0.121 A 
ATOM      4  C   UNL     1      -9.572  17.260  67.372  0.00  0.00    +0.031 A 
ATOM      5  C   UNL     1      -9.593  18.194  68.388  0.00  0.00    +0.004 A 
ATOM      6  C   UNL     1     -10.170  19.418  68.077  0.00  0.00    +0.021 A 
ATOM      7  C   UNL     1     -10.675  19.635  66.808  0.00  0.00    +0.099 A 
ATOM      8  C   UNL     1      -9.248  15.945  67.684  0.00  0.00    +0.060 A 
ATOM      9 CL   UNL     1      -7.985  15.677  68.881  0.00  0.00    -0.082 Cl
ATOM     10  C   UNL     1      -9.839  14.879  67.019  0.00  0.00    +0.020 A 
ATOM     11  N   UNL     1     -10.384  18.769  65.806  0.00  0.00    -0.241 NA
ATOM     12  C   UNL     1     -10.656  15.130  65.921  0.00  0.00    +0.071 A 
ATOM     13  I   UNL     1     -12.280  13.860  65.444  0.00  0.00    -0.039 I 
ENDROOT
TORSDOF 0
ENDMDL
MODEL 3
REMARK VINA RESULT:      -5.3      3.043      3.473
REMARK  Name = 
REMARK  0 active torsions:
REMARK  status: ('A' for Active; 'I' for Inactive)
REMARK                            x       y       z     vdW  Elec       q    Type
REMARK                         _______ _______ _______ _____ _____    ______ ____
ROOT
ATOM      1  O   UNL     1     -11.515  15.892  68.465  0.00  0.00    -0.285 OA
ATOM      2  C   UNL     1     -11.655  14.610  68.988  0.00  0.00    +0.218 A 
ATOM      3  C   UNL     1     -12.139  14.498  70.282  0.00  0.00    +0.121 A 
ATOM      4  C   UNL     1     -12.429  13.230  70.769  0.00  0.00    +0.031 A 
ATOM      5  C   UNL     1     -13.365  13.013  71.761  0.00  0.00    +0.004 A 
ATOM      6  C   UNL     1     -13.963  14.148  72.292  0.00  0.00    +0.021 A 
ATOM      7  C   UNL     1     -13.604  15.397  71.819  0.00  0.00    +0.099 A 
ATOM      8  C   UNL     1     -11.985  12.144  70.026  0.00  0.00    +0.060 A 
ATOM      9 CL   UNL     1     -11.739  10.619  70.871  0.00  0.00    -0.082 Cl
ATOM     10  C   UNL     1     -11.668  12.272  68.679  0.00  0.00    +0.020 A 
ATOM     11  N   UNL     1     -12.503  15.535  71.037  0.00  0.00    -0.241 NA
ATOM     12  C   UNL     1     -11.650  13.538  68.102  0.00  0.00    +0.071 A 
ATOM     13  I   UNL     1     -12.130  13.825  66.061  0.00  0.00    -0.039 I 
ENDROOT
TORSDOF 0
ENDMDL
MODEL 4
REMARK VINA RESULT:      -5.0      2.938      4.377
REMARK  Name = 
REMARK  0 active torsions:
REMARK  status: ('A' for Active; 'I' for Inactive)
REMARK                            x       y       z     vdW  Elec       q    Type
REMARK                         _______ _______ _______ _____ _____    ______ ____
ROOT
ATOM      1  O   UNL     1     -12.256  12.351  70.667  0.00  0.00    -0.285 OA
ATOM      2  C   UNL     1     -11.971  13.531  69.988  0.00  0.00    +0.218 A 
ATOM      3  C   UNL     1     -11.555  13.423  68.670  0.00  0.00    +0.121 A 
ATOM      4  C   UNL     1     -11.411  14.589  67.927  0.00  0.00    +0.031 A 
ATOM      5  C   UNL     1     -11.530  14.612  66.552  0.00  0.00    +0.004 A 
ATOM      6  C   UNL     1     -11.745  13.384  65.940  0.00  0.00    +0.021 A 
ATOM      7  C   UNL     1     -11.825  12.239  66.710  0.00  0.00    +0.099 A 
ATOM      8  C   UNL     1     -11.451  15.794  68.618  0.00  0.00    +0.060 A 
ATOM      9 CL   UNL     1     -10.649  17.181  67.888  0.00  0.00    -0.082 Cl
ATOM     10  C   UNL     1     -12.032  15.885  69.877  0.00  0.00    +0.020 A 
ATOM     11  N   UNL     1     -11.442  12.269  68.012  0.00  0.00    -0.241 NA
ATOM     12  C   UNL     1     -12.446  14.724  70.521  0.00  0.00    +0.071 A 
ATOM     13  I   UNL     1     -14.089  14.730  71.854  0.00  0.00    -0.039 I 
ENDROOT
TORSDOF 0
ENDMDL
MODEL 5
REMARK VINA RESULT:      -4.9      3.286      4.521
REMARK  Name = 
REMARK  0 active torsions:
REMARK  status: ('A' for Active; 'I' for Inactive)
REMARK                            x       y       z     vdW  Elec       q    Type
REMARK                         _______ _______ _______ _____ _____    ______ ____
ROOT
ATOM      1  O   UNL     1     -12.491  15.923  70.131  0.00  0.00    -0.285 OA
ATOM      2  C   UNL     1     -12.590  14.564  70.416  0.00  0.00    +0.218 A 
ATOM      3  C   UNL     1     -12.017  13.681  69.514  0.00  0.00    +0.121 A 
ATOM      4  C   UNL     1     -11.971  12.333  69.851  0.00  0.00    +0.031 A 
ATOM      5  C   UNL     1     -11.014  11.475  69.348  0.00  0.00    +0.004 A 
ATOM      6  C   UNL     1     -10.127  12.024  68.432  0.00  0.00    +0.021 A 
ATOM      7  C   UNL     1     -10.242  13.356  68.079  0.00  0.00    +0.099 A 
ATOM      8  C   UNL     1     -12.720  11.925  70.948  0.00  0.00    +0.060 A 
ATOM      9 CL   UNL     1     -13.215  10.237  71.017  0.00  0.00    -0.082 Cl
ATOM     10  C   UNL     1     -13.132  12.830  71.919  0.00  0.00    +0.020 A 
ATOM     11  N   UNL     1     -11.357  14.053  68.418  0.00  0.00    -0.241 NA
ATOM     12  C   UNL     1     -12.923  14.190  71.712  0.00  0.00    +0.071 A 
ATOM     13  I   UNL     1     -12.596  15.511  73.333  0.00  0.00    -0.039 I 
ENDROOT
TORSDOF 0
ENDMDL
MODEL 6
REMARK VINA RESULT:      -4.8      3.758      4.762
REMARK  Name = 
REMARK  0 active torsions:
REMARK  status: ('A' for Active; 'I' for Inactive)
REMARK                            x       y       z     vdW  Elec       q    Type
REMARK                         _______ _______ _______ _____ _____    ______ ____
ROOT
ATOM      1  O   UNL     1     -10.740  13.590  65.864  0.00  0.00    -0.285 OA
ATOM      2  C   UNL     1     -11.155  14.093  67.092  0.00  0.00    +0.218 A 
ATOM      3  C   UNL     1     -11.741  13.205  67.980  0.00  0.00    +0.121 A 
ATOM      4  C   UNL     1     -12.025  13.649  69.266  0.00  0.00    +0.031 A 
ATOM      5  C   UNL     1     -12.094  12.795  70.348  0.00  0.00    +0.004 A 
ATOM      6  C   UNL     1     -11.920  11.445  70.069  0.00  0.00    +0.021 A 
ATOM      7  C   UNL     1     -11.697  11.038  68.766  0.00  0.00    +0.099 A 
ATOM      8  C   UNL     1     -11.935  15.015  69.503  0.00  0.00    +0.060 A 
ATOM      9 CL   UNL     1     -12.876  15.678  70.835  0.00  0.00    -0.082 Cl
ATOM     10  C   UNL     1     -11.193  15.844  68.671  0.00  0.00    +0.020 A 
ATOM     11  N   UNL     1     -11.901  11.903  67.741  0.00  0.00    -0.241 NA
ATOM     12  C   UNL     1     -10.655  15.326  67.497  0.00  0.00    +0.071 A 
ATOM     13  I   UNL     1      -8.848  16.074  66.690  0.00  0.00    -0.039 I 
ENDROOT
TORSDOF 0
ENDMDL
MODEL 7
REMARK VINA RESULT:      -4.8      3.320      4.804
REMARK  Name = 
REMARK  0 active torsions:
REMARK  status: ('A' for Active; 'I' for Inactive)
REMARK                            x       y       z     vdW  Elec       q    Type
REMARK                         _______ _______ _______ _____ _____    ______ ____
ROOT
ATOM      1  O   UNL     1     -10.847  10.045  68.120  0.00  0.00    -0.285 OA
ATOM      2  C   UNL     1     -11.165  11.385  68.319  0.00  0.00    +0.218 A 
ATOM      3  C   UNL     1     -11.294  12.184  67.194  0.00  0.00    +0.121 A 
ATOM      4  C   UNL     1     -11.758  13.483  67.358  0.00  0.00    +0.031 A 
ATOM      5  C   UNL     1     -12.415  14.169  66.356  0.00  0.00    +0.004 A 
ATOM      6  C   UNL     1     -12.536  13.503  65.143  0.00  0.00    +0.021 A 
ATOM      7  C   UNL     1     -12.010  12.232  65.003  0.00  0.00    +0.099 A 
ATOM      8  C   UNL     1     -11.824  13.978  68.655  0.00  0.00    +0.060 A 
ATOM      9 CL   UNL     1     -11.759  15.724  68.869  0.00  0.00    -0.082 Cl
ATOM     10  C   UNL     1     -11.861  13.125  69.751  0.00  0.00    +0.020 A 
ATOM     11  N   UNL     1     -11.163  11.742  65.943  0.00  0.00    -0.241 NA
ATOM     12  C   UNL     1     -11.675  11.760  69.557  0.00  0.00    +0.071 A 
ATOM     13  I   UNL     1     -12.597  10.334  70.820  0.00  0.00    -0.039 I 
ENDROOT
TORSDOF 0
ENDMDL
MODEL 8
REMARK VINA RESULT:      -4.8      4.717      5.945
REMARK  Name = 
REMARK  0 active torsions:
REMARK  status: ('A' for Active; 'I' for Inactive)
REMARK                            x       y       z     vdW  Elec       q    Type
REMARK                         _______ _______ _______ _____ _____    ______ ____
ROOT
ATOM      1  O   UNL     1     -10.076  16.406  65.360  0.00  0.00    -0.285 OA
ATOM      2  C   UNL     1     -10.570  16.224  66.648  0.00  0.00    +0.218 A 
ATOM      3  C   UNL     1     -11.272  15.056  66.903  0.00  0.00    +0.121 A 
ATOM      4  C   UNL     1     -11.643  14.783  68.214  0.00  0.00    +0.031 A 
ATOM      5  C   UNL     1     -11.845  13.497  68.675  0.00  0.00    +0.004 A 
ATOM      6  C   UNL     1     -11.713  12.486  67.733  0.00  0.00    +0.021 A 
ATOM      7  C   UNL     1     -11.399  12.804  66.424  0.00  0.00    +0.099 A 
ATOM      8  C   UNL     1     -11.508  15.808  69.141  0.00  0.00    +0.060 A 
ATOM      9 CL   UNL     1     -12.527  15.752  70.576  0.00  0.00    -0.082 Cl
ATOM     10  C   UNL     1     -10.659  16.883  68.910  0.00  0.00    +0.020 A 
ATOM     11  N   UNL     1     -11.473  14.092  66.004  0.00  0.00    -0.241 NA
ATOM     12  C   UNL     1     -10.049  17.013  67.667  0.00  0.00    +0.071 A 
ATOM     13  I   UNL     1      -8.145  17.915  67.464  0.00  0.00    -0.039 I 
ENDROOT
TORSDOF 0
ENDMDL
MODEL 9
REMARK VINA RESULT:      -4.7      3.745      4.713
REMARK  Name = 
REMARK  0 active torsions:
REMARK  status: ('A' for Active; 'I' for Inactive)
REMARK                            x       y       z     vdW  Elec       q    Type
REMARK                         _______ _______ _______ _____ _____    ______ ____
ROOT
ATOM      1  O   UNL     1     -11.858  13.735  69.613  0.00  0.00    -0.285 OA
ATOM      2  C   UNL     1     -11.809  13.585  68.231  0.00  0.00    +0.218 A 
ATOM      3  C   UNL     1     -11.523  14.712  67.477  0.00  0.00    +0.121 A 
ATOM      4  C   UNL     1     -11.319  14.557  66.111  0.00  0.00    +0.031 A 
ATOM      5  C   UNL     1     -10.543  15.428  65.373  0.00  0.00    +0.004 A 
ATOM      6  C   UNL     1     -10.019  16.512  66.066  0.00  0.00    +0.021 A 
ATOM      7  C   UNL     1     -10.292  16.661  67.413  0.00  0.00    +0.099 A 
ATOM      8  C   UNL     1     -11.659  13.332  65.551  0.00  0.00    +0.060 A 
ATOM      9 CL   UNL     1     -12.042  13.297  63.833  0.00  0.00    -0.082 Cl
ATOM     10  C   UNL     1     -11.772  12.188  66.331  0.00  0.00    +0.020 A 
ATOM     11  N   UNL     1     -11.264  15.914  67.994  0.00  0.00    -0.241 NA
ATOM     12  C   UNL     1     -11.692  12.299  67.716  0.00  0.00    +0.071 A 
ATOM     13  I   UNL     1     -10.913  10.729  68.902  0.00  0.00    -0.039 I 
ENDROOT
TORSDOF 0
ENDMDL
