MODEL 1
REMARK VINA RESULT:      -7.2      0.000      0.000
REMARK  Name = 
REMARK  2 active torsions:
REMARK  status: ('A' for Active; 'I' for Inactive)
REMARK    1  A    between atoms: C_23  and  C_25
REMARK    2  A    between atoms: C_25  and  C_27
REMARK                            x       y       z     vdW  Elec       q    Type
REMARK                         _______ _______ _______ _____ _____    ______ ____
ROOT
ATOM      1  C   UNL     1      -7.255  16.289  66.901  0.00  0.00    +0.003 C 
ATOM      2  C   UNL     1      -8.134  16.981  68.092  0.00  0.00    +0.035 C 
ATOM      3  C   UNL     1      -9.366  17.372  67.103  0.00  0.00    +0.180 C 
ATOM      4  O   UNL     1      -8.852  17.965  65.975  0.00  0.00    -0.218 OA
ATOM      5  C   UNL     1     -10.181  16.203  66.886  0.00  0.00    +0.035 C 
ATOM      6  C   UNL     1      -9.062  15.082  67.180  0.00  0.00    +0.006 C 
ATOM      7  C   UNL     1     -10.300  13.989  67.522  0.00  0.00    +0.034 C 
ATOM      8  C   UNL     1     -10.294  13.453  66.018  0.00  0.00    +0.168 C 
ATOM      9  C   UNL     1     -11.271  14.496  65.201  0.00  0.00    +0.182 C 
ATOM     10  O   UNL     1     -12.302  14.595  66.317  0.00  0.00    -0.220 OA
ATOM     11  F   UNL     1      -9.094  13.525  65.430  0.00  0.00    -0.237 F 
ATOM     12  C   UNL     1     -10.908  12.102  65.955  0.00  0.00    +0.064 C 
ATOM     13  C   UNL     1     -10.993  11.404  67.263  0.00  0.00    -0.035 C 
ATOM     14  C   UNL     1     -10.871  10.078  67.289  0.00  0.00    +0.034 C 
ATOM     15  C   UNL     1     -10.151   9.321  66.260  0.00  0.00    +0.195 C 
ATOM     16  C   UNL     1      -9.664  10.111  65.130  0.00  0.00    +0.038 C 
ATOM     17  O   UNL     1      -9.266   8.449  66.564  0.00  0.00    -0.287 OA
ATOM     18  C   UNL     1     -10.588  12.061  68.560  0.00  0.00    +0.023 C 
ATOM     19  C   UNL     1     -12.269  12.152  65.253  0.00  0.00    +0.011 C 
ATOM     20  C   UNL     1     -10.079  11.350  64.951  0.00  0.00    -0.017 C 
ATOM     21  C   UNL     1      -9.327  12.815  68.078  0.00  0.00    +0.007 C 
ATOM     22  C   UNL     1     -11.241  16.186  67.908  0.00  0.00    +0.003 C 
ATOM     23  C   UNL     1     -10.521  15.909  65.541  0.00  0.00    +0.038 C 
ATOM     24  C   UNL     1      -8.867  15.638  68.679  0.00  0.00    +0.003 C 
ENDROOT
BRANCH   3  25
ATOM     25  C   UNL     1      -9.873  18.463  67.932  0.00  0.00    +0.211 C 
ATOM     26  O   UNL     1      -9.355  18.946  68.937  0.00  0.00    -0.291 OA
BRANCH  25  27
ATOM     27  C   UNL     1     -10.578  19.528  67.137  0.00  0.00    +0.248 C 
ATOM     28  O   UNL     1      -9.905  20.702  67.425  0.00  0.00    -0.212 OA
ENDBRANCH  25  27
ENDBRANCH   3  25
TORSDOF 2
ENDMDL
MODEL 2
REMARK VINA RESULT:      -7.0      2.296      6.828
REMARK  Name = 
REMARK  2 active torsions:
REMARK  status: ('A' for Active; 'I' for Inactive)
REMARK    1  A    between atoms: C_23  and  C_25
REMARK    2  A    between atoms: C_25  and  C_27
REMARK                            x       y       z     vdW  Elec       q    Type
REMARK                         _______ _______ _______ _____ _____    ______ ____
ROOT
ATOM      1  C   UNL     1      -9.592  13.662  68.934  0.00  0.00    +0.003 C 
ATOM      2  C   UNL     1      -9.698  13.117  67.398  0.00  0.00    +0.035 C 
ATOM      3  C   UNL     1     -10.924  14.116  67.013  0.00  0.00    +0.180 C 
ATOM      4  O   UNL     1     -11.873  14.048  68.005  0.00  0.00    -0.218 OA
ATOM      5  C   UNL     1     -10.391  15.427  66.740  0.00  0.00    +0.035 C 
ATOM      6  C   UNL     1      -9.036  15.312  67.605  0.00  0.00    +0.006 C 
ATOM      7  C   UNL     1      -8.365  16.526  66.646  0.00  0.00    +0.034 C 
ATOM      8  C   UNL     1      -8.812  17.649  67.689  0.00  0.00    +0.168 C 
ATOM      9  C   UNL     1     -10.364  18.007  67.274  0.00  0.00    +0.182 C 
ATOM     10  O   UNL     1     -10.104  17.956  65.776  0.00  0.00    -0.220 OA
ATOM     11  F   UNL     1      -8.853  17.217  68.955  0.00  0.00    -0.237 F 
ATOM     12  C   UNL     1      -7.993  18.874  67.504  0.00  0.00    +0.064 C 
ATOM     13  C   UNL     1      -6.734  18.663  66.745  0.00  0.00    -0.035 C 
ATOM     14  C   UNL     1      -5.667  19.396  67.057  0.00  0.00    +0.034 C 
ATOM     15  C   UNL     1      -5.465  19.988  68.384  0.00  0.00    +0.195 C 
ATOM     16  C   UNL     1      -6.575  19.815  69.320  0.00  0.00    +0.038 C 
ATOM     17  O   UNL     1      -4.365  19.850  69.020  0.00  0.00    -0.287 OA
ATOM     18  C   UNL     1      -6.377  17.335  66.122  0.00  0.00    +0.023 C 
ATOM     19  C   UNL     1      -8.830  20.007  66.904  0.00  0.00    +0.011 C 
ATOM     20  C   UNL     1      -7.748  19.386  68.897  0.00  0.00    -0.017 C 
ATOM     21  C   UNL     1      -6.862  16.391  67.245  0.00  0.00    +0.007 C 
ATOM     22  C   UNL     1     -10.102  15.514  65.298  0.00  0.00    +0.003 C 
ATOM     23  C   UNL     1     -11.033  16.519  67.378  0.00  0.00    +0.038 C 
ATOM     24  C   UNL     1      -8.548  14.063  66.713  0.00  0.00    +0.003 C 
ENDROOT
BRANCH   3  25
ATOM     25  C   UNL     1     -11.434  13.300  65.915  0.00  0.00    +0.211 C 
ATOM     26  O   UNL     1     -11.214  12.110  65.698  0.00  0.00    -0.291 OA
BRANCH  25  27
ATOM     27  C   UNL     1     -12.841  13.657  65.519  0.00  0.00    +0.248 C 
ATOM     28  O   UNL     1     -13.256  12.632  64.688  0.00  0.00    -0.212 OA
ENDBRANCH  25  27
ENDBRANCH   3  25
TORSDOF 2
ENDMDL
MODEL 3
REMARK VINA RESULT:      -6.6      2.614      7.229
REMARK  Name = 
REMARK  2 active torsions:
REMARK  status: ('A' for Active; 'I' for Inactive)
REMARK    1  A    between atoms: C_23  and  C_25
REMARK    2  A    between atoms: C_25  and  C_27
REMARK                            x       y       z     vdW  Elec       q    Type
REMARK                         _______ _______ _______ _____ _____    ______ ____
ROOT
ATOM      1  C   UNL     1      -6.789  10.130  65.428  0.00  0.00    +0.003 C 
ATOM      2  C   UNL     1      -7.678   8.785  65.171  0.00  0.00    +0.035 C 
ATOM      3  C   UNL     1      -8.234   8.729  66.700  0.00  0.00    +0.180 C 
ATOM      4  O   UNL     1      -7.173   8.893  67.558  0.00  0.00    -0.218 OA
ATOM      5  C   UNL     1      -9.311   9.675  66.842  0.00  0.00    +0.035 C 
ATOM      6  C   UNL     1      -8.899  10.677  65.649  0.00  0.00    +0.006 C 
ATOM      7  C   UNL     1     -10.501  11.198  65.583  0.00  0.00    +0.034 C 
ATOM      8  C   UNL     1     -10.187  12.412  66.572  0.00  0.00    +0.168 C 
ATOM      9  C   UNL     1     -10.328  11.766  68.080  0.00  0.00    +0.182 C 
ATOM     10  O   UNL     1     -11.553  10.930  67.739  0.00  0.00    -0.220 OA
ATOM     11  F   UNL     1      -8.932  12.868  66.476  0.00  0.00    -0.237 F 
ATOM     12  C   UNL     1     -11.219  13.470  66.427  0.00  0.00    +0.064 C 
ATOM     13  C   UNL     1     -12.017  13.383  65.178  0.00  0.00    -0.035 C 
ATOM     14  C   UNL     1     -12.442  14.510  64.610  0.00  0.00    +0.034 C 
ATOM     15  C   UNL     1     -11.769  15.800  64.793  0.00  0.00    +0.195 C 
ATOM     16  C   UNL     1     -10.654  15.794  65.739  0.00  0.00    +0.038 C 
ATOM     17  O   UNL     1     -11.462  16.544  63.800  0.00  0.00    -0.287 OA
ATOM     18  C   UNL     1     -11.862  12.248  64.195  0.00  0.00    +0.023 C 
ATOM     19  C   UNL     1     -12.116  13.534  67.667  0.00  0.00    +0.011 C 
ATOM     20  C   UNL     1     -10.459  14.764  66.539  0.00  0.00    -0.017 C 
ATOM     21  C   UNL     1     -10.325  12.087  64.236  0.00  0.00    +0.007 C 
ATOM     22  C   UNL     1     -10.575   8.979  66.545  0.00  0.00    +0.003 C 
ATOM     23  C   UNL     1      -9.252  10.540  67.963  0.00  0.00    +0.038 C 
ATOM     24  C   UNL     1      -9.033   9.487  64.573  0.00  0.00    +0.003 C 
ENDROOT
BRANCH   3  25
ATOM     25  C   UNL     1      -8.524   7.297  66.693  0.00  0.00    +0.211 C 
ATOM     26  O   UNL     1      -8.425   6.515  65.750  0.00  0.00    -0.291 OA
BRANCH  25  27
ATOM     27  C   UNL     1      -8.161   6.616  67.984  0.00  0.00    +0.248 C 
ATOM     28  O   UNL     1      -9.322   6.616  68.736  0.00  0.00    -0.212 OA
ENDBRANCH  25  27
ENDBRANCH   3  25
TORSDOF 2
ENDMDL
MODEL 4
REMARK VINA RESULT:      -6.6      2.450      3.699
REMARK  Name = 
REMARK  2 active torsions:
REMARK  status: ('A' for Active; 'I' for Inactive)
REMARK    1  A    between atoms: C_23  and  C_25
REMARK    2  A    between atoms: C_25  and  C_27
REMARK                            x       y       z     vdW  Elec       q    Type
REMARK                         _______ _______ _______ _____ _____    ______ ____
ROOT
ATOM      1  C   UNL     1      -6.145  17.906  69.219  0.00  0.00    +0.003 C 
ATOM      2  C   UNL     1      -6.878  19.308  68.813  0.00  0.00    +0.035 C 
ATOM      3  C   UNL     1      -6.837  18.994  67.217  0.00  0.00    +0.180 C 
ATOM      4  O   UNL     1      -5.572  18.572  66.886  0.00  0.00    -0.218 OA
ATOM      5  C   UNL     1      -7.909  18.088  66.890  0.00  0.00    +0.035 C 
ATOM      6  C   UNL     1      -8.089  17.408  68.340  0.00  0.00    +0.006 C 
ATOM      7  C   UNL     1      -9.664  16.988  67.906  0.00  0.00    +0.034 C 
ATOM      8  C   UNL     1      -9.182  15.550  67.407  0.00  0.00    +0.168 C 
ATOM      9  C   UNL     1      -8.687  15.793  65.856  0.00  0.00    +0.182 C 
ATOM     10  O   UNL     1      -9.829  16.738  65.511  0.00  0.00    -0.220 OA
ATOM     11  F   UNL     1      -8.119  15.082  68.071  0.00  0.00    -0.237 F 
ATOM     12  C   UNL     1     -10.330  14.608  67.380  0.00  0.00    +0.064 C 
ATOM     13  C   UNL     1     -11.503  15.044  68.179  0.00  0.00    -0.035 C 
ATOM     14  C   UNL     1     -12.250  14.118  68.778  0.00  0.00    +0.034 C 
ATOM     15  C   UNL     1     -11.737  12.798  69.155  0.00  0.00    +0.195 C 
ATOM     16  C   UNL     1     -10.367  12.516  68.729  0.00  0.00    +0.038 C 
ATOM     17  O   UNL     1     -11.908  12.322  70.330  0.00  0.00    -0.287 OA
ATOM     18  C   UNL     1     -11.559  16.386  68.869  0.00  0.00    +0.023 C 
ATOM     19  C   UNL     1     -10.724  14.265  65.940  0.00  0.00    +0.011 C 
ATOM     20  C   UNL     1      -9.762  13.298  67.856  0.00  0.00    -0.017 C 
ATOM     21  C   UNL     1     -10.102  16.468  69.380  0.00  0.00    +0.007 C 
ATOM     22  C   UNL     1      -9.090  18.888  66.521  0.00  0.00    +0.003 C 
ATOM     23  C   UNL     1      -7.570  16.962  66.098  0.00  0.00    +0.038 C 
ATOM     24  C   UNL     1      -8.439  18.839  68.991  0.00  0.00    +0.003 C 
ENDROOT
BRANCH   3  25
ATOM     25  C   UNL     1      -6.916  20.389  66.794  0.00  0.00    +0.211 C 
ATOM     26  O   UNL     1      -7.092  21.380  67.502  0.00  0.00    -0.291 OA
BRANCH  25  27
ATOM     27  C   UNL     1      -5.989  20.714  65.654  0.00  0.00    +0.248 C 
ATOM     28  O   UNL     1      -6.739  20.513  64.508  0.00  0.00    -0.212 OA
ENDBRANCH  25  27
ENDBRANCH   3  25
TORSDOF 2
ENDMDL
MODEL 5
REMARK VINA RESULT:      -6.6      2.008      4.337
REMARK  Name = 
REMARK  2 active torsions:
REMARK  status: ('A' for Active; 'I' for Inactive)
REMARK    1  A    between atoms: C_23  and  C_25
REMARK    2  A    between atoms: C_25  and  C_27
REMARK                            x       y       z     vdW  Elec       q    Type
REMARK                         _______ _______ _______ _____ _____    ______ ____
ROOT
ATOM      1  C   UNL     1     -12.683  12.866  65.028  0.00  0.00    +0.003 C 
ATOM      2  C   UNL     1     -11.452  13.877  64.668  0.00  0.00    +0.035 C 
ATOM      3  C   UNL     1     -11.119  14.201  66.228  0.00  0.00    +0.180 C 
ATOM      4  O   UNL     1     -12.296  14.495  66.875  0.00  0.00    -0.218 OA
ATOM      5  C   UNL     1     -10.351  13.114  66.780  0.00  0.00    +0.035 C 
ATOM      6  C   UNL     1     -10.837  11.953  65.773  0.00  0.00    +0.006 C 
ATOM      7  C   UNL     1      -9.428  11.100  66.138  0.00  0.00    +0.034 C 
ATOM      8  C   UNL     1     -10.179  10.277  67.283  0.00  0.00    +0.168 C 
ATOM      9  C   UNL     1     -10.088  11.241  68.614  0.00  0.00    +0.182 C 
ATOM     10  O   UNL     1      -8.654  11.678  68.350  0.00  0.00    -0.220 OA
ATOM     11  F   UNL     1     -11.482  10.093  67.041  0.00  0.00    -0.237 F 
ATOM     12  C   UNL     1      -9.443   9.021  67.574  0.00  0.00    +0.064 C 
ATOM     13  C   UNL     1      -8.483   8.610  66.519  0.00  0.00    -0.035 C 
ATOM     14  C   UNL     1      -8.286   7.311  66.301  0.00  0.00    +0.034 C 
ATOM     15  C   UNL     1      -9.286   6.287  66.621  0.00  0.00    +0.195 C 
ATOM     16  C   UNL     1     -10.483   6.776  67.304  0.00  0.00    +0.038 C 
ATOM     17  O   UNL     1      -9.632   5.398  65.769  0.00  0.00    -0.287 OA
ATOM     18  C   UNL     1      -8.203   9.462  65.304  0.00  0.00    +0.023 C 
ATOM     19  C   UNL     1      -8.774   9.085  68.951  0.00  0.00    +0.011 C 
ATOM     20  C   UNL     1     -10.517   7.994  67.809  0.00  0.00    -0.017 C 
ATOM     21  C   UNL     1      -9.637   9.956  65.005  0.00  0.00    +0.007 C 
ATOM     22  C   UNL     1      -8.922  13.422  66.596  0.00  0.00    +0.003 C 
ATOM     23  C   UNL     1     -10.787  12.598  68.027  0.00  0.00    +0.038 C 
ATOM     24  C   UNL     1     -10.252  12.770  64.514  0.00  0.00    +0.003 C 
ENDROOT
BRANCH   3  25
ATOM     25  C   UNL     1     -10.474  15.486  65.972  0.00  0.00    +0.211 C 
ATOM     26  O   UNL     1     -10.493  16.143  64.933  0.00  0.00    -0.291 OA
BRANCH  25  27
ATOM     27  C   UNL     1     -10.472  16.395  67.171  0.00  0.00    +0.248 C 
ATOM     28  O   UNL     1     -10.435  17.678  66.654  0.00  0.00    -0.212 OA
ENDBRANCH  25  27
ENDBRANCH   3  25
TORSDOF 2
ENDMDL
MODEL 6
REMARK VINA RESULT:      -6.6      2.556      7.159
REMARK  Name = 
REMARK  2 active torsions:
REMARK  status: ('A' for Active; 'I' for Inactive)
REMARK    1  A    between atoms: C_23  and  C_25
REMARK    2  A    between atoms: C_25  and  C_27
REMARK                            x       y       z     vdW  Elec       q    Type
REMARK                         _______ _______ _______ _____ _____    ______ ____
ROOT
ATOM      1  C   UNL     1     -10.410  15.526  65.270  0.00  0.00    +0.003 C 
ATOM      2  C   UNL     1     -11.203  15.142  66.645  0.00  0.00    +0.035 C 
ATOM      3  C   UNL     1     -10.036  14.135  67.166  0.00  0.00    +0.180 C 
ATOM      4  O   UNL     1      -9.681  13.303  66.132  0.00  0.00    -0.218 OA
ATOM      5  C   UNL     1      -8.969  14.913  67.743  0.00  0.00    +0.035 C 
ATOM      6  C   UNL     1      -9.232  16.292  66.951  0.00  0.00    +0.006 C 
ATOM      7  C   UNL     1      -8.424  17.111  68.185  0.00  0.00    +0.034 C 
ATOM      8  C   UNL     1      -7.046  17.034  67.383  0.00  0.00    +0.168 C 
ATOM      9  C   UNL     1      -6.417  15.566  67.778  0.00  0.00    +0.182 C 
ATOM     10  O   UNL     1      -6.820  15.650  69.243  0.00  0.00    -0.220 OA
ATOM     11  F   UNL     1      -7.199  17.032  66.054  0.00  0.00    -0.237 F 
ATOM     12  C   UNL     1      -6.112  18.081  67.873  0.00  0.00    +0.064 C 
ATOM     13  C   UNL     1      -6.761  19.175  68.638  0.00  0.00    -0.035 C 
ATOM     14  C   UNL     1      -6.256  20.404  68.550  0.00  0.00    +0.034 C 
ATOM     15  C   UNL     1      -5.482  20.870  67.395  0.00  0.00    +0.195 C 
ATOM     16  C   UNL     1      -5.199  19.854  66.383  0.00  0.00    +0.038 C 
ATOM     17  O   UNL     1      -5.751  21.973  66.807  0.00  0.00    -0.287 OA
ATOM     18  C   UNL     1      -8.231  19.162  68.981  0.00  0.00    +0.023 C 
ATOM     19  C   UNL     1      -4.952  17.457  68.654  0.00  0.00    +0.011 C 
ATOM     20  C   UNL     1      -5.411  18.577  66.638  0.00  0.00    -0.017 C 
ATOM     21  C   UNL     1      -8.794  18.600  67.655  0.00  0.00    +0.007 C 
ATOM     22  C   UNL     1      -9.237  15.062  69.184  0.00  0.00    +0.003 C 
ATOM     23  C   UNL     1      -7.653  14.598  67.320  0.00  0.00    +0.038 C 
ATOM     24  C   UNL     1     -10.711  16.396  67.580  0.00  0.00    +0.003 C 
ENDROOT
BRANCH   3  25
ATOM     25  C   UNL     1     -10.905  13.345  68.034  0.00  0.00    +0.211 C 
ATOM     26  O   UNL     1     -12.084  13.558  68.312  0.00  0.00    -0.291 OA
BRANCH  25  27
ATOM     27  C   UNL     1     -10.645  11.866  67.941  0.00  0.00    +0.248 C 
ATOM     28  O   UNL     1     -11.880  11.294  67.695  0.00  0.00    -0.212 OA
ENDBRANCH  25  27
ENDBRANCH   3  25
TORSDOF 2
ENDMDL
MODEL 7
REMARK VINA RESULT:      -6.6      2.206      3.608
REMARK  Name = 
REMARK  2 active torsions:
REMARK  status: ('A' for Active; 'I' for Inactive)
REMARK    1  A    between atoms: C_23  and  C_25
REMARK    2  A    between atoms: C_25  and  C_27
REMARK                            x       y       z     vdW  Elec       q    Type
REMARK                         _______ _______ _______ _____ _____    ______ ____
ROOT
ATOM      1  C   UNL     1      -7.900  18.898  65.777  0.00  0.00    +0.003 C 
ATOM      2  C   UNL     1      -6.643  18.525  66.751  0.00  0.00    +0.035 C 
ATOM      3  C   UNL     1      -7.481  18.802  68.119  0.00  0.00    +0.180 C 
ATOM      4  O   UNL     1      -8.131  20.007  67.998  0.00  0.00    -0.218 OA
ATOM      5  C   UNL     1      -8.315  17.660  68.397  0.00  0.00    +0.035 C 
ATOM      6  C   UNL     1      -8.439  17.093  66.894  0.00  0.00    +0.006 C 
ATOM      7  C   UNL     1      -8.799  15.576  67.537  0.00  0.00    +0.034 C 
ATOM      8  C   UNL     1     -10.366  15.867  67.446  0.00  0.00    +0.168 C 
ATOM      9  C   UNL     1     -10.719  16.677  68.835  0.00  0.00    +0.182 C 
ATOM     10  O   UNL     1      -9.822  15.814  69.710  0.00  0.00    -0.220 OA
ATOM     11  F   UNL     1     -10.701  16.684  66.440  0.00  0.00    -0.237 F 
ATOM     12  C   UNL     1     -11.125  14.590  67.454  0.00  0.00    +0.064 C 
ATOM     13  C   UNL     1     -10.313  13.391  67.126  0.00  0.00    -0.035 C 
ATOM     14  C   UNL     1     -10.890  12.388  66.467  0.00  0.00    +0.034 C 
ATOM     15  C   UNL     1     -12.055  12.569  65.595  0.00  0.00    +0.195 C 
ATOM     16  C   UNL     1     -12.619  13.918  65.581  0.00  0.00    +0.038 C 
ATOM     17  O   UNL     1     -12.085  12.099  64.407  0.00  0.00    -0.287 OA
ATOM     18  C   UNL     1      -8.820  13.457  66.911  0.00  0.00    +0.023 C 
ATOM     19  C   UNL     1     -11.885  14.413  68.771  0.00  0.00    +0.011 C 
ATOM     20  C   UNL     1     -12.252  14.808  66.482  0.00  0.00    -0.017 C 
ATOM     21  C   UNL     1      -8.738  14.784  66.121  0.00  0.00    +0.007 C 
ATOM     22  C   UNL     1      -7.557  16.737  69.259  0.00  0.00    +0.003 C 
ATOM     23  C   UNL     1      -9.673  17.927  68.705  0.00  0.00    +0.038 C 
ATOM     24  C   UNL     1      -6.843  16.899  66.811  0.00  0.00    +0.003 C 
ENDROOT
BRANCH   3  25
ATOM     25  C   UNL     1      -6.310  19.063  68.952  0.00  0.00    +0.211 C 
ATOM     26  O   UNL     1      -5.140  19.179  68.590  0.00  0.00    -0.291 OA
BRANCH  25  27
ATOM     27  C   UNL     1      -6.600  19.986  70.104  0.00  0.00    +0.248 C 
ATOM     28  O   UNL     1      -5.560  20.899  70.110  0.00  0.00    -0.212 OA
ENDBRANCH  25  27
ENDBRANCH   3  25
TORSDOF 2
ENDMDL
MODEL 8
REMARK VINA RESULT:      -6.5      1.713      6.864
REMARK  Name = 
REMARK  2 active torsions:
REMARK  status: ('A' for Active; 'I' for Inactive)
REMARK    1  A    between atoms: C_23  and  C_25
REMARK    2  A    between atoms: C_25  and  C_27
REMARK                            x       y       z     vdW  Elec       q    Type
REMARK                         _______ _______ _______ _____ _____    ______ ____
ROOT
ATOM      1  C   UNL     1     -10.967  13.150  64.676  0.00  0.00    +0.003 C 
ATOM      2  C   UNL     1     -11.555  12.305  65.943  0.00  0.00    +0.035 C 
ATOM      3  C   UNL     1     -10.080  11.878  66.483  0.00  0.00    +0.180 C 
ATOM      4  O   UNL     1      -9.344  11.411  65.420  0.00  0.00    -0.218 OA
ATOM      5  C   UNL     1      -9.508  12.984  67.208  0.00  0.00    +0.035 C 
ATOM      6  C   UNL     1     -10.336  14.175  66.507  0.00  0.00    +0.006 C 
ATOM      7  C   UNL     1     -10.041  15.130  67.865  0.00  0.00    +0.034 C 
ATOM      8  C   UNL     1      -8.746  15.767  67.182  0.00  0.00    +0.168 C 
ATOM      9  C   UNL     1      -7.535  14.703  67.513  0.00  0.00    +0.182 C 
ATOM     10  O   UNL     1      -7.993  14.438  68.940  0.00  0.00    -0.220 OA
ATOM     11  F   UNL     1      -8.826  15.840  65.848  0.00  0.00    -0.237 F 
ATOM     12  C   UNL     1      -8.411  17.061  67.830  0.00  0.00    +0.064 C 
ATOM     13  C   UNL     1      -9.517  17.658  68.620  0.00  0.00    -0.035 C 
ATOM     14  C   UNL     1      -9.623  18.984  68.672  0.00  0.00    +0.034 C 
ATOM     15  C   UNL     1      -9.098  19.870  67.628  0.00  0.00    +0.195 C 
ATOM     16  C   UNL     1      -8.343  19.204  66.567  0.00  0.00    +0.038 C 
ATOM     17  O   UNL     1      -9.814  20.792  67.106  0.00  0.00    -0.287 OA
ATOM     18  C   UNL     1     -10.834  16.950  68.833  0.00  0.00    +0.023 C 
ATOM     19  C   UNL     1      -7.127  16.942  68.657  0.00  0.00    +0.011 C 
ATOM     20  C   UNL     1      -7.961  17.949  66.702  0.00  0.00    -0.017 C 
ATOM     21  C   UNL     1     -11.024  16.343  67.424  0.00  0.00    +0.007 C 
ATOM     22  C   UNL     1      -9.874  12.839  68.628  0.00  0.00    +0.003 C 
ATOM     23  C   UNL     1      -8.177  13.340  66.876  0.00  0.00    +0.038 C 
ATOM     24  C   UNL     1     -11.726  13.536  67.012  0.00  0.00    +0.003 C 
ENDROOT
BRANCH   3  25
ATOM     25  C   UNL     1     -10.531  10.693  67.207  0.00  0.00    +0.211 C 
ATOM     26  O   UNL     1     -11.688  10.356  67.451  0.00  0.00    -0.291 OA
BRANCH  25  27
ATOM     27  C   UNL     1      -9.671   9.484  66.955  0.00  0.00    +0.248 C 
ATOM     28  O   UNL     1     -10.542   8.505  66.509  0.00  0.00    -0.212 OA
ENDBRANCH  25  27
ENDBRANCH   3  25
TORSDOF 2
ENDMDL
MODEL 9
REMARK VINA RESULT:      -6.3      2.691      4.375
REMARK  Name = 
REMARK  2 active torsions:
REMARK  status: ('A' for Active; 'I' for Inactive)
REMARK    1  A    between atoms: C_23  and  C_25
REMARK    2  A    between atoms: C_25  and  C_27
REMARK                            x       y       z     vdW  Elec       q    Type
REMARK                         _______ _______ _______ _____ _____    ______ ____
ROOT
ATOM      1  C   UNL     1      -9.634  15.068  68.481  0.00  0.00    +0.003 C 
ATOM      2  C   UNL     1     -10.990  15.177  67.579  0.00  0.00    +0.035 C 
ATOM      3  C   UNL     1     -10.363  14.332  66.337  0.00  0.00    +0.180 C 
ATOM      4  O   UNL     1      -9.114  14.831  66.054  0.00  0.00    -0.218 OA
ATOM      5  C   UNL     1     -10.424  12.926  66.649  0.00  0.00    +0.035 C 
ATOM      6  C   UNL     1     -10.445  13.045  68.256  0.00  0.00    +0.006 C 
ATOM      7  C   UNL     1     -11.158  11.518  68.322  0.00  0.00    +0.034 C 
ATOM      8  C   UNL     1      -9.733  10.819  68.496  0.00  0.00    +0.168 C 
ATOM      9  C   UNL     1      -9.174  10.628  66.959  0.00  0.00    +0.182 C 
ATOM     10  O   UNL     1     -10.524  10.219  66.389  0.00  0.00    -0.220 OA
ATOM     11  F   UNL     1      -8.836  11.584  69.129  0.00  0.00    -0.237 F 
ATOM     12  C   UNL     1      -9.895   9.471  69.096  0.00  0.00    +0.064 C 
ATOM     13  C   UNL     1     -11.203   9.248  69.764  0.00  0.00    -0.035 C 
ATOM     14  C   UNL     1     -11.249   8.461  70.837  0.00  0.00    +0.034 C 
ATOM     15  C   UNL     1     -10.093   8.232  71.710  0.00  0.00    +0.195 C 
ATOM     16  C   UNL     1      -8.842   8.842  71.262  0.00  0.00    +0.038 C 
ATOM     17  O   UNL     1     -10.178   8.353  72.980  0.00  0.00    -0.287 OA
ATOM     18  C   UNL     1     -12.312  10.273  69.735  0.00  0.00    +0.023 C 
ATOM     19  C   UNL     1      -9.591   8.374  68.071  0.00  0.00    +0.011 C 
ATOM     20  C   UNL     1      -8.733   9.330  70.041  0.00  0.00    -0.017 C 
ATOM     21  C   UNL     1     -11.472  11.558  69.914  0.00  0.00    +0.007 C 
ATOM     22  C   UNL     1     -11.698  12.397  66.132  0.00  0.00    +0.003 C 
ATOM     23  C   UNL     1      -9.237  12.178  66.442  0.00  0.00    +0.038 C 
ATOM     24  C   UNL     1     -11.810  13.899  68.196  0.00  0.00    +0.003 C 
ENDROOT
BRANCH   3  25
ATOM     25  C   UNL     1     -11.253  14.887  65.322  0.00  0.00    +0.211 C 
ATOM     26  O   UNL     1     -12.450  14.653  65.163  0.00  0.00    -0.291 OA
BRANCH  25  27
ATOM     27  C   UNL     1     -10.948  16.323  64.991  0.00  0.00    +0.248 C 
ATOM     28  O   UNL     1     -11.691  16.601  63.857  0.00  0.00    -0.212 OA
ENDBRANCH  25  27
ENDBRANCH   3  25
TORSDOF 2
ENDMDL
