MODEL 1
REMARK VINA RESULT:      -7.6      0.000      0.000
REMARK  Name = 
REMARK  3 active torsions:
REMARK  status: ('A' for Active; 'I' for Inactive)
REMARK    1  A    between atoms: C_2  and  O_4
REMARK    2  A    between atoms: O_4  and  C_5
REMARK    3  A    between atoms: C_5  and  C_6
REMARK                            x       y       z     vdW  Elec       q    Type
REMARK                         _______ _______ _______ _____ _____    ______ ____
ROOT
ATOM      1  C   UNL     1     -10.606   8.864  69.745  0.00  0.00    +0.186 C 
ATOM      2  C   UNL     1     -10.517   9.842  68.658  0.00  0.00    +0.040 C 
ATOM      3  C   UNL     1     -11.759  10.853  68.933  0.00  0.00    +0.004 C 
ATOM      4  C   UNL     1     -10.856  12.171  68.395  0.00  0.00    +0.001 C 
ATOM      5  C   UNL     1     -11.611  11.954  66.899  0.00  0.00    +0.003 C 
ATOM      6  C   UNL     1     -10.530  10.824  66.454  0.00  0.00    +0.000 C 
ATOM      7  C   UNL     1     -10.875  13.209  66.196  0.00  0.00    +0.016 C 
ATOM      8  C   UNL     1     -11.233  14.428  66.941  0.00  0.00    -0.042 C 
ATOM      9  C   UNL     1     -10.817  15.561  66.366  0.00  0.00    +0.029 C 
ATOM     10  C   UNL     1     -11.106  15.652  64.926  0.00  0.00    +0.173 C 
ATOM     11  C   UNL     1     -12.089  14.613  64.483  0.00  0.00    +0.069 C 
ATOM     12  O   UNL     1     -11.194  16.764  64.344  0.00  0.00    -0.291 OA
ATOM     13  C   UNL     1     -10.800  14.470  68.487  0.00  0.00    +0.018 C 
ATOM     14  C   UNL     1     -11.846  15.676  68.844  0.00  0.00    +0.004 C 
ATOM     15  C   UNL     1      -9.467  12.974  65.939  0.00  0.00    +0.004 C 
ATOM     16  C   UNL     1     -11.625  13.255  64.895  0.00  0.00    +0.012 C 
ATOM     17  C   UNL     1     -11.892  13.302  68.870  0.00  0.00    +0.004 C 
ATOM     18  C   UNL     1     -11.373  10.898  70.508  0.00  0.00    +0.004 C 
ATOM     19  C   UNL     1      -9.217  10.530  68.814  0.00  0.00    +0.004 C 
ATOM     20  C   UNL     1     -10.820   9.560  67.265  0.00  0.00    +0.004 C 
ATOM     21  C   UNL     1     -11.777   9.407  70.568  0.00  0.00    +0.047 C 
ENDROOT
BRANCH   1  22
ATOM     22  C   UNL     1      -9.486   8.986  70.745  0.00  0.00    +0.187 C 
ATOM     23  O   UNL     1      -9.687   9.113  71.954  0.00  0.00    -0.292 OA
ATOM     24  C   UNL     1      -8.083   8.545  70.431  0.00  0.00    +0.076 C 
ENDBRANCH   1  22
BRANCH   1  25
ATOM     25  O   UNL     1     -10.783   7.574  69.265  0.00  0.00    -0.449 OA
BRANCH  25  27
ATOM     26  C   UNL     1     -10.194   5.391  70.409  0.00  0.00    +0.121 C 
ATOM     27  C   UNL     1     -11.074   6.531  70.150  0.00  0.00    +0.318 C 
ATOM     28  O   UNL     1     -12.307   6.517  70.457  0.00  0.00    -0.250 OA
ENDBRANCH  25  27
ENDBRANCH   1  25
TORSDOF 3
ENDMDL
MODEL 2
REMARK VINA RESULT:      -7.4      1.576      7.212
REMARK  Name = 
REMARK  3 active torsions:
REMARK  status: ('A' for Active; 'I' for Inactive)
REMARK    1  A    between atoms: C_2  and  O_4
REMARK    2  A    between atoms: O_4  and  C_5
REMARK    3  A    between atoms: C_5  and  C_6
REMARK                            x       y       z     vdW  Elec       q    Type
REMARK                         _______ _______ _______ _____ _____    ______ ____
ROOT
ATOM      1  C   UNL     1     -10.901  13.792  66.063  0.00  0.00    +0.186 C 
ATOM      2  C   UNL     1     -10.515  12.589  66.805  0.00  0.00    +0.040 C 
ATOM      3  C   UNL     1     -10.826  12.964  68.355  0.00  0.00    +0.004 C 
ATOM      4  C   UNL     1     -11.313  11.383  68.680  0.00  0.00    +0.001 C 
ATOM      5  C   UNL     1      -9.746  11.122  69.255  0.00  0.00    +0.003 C 
ATOM      6  C   UNL     1      -9.186  10.816  67.759  0.00  0.00    +0.000 C 
ATOM      7  C   UNL     1     -10.013   9.586  69.677  0.00  0.00    +0.016 C 
ATOM      8  C   UNL     1     -11.093   9.565  70.679  0.00  0.00    -0.042 C 
ATOM      9  C   UNL     1     -11.302   8.365  71.230  0.00  0.00    +0.029 C 
ATOM     10  C   UNL     1     -10.080   7.679  71.676  0.00  0.00    +0.173 C 
ATOM     11  C   UNL     1      -8.901   8.603  71.721  0.00  0.00    +0.069 C 
ATOM     12  O   UNL     1     -10.112   6.799  72.575  0.00  0.00    -0.291 OA
ATOM     13  C   UNL     1     -12.512  10.149  70.208  0.00  0.00    +0.018 C 
ATOM     14  C   UNL     1     -13.047  10.341  71.741  0.00  0.00    +0.004 C 
ATOM     15  C   UNL     1     -10.144   8.696  68.538  0.00  0.00    +0.004 C 
ATOM     16  C   UNL     1      -8.733   9.288  70.405  0.00  0.00    +0.012 C 
ATOM     17  C   UNL     1     -11.911  11.678  70.140  0.00  0.00    +0.004 C 
ATOM     18  C   UNL     1     -12.256  13.591  67.916  0.00  0.00    +0.004 C 
ATOM     19  C   UNL     1     -11.392  11.498  66.327  0.00  0.00    +0.004 C 
ATOM     20  C   UNL     1      -9.146  12.142  67.000  0.00  0.00    +0.004 C 
ATOM     21  C   UNL     1     -11.458  14.687  67.174  0.00  0.00    +0.047 C 
ENDROOT
BRANCH   1  22
ATOM     22  C   UNL     1     -12.137  13.598  65.222  0.00  0.00    +0.187 C 
ATOM     23  O   UNL     1     -13.188  14.203  65.437  0.00  0.00    -0.292 OA
ATOM     24  C   UNL     1     -12.076  13.007  63.840  0.00  0.00    +0.076 C 
ENDBRANCH   1  22
BRANCH   1  25
ATOM     25  O   UNL     1      -9.832  14.333  65.363  0.00  0.00    -0.449 OA
BRANCH  25  27
ATOM     26  C   UNL     1      -8.366  15.992  66.594  0.00  0.00    +0.121 C 
ATOM     27  C   UNL     1      -9.407  15.638  65.629  0.00  0.00    +0.318 C 
ATOM     28  O   UNL     1     -10.236  16.493  65.184  0.00  0.00    -0.250 OA
ENDBRANCH  25  27
ENDBRANCH   1  25
TORSDOF 3
ENDMDL
MODEL 3
REMARK VINA RESULT:      -7.1      3.943      6.322
REMARK  Name = 
REMARK  3 active torsions:
REMARK  status: ('A' for Active; 'I' for Inactive)
REMARK    1  A    between atoms: C_2  and  O_4
REMARK    2  A    between atoms: O_4  and  C_5
REMARK    3  A    between atoms: C_5  and  C_6
REMARK                            x       y       z     vdW  Elec       q    Type
REMARK                         _______ _______ _______ _____ _____    ______ ____
ROOT
ATOM      1  C   UNL     1     -10.963  13.520  67.469  0.00  0.00    +0.186 C 
ATOM      2  C   UNL     1     -10.577  14.934  67.467  0.00  0.00    +0.040 C 
ATOM      3  C   UNL     1      -9.044  14.925  68.005  0.00  0.00    +0.004 C 
ATOM      4  C   UNL     1      -8.634  16.194  66.974  0.00  0.00    +0.001 C 
ATOM      5  C   UNL     1      -8.892  17.220  68.291  0.00  0.00    +0.003 C 
ATOM      6  C   UNL     1     -10.490  17.284  68.001  0.00  0.00    +0.000 C 
ATOM      7  C   UNL     1      -8.498  18.566  67.491  0.00  0.00    +0.016 C 
ATOM      8  C   UNL     1      -7.106  18.433  67.024  0.00  0.00    -0.042 C 
ATOM      9  C   UNL     1      -6.604  19.548  66.483  0.00  0.00    +0.029 C 
ATOM     10  C   UNL     1      -6.839  20.766  67.273  0.00  0.00    +0.173 C 
ATOM     11  C   UNL     1      -7.298  20.454  68.665  0.00  0.00    +0.069 C 
ATOM     12  O   UNL     1      -6.095  21.774  67.163  0.00  0.00    -0.291 OA
ATOM     13  C   UNL     1      -6.806  17.216  66.020  0.00  0.00    +0.018 C 
ATOM     14  C   UNL     1      -5.193  17.271  66.288  0.00  0.00    +0.004 C 
ATOM     15  C   UNL     1      -9.493  18.961  66.512  0.00  0.00    +0.004 C 
ATOM     16  C   UNL     1      -8.487  19.551  68.625  0.00  0.00    +0.012 C 
ATOM     17  C   UNL     1      -7.049  16.113  67.215  0.00  0.00    +0.004 C 
ATOM     18  C   UNL     1      -8.708  13.675  67.027  0.00  0.00    +0.004 C 
ATOM     19  C   UNL     1     -10.653  15.389  66.061  0.00  0.00    +0.004 C 
ATOM     20  C   UNL     1     -11.087  15.932  68.391  0.00  0.00    +0.004 C 
ATOM     21  C   UNL     1      -9.665  12.835  67.902  0.00  0.00    +0.047 C 
ENDROOT
BRANCH   1  22
ATOM     22  C   UNL     1     -11.127  12.948  66.084  0.00  0.00    +0.187 C 
ATOM     23  O   UNL     1     -10.345  12.123  65.611  0.00  0.00    -0.292 OA
ATOM     24  C   UNL     1     -12.440  12.995  65.352  0.00  0.00    +0.076 C 
ENDBRANCH   1  22
BRANCH   1  25
ATOM     25  O   UNL     1     -12.050  13.284  68.299  0.00  0.00    -0.449 OA
BRANCH  25  27
ATOM     26  C   UNL     1     -11.996  11.043  69.482  0.00  0.00    +0.121 C 
ATOM     27  C   UNL     1     -11.897  12.503  69.449  0.00  0.00    +0.318 C 
ATOM     28  O   UNL     1     -11.979  13.211  70.501  0.00  0.00    -0.250 OA
ENDBRANCH  25  27
ENDBRANCH   1  25
TORSDOF 3
ENDMDL
MODEL 4
REMARK VINA RESULT:      -7.0      3.697      5.634
REMARK  Name = 
REMARK  3 active torsions:
REMARK  status: ('A' for Active; 'I' for Inactive)
REMARK    1  A    between atoms: C_2  and  O_4
REMARK    2  A    between atoms: O_4  and  C_5
REMARK    3  A    between atoms: C_5  and  C_6
REMARK                            x       y       z     vdW  Elec       q    Type
REMARK                         _______ _______ _______ _____ _____    ______ ____
ROOT
ATOM      1  C   UNL     1      -9.993  12.554  67.009  0.00  0.00    +0.186 C 
ATOM      2  C   UNL     1      -9.217  13.769  67.268  0.00  0.00    +0.040 C 
ATOM      3  C   UNL     1      -9.560  14.733  66.007  0.00  0.00    +0.004 C 
ATOM      4  C   UNL     1      -9.513  16.102  66.990  0.00  0.00    +0.001 C 
ATOM      5  C   UNL     1      -7.919  16.303  66.468  0.00  0.00    +0.003 C 
ATOM      6  C   UNL     1      -7.359  15.273  67.594  0.00  0.00    +0.000 C 
ATOM      7  C   UNL     1      -7.673  17.659  67.310  0.00  0.00    +0.016 C 
ATOM      8  C   UNL     1      -8.646  18.667  66.853  0.00  0.00    -0.042 C 
ATOM      9  C   UNL     1      -8.445  19.888  67.360  0.00  0.00    +0.029 C 
ATOM     10  C   UNL     1      -7.050  20.352  67.292  0.00  0.00    +0.173 C 
ATOM     11  C   UNL     1      -6.219  19.503  66.379  0.00  0.00    +0.069 C 
ATOM     12  O   UNL     1      -6.765  21.577  67.301  0.00  0.00    -0.291 OA
ATOM     13  C   UNL     1     -10.196  18.298  67.048  0.00  0.00    +0.018 C 
ATOM     14  C   UNL     1     -10.695  19.423  65.971  0.00  0.00    +0.004 C 
ATOM     15  C   UNL     1      -7.570  17.433  68.740  0.00  0.00    +0.004 C 
ATOM     16  C   UNL     1      -6.333  18.066  66.766  0.00  0.00    +0.012 C 
ATOM     17  C   UNL     1     -10.107  17.123  65.903  0.00  0.00    +0.004 C 
ATOM     18  C   UNL     1     -11.133  14.363  66.151  0.00  0.00    +0.004 C 
ATOM     19  C   UNL     1      -9.729  14.335  68.535  0.00  0.00    +0.004 C 
ATOM     20  C   UNL     1      -7.769  13.861  67.176  0.00  0.00    +0.004 C 
ATOM     21  C   UNL     1     -10.751  12.925  65.732  0.00  0.00    +0.047 C 
ENDROOT
BRANCH   1  22
ATOM     22  C   UNL     1     -11.142  12.369  67.967  0.00  0.00    +0.187 C 
ATOM     23  O   UNL     1     -12.316  12.539  67.635  0.00  0.00    -0.292 OA
ATOM     24  C   UNL     1     -11.004  11.573  69.235  0.00  0.00    +0.076 C 
ENDBRANCH   1  22
BRANCH   1  25
ATOM     25  O   UNL     1      -9.179  11.435  66.897  0.00  0.00    -0.449 OA
BRANCH  25  27
ATOM     26  C   UNL     1     -10.162   9.260  66.047  0.00  0.00    +0.121 C 
ATOM     27  C   UNL     1      -9.407  10.502  65.881  0.00  0.00    +0.318 C 
ATOM     28  O   UNL     1      -8.626  10.692  64.896  0.00  0.00    -0.250 OA
ENDBRANCH  25  27
ENDBRANCH   1  25
TORSDOF 3
ENDMDL
MODEL 5
REMARK VINA RESULT:      -6.9      3.351      8.548
REMARK  Name = 
REMARK  3 active torsions:
REMARK  status: ('A' for Active; 'I' for Inactive)
REMARK    1  A    between atoms: C_2  and  O_4
REMARK    2  A    between atoms: O_4  and  C_5
REMARK    3  A    between atoms: C_5  and  C_6
REMARK                            x       y       z     vdW  Elec       q    Type
REMARK                         _______ _______ _______ _____ _____    ______ ____
ROOT
ATOM      1  C   UNL     1      -8.724  18.764  66.716  0.00  0.00    +0.186 C 
ATOM      2  C   UNL     1      -9.248  17.397  66.785  0.00  0.00    +0.040 C 
ATOM      3  C   UNL     1      -8.938  16.932  68.310  0.00  0.00    +0.004 C 
ATOM      4  C   UNL     1     -10.377  16.058  68.377  0.00  0.00    +0.001 C 
ATOM      5  C   UNL     1      -9.457  14.699  67.976  0.00  0.00    +0.003 C 
ATOM      6  C   UNL     1      -9.545  15.037  66.388  0.00  0.00    +0.000 C 
ATOM      7  C   UNL     1     -10.705  13.674  68.022  0.00  0.00    +0.016 C 
ATOM      8  C   UNL     1     -11.274  13.704  69.381  0.00  0.00    -0.042 C 
ATOM      9  C   UNL     1     -12.216  12.780  69.599  0.00  0.00    +0.029 C 
ATOM     10  C   UNL     1     -11.855  11.427  69.148  0.00  0.00    +0.173 C 
ATOM     11  C   UNL     1     -10.392  11.307  68.846  0.00  0.00    +0.069 C 
ATOM     12  O   UNL     1     -12.390  10.404  69.648  0.00  0.00    -0.291 OA
ATOM     13  C   UNL     1     -11.843  15.119  69.883  0.00  0.00    +0.018 C 
ATOM     14  C   UNL     1     -11.817  14.677  71.457  0.00  0.00    +0.004 C 
ATOM     15  C   UNL     1     -11.624  13.842  66.912  0.00  0.00    +0.004 C 
ATOM     16  C   UNL     1      -9.976  12.368  67.881  0.00  0.00    +0.012 C 
ATOM     17  C   UNL     1     -10.328  15.754  69.952  0.00  0.00    +0.004 C 
ATOM     18  C   UNL     1      -9.476  18.362  68.855  0.00  0.00    +0.004 C 
ATOM     19  C   UNL     1     -10.703  17.491  66.534  0.00  0.00    +0.004 C 
ATOM     20  C   UNL     1      -8.653  16.249  66.122  0.00  0.00    +0.004 C 
ATOM     21  C   UNL     1      -8.256  19.000  68.154  0.00  0.00    +0.047 C 
ENDROOT
BRANCH   1  22
ATOM     22  C   UNL     1      -9.805  19.808  66.604  0.00  0.00    +0.187 C 
ATOM     23  O   UNL     1      -9.874  20.775  67.364  0.00  0.00    -0.292 OA
ATOM     24  C   UNL     1     -10.603  19.999  65.343  0.00  0.00    +0.076 C 
ENDBRANCH   1  22
BRANCH   1  25
ATOM     25  O   UNL     1      -7.730  18.888  65.754  0.00  0.00    -0.449 OA
BRANCH  25  27
ATOM     26  C   UNL     1      -6.184  20.873  66.053  0.00  0.00    +0.121 C 
ATOM     27  C   UNL     1      -6.493  19.444  66.093  0.00  0.00    +0.318 C 
ATOM     28  O   UNL     1      -5.584  18.556  66.129  0.00  0.00    -0.250 OA
ENDBRANCH  25  27
ENDBRANCH   1  25
TORSDOF 3
ENDMDL
MODEL 6
REMARK VINA RESULT:      -6.9      6.561      9.815
REMARK  Name = 
REMARK  3 active torsions:
REMARK  status: ('A' for Active; 'I' for Inactive)
REMARK    1  A    between atoms: C_2  and  O_4
REMARK    2  A    between atoms: O_4  and  C_5
REMARK    3  A    between atoms: C_5  and  C_6
REMARK                            x       y       z     vdW  Elec       q    Type
REMARK                         _______ _______ _______ _____ _____    ______ ____
ROOT
ATOM      1  C   UNL     1      -4.338  19.573  69.355  0.00  0.00    +0.186 C 
ATOM      2  C   UNL     1      -5.289  18.512  69.015  0.00  0.00    +0.040 C 
ATOM      3  C   UNL     1      -6.741  19.233  69.124  0.00  0.00    +0.004 C 
ATOM      4  C   UNL     1      -7.328  18.334  67.825  0.00  0.00    +0.001 C 
ATOM      5  C   UNL     1      -7.977  17.279  68.973  0.00  0.00    +0.003 C 
ATOM      6  C   UNL     1      -6.572  16.471  69.108  0.00  0.00    +0.000 C 
ATOM      7  C   UNL     1      -8.657  16.299  67.884  0.00  0.00    +0.016 C 
ATOM      8  C   UNL     1      -9.622  17.085  67.097  0.00  0.00    -0.042 C 
ATOM      9  C   UNL     1     -10.372  16.355  66.265  0.00  0.00    +0.029 C 
ATOM     10  C   UNL     1     -10.960  15.152  66.874  0.00  0.00    +0.173 C 
ATOM     11  C   UNL     1     -10.869  15.178  68.369  0.00  0.00    +0.069 C 
ATOM     12  O   UNL     1     -11.999  14.620  66.405  0.00  0.00    -0.291 OA
ATOM     13  C   UNL     1      -9.022  18.322  66.267  0.00  0.00    +0.018 C 
ATOM     14  C   UNL     1     -10.485  19.032  66.087  0.00  0.00    +0.004 C 
ATOM     15  C   UNL     1      -7.691  15.502  67.151  0.00  0.00    +0.004 C 
ATOM     16  C   UNL     1      -9.456  15.410  68.795  0.00  0.00    +0.012 C 
ATOM     17  C   UNL     1      -8.699  19.151  67.650  0.00  0.00    +0.004 C 
ATOM     18  C   UNL     1      -6.164  20.515  68.315  0.00  0.00    +0.004 C 
ATOM     19  C   UNL     1      -4.991  18.107  67.624  0.00  0.00    +0.004 C 
ATOM     20  C   UNL     1      -5.592  17.370  69.861  0.00  0.00    +0.004 C 
ATOM     21  C   UNL     1      -5.259  20.781  69.539  0.00  0.00    +0.047 C 
ENDROOT
BRANCH   1  22
ATOM     22  C   UNL     1      -3.515  20.031  68.178  0.00  0.00    +0.187 C 
ATOM     23  O   UNL     1      -3.633  21.153  67.683  0.00  0.00    -0.292 OA
ATOM     24  C   UNL     1      -2.229  19.355  67.792  0.00  0.00    +0.076 C 
ENDBRANCH   1  22
BRANCH   1  25
ATOM     25  O   UNL     1      -3.578  19.247  70.470  0.00  0.00    -0.449 OA
BRANCH  25  27
ATOM     26  C   UNL     1      -1.970  21.076  71.170  0.00  0.00    +0.121 C 
ATOM     27  C   UNL     1      -3.163  20.249  71.352  0.00  0.00    +0.318 C 
ATOM     28  O   UNL     1      -3.750  20.146  72.475  0.00  0.00    -0.250 OA
ENDBRANCH  25  27
ENDBRANCH   1  25
TORSDOF 3
ENDMDL
MODEL 7
REMARK VINA RESULT:      -6.7      4.963      7.757
REMARK  Name = 
REMARK  3 active torsions:
REMARK  status: ('A' for Active; 'I' for Inactive)
REMARK    1  A    between atoms: C_2  and  O_4
REMARK    2  A    between atoms: O_4  and  C_5
REMARK    3  A    between atoms: C_5  and  C_6
REMARK                            x       y       z     vdW  Elec       q    Type
REMARK                         _______ _______ _______ _____ _____    ______ ____
ROOT
ATOM      1  C   UNL     1     -10.765  15.612  68.331  0.00  0.00    +0.186 C 
ATOM      2  C   UNL     1      -9.983  16.765  67.876  0.00  0.00    +0.040 C 
ATOM      3  C   UNL     1      -8.583  16.639  68.689  0.00  0.00    +0.004 C 
ATOM      4  C   UNL     1      -7.718  17.225  67.366  0.00  0.00    +0.001 C 
ATOM      5  C   UNL     1      -7.795  18.740  68.110  0.00  0.00    +0.003 C 
ATOM      6  C   UNL     1      -9.267  19.034  67.486  0.00  0.00    +0.000 C 
ATOM      7  C   UNL     1      -6.946  19.496  66.963  0.00  0.00    +0.016 C 
ATOM      8  C   UNL     1      -5.615  18.868  66.887  0.00  0.00    -0.042 C 
ATOM      9  C   UNL     1      -4.756  19.505  66.085  0.00  0.00    +0.029 C 
ATOM     10  C   UNL     1      -4.703  20.962  66.285  0.00  0.00    +0.173 C 
ATOM     11  C   UNL     1      -5.371  21.378  67.560  0.00  0.00    +0.069 C 
ATOM     12  O   UNL     1      -3.689  21.633  65.961  0.00  0.00    -0.291 OA
ATOM     13  C   UNL     1      -5.584  17.309  66.507  0.00  0.00    +0.018 C 
ATOM     14  C   UNL     1      -4.062  17.106  67.070  0.00  0.00    +0.004 C 
ATOM     15  C   UNL     1      -7.679  19.654  65.721  0.00  0.00    +0.004 C 
ATOM     16  C   UNL     1      -6.762  20.837  67.614  0.00  0.00    +0.012 C 
ATOM     17  C   UNL     1      -6.258  16.898  67.950  0.00  0.00    +0.004 C 
ATOM     18  C   UNL     1      -8.530  15.053  68.352  0.00  0.00    +0.004 C 
ATOM     19  C   UNL     1      -9.781  16.589  66.421  0.00  0.00    +0.004 C 
ATOM     20  C   UNL     1     -10.270  18.146  68.223  0.00  0.00    +0.004 C 
ATOM     21  C   UNL     1      -9.774  14.900  69.256  0.00  0.00    +0.047 C 
ENDROOT
BRANCH   1  22
ATOM     22  C   UNL     1     -10.949  14.562  67.266  0.00  0.00    +0.187 C 
ATOM     23  O   UNL     1     -10.297  13.517  67.245  0.00  0.00    -0.292 OA
ATOM     24  C   UNL     1     -12.190  14.492  66.420  0.00  0.00    +0.076 C 
ENDBRANCH   1  22
BRANCH   1  25
ATOM     25  O   UNL     1     -11.951  15.999  68.939  0.00  0.00    -0.449 OA
BRANCH  25  27
ATOM     26  C   UNL     1     -11.760  16.165  71.460  0.00  0.00    +0.121 C 
ATOM     27  C   UNL     1     -12.257  15.552  70.228  0.00  0.00    +0.318 C 
ATOM     28  O   UNL     1     -12.747  14.380  70.205  0.00  0.00    -0.250 OA
ENDBRANCH  25  27
ENDBRANCH   1  25
TORSDOF 3
ENDMDL
MODEL 8
REMARK VINA RESULT:      -6.7      2.387      7.415
REMARK  Name = 
REMARK  3 active torsions:
REMARK  status: ('A' for Active; 'I' for Inactive)
REMARK    1  A    between atoms: C_2  and  O_4
REMARK    2  A    between atoms: O_4  and  C_5
REMARK    3  A    between atoms: C_5  and  C_6
REMARK                            x       y       z     vdW  Elec       q    Type
REMARK                         _______ _______ _______ _____ _____    ______ ____
ROOT
ATOM      1  C   UNL     1     -10.187  12.130  67.088  0.00  0.00    +0.186 C 
ATOM      2  C   UNL     1      -9.924  11.016  68.003  0.00  0.00    +0.040 C 
ATOM      3  C   UNL     1     -10.634  11.470  69.392  0.00  0.00    +0.004 C 
ATOM      4  C   UNL     1     -11.088   9.881  69.723  0.00  0.00    +0.001 C 
ATOM      5  C   UNL     1      -9.701   9.787  70.683  0.00  0.00    +0.003 C 
ATOM      6  C   UNL     1      -8.769   9.426  69.401  0.00  0.00    +0.000 C 
ATOM      7  C   UNL     1      -9.970   8.267  71.158  0.00  0.00    +0.016 C 
ATOM      8  C   UNL     1     -11.262   8.228  71.866  0.00  0.00    -0.042 C 
ATOM      9  C   UNL     1     -11.528   7.056  72.451  0.00  0.00    +0.029 C 
ATOM     10  C   UNL     1     -10.415   6.503  73.239  0.00  0.00    +0.173 C 
ATOM     11  C   UNL     1      -9.344   7.520  73.489  0.00  0.00    +0.069 C 
ATOM     12  O   UNL     1     -10.616   5.687  74.175  0.00  0.00    -0.291 OA
ATOM     13  C   UNL     1     -12.552   8.662  71.015  0.00  0.00    +0.018 C 
ATOM     14  C   UNL     1     -13.463   8.914  72.350  0.00  0.00    +0.004 C 
ATOM     15  C   UNL     1      -9.759   7.293  70.103  0.00  0.00    +0.004 C 
ATOM     16  C   UNL     1      -8.895   8.124  72.199  0.00  0.00    +0.012 C 
ATOM     17  C   UNL     1     -12.048  10.225  70.963  0.00  0.00    +0.004 C 
ATOM     18  C   UNL     1     -11.945  11.948  68.565  0.00  0.00    +0.004 C 
ATOM     19  C   UNL     1     -10.586   9.827  67.421  0.00  0.00    +0.004 C 
ATOM     20  C   UNL     1      -8.622  10.695  68.562  0.00  0.00    +0.004 C 
ATOM     21  C   UNL     1     -11.056  13.051  67.948  0.00  0.00    +0.047 C 
ENDROOT
BRANCH   1  22
ATOM     22  C   UNL     1     -11.160  11.779  65.991  0.00  0.00    +0.187 C 
ATOM     23  O   UNL     1     -12.284  12.277  65.917  0.00  0.00    -0.292 OA
ATOM     24  C   UNL     1     -10.714  11.153  64.699  0.00  0.00    +0.076 C 
ENDBRANCH   1  22
BRANCH   1  25
ATOM     25  O   UNL     1      -9.013  12.706  66.624  0.00  0.00    -0.449 OA
BRANCH  25  27
ATOM     26  C   UNL     1      -9.350  15.126  65.953  0.00  0.00    +0.121 C 
ATOM     27  C   UNL     1      -8.786  14.074  66.800  0.00  0.00    +0.318 C 
ATOM     28  O   UNL     1      -7.794  14.282  67.567  0.00  0.00    -0.250 OA
ENDBRANCH  25  27
ENDBRANCH   1  25
TORSDOF 3
ENDMDL
MODEL 9
REMARK VINA RESULT:      -6.6      1.688      3.400
REMARK  Name = 
REMARK  3 active torsions:
REMARK  status: ('A' for Active; 'I' for Inactive)
REMARK    1  A    between atoms: C_2  and  O_4
REMARK    2  A    between atoms: O_4  and  C_5
REMARK    3  A    between atoms: C_5  and  C_6
REMARK                            x       y       z     vdW  Elec       q    Type
REMARK                         _______ _______ _______ _____ _____    ______ ____
ROOT
ATOM      1  C   UNL     1      -9.306   8.401  68.603  0.00  0.00    +0.186 C 
ATOM      2  C   UNL     1      -9.547   9.821  68.333  0.00  0.00    +0.040 C 
ATOM      3  C   UNL     1      -9.195   9.988  66.755  0.00  0.00    +0.004 C 
ATOM      4  C   UNL     1     -10.431  11.118  66.560  0.00  0.00    +0.001 C 
ATOM      5  C   UNL     1      -9.245  12.305  66.756  0.00  0.00    +0.003 C 
ATOM      6  C   UNL     1      -9.352  12.224  68.377  0.00  0.00    +0.000 C 
ATOM      7  C   UNL     1     -10.263  13.544  66.559  0.00  0.00    +0.016 C 
ATOM      8  C   UNL     1     -10.867  13.434  65.219  0.00  0.00    -0.042 C 
ATOM      9  C   UNL     1     -11.610  14.488  64.868  0.00  0.00    +0.029 C 
ATOM     10  C   UNL     1     -10.971  15.791  65.114  0.00  0.00    +0.173 C 
ATOM     11  C   UNL     1      -9.506  15.654  65.395  0.00  0.00    +0.069 C 
ATOM     12  O   UNL     1     -11.305  16.818  64.468  0.00  0.00    -0.291 OA
ATOM     13  C   UNL     1     -11.723  12.106  64.932  0.00  0.00    +0.018 C 
ATOM     14  C   UNL     1     -11.655  12.302  63.309  0.00  0.00    +0.004 C 
ATOM     15  C   UNL     1     -11.163  13.728  67.682  0.00  0.00    +0.004 C 
ATOM     16  C   UNL     1      -9.283  14.681  66.506  0.00  0.00    +0.012 C 
ATOM     17  C   UNL     1     -10.369  11.174  64.957  0.00  0.00    +0.004 C 
ATOM     18  C   UNL     1     -10.026   8.634  66.427  0.00  0.00    +0.004 C 
ATOM     19  C   UNL     1     -10.983  10.062  68.594  0.00  0.00    +0.004 C 
ATOM     20  C   UNL     1      -8.714  10.908  68.819  0.00  0.00    +0.004 C 
ATOM     21  C   UNL     1      -8.938   7.870  67.215  0.00  0.00    +0.047 C 
ENDROOT
BRANCH   1  22
ATOM     22  C   UNL     1     -10.571   7.625  68.867  0.00  0.00    +0.187 C 
ATOM     23  O   UNL     1     -10.947   6.703  68.143  0.00  0.00    -0.292 OA
ATOM     24  C   UNL     1     -11.230   7.611  70.219  0.00  0.00    +0.076 C 
ENDBRANCH   1  22
BRANCH   1  25
ATOM     25  O   UNL     1      -8.330   8.218  69.572  0.00  0.00    -0.449 OA
BRANCH  25  27
ATOM     26  C   UNL     1      -7.139   5.992  69.356  0.00  0.00    +0.121 C 
ATOM     27  C   UNL     1      -7.195   7.452  69.288  0.00  0.00    +0.318 C 
ATOM     28  O   UNL     1      -6.146   8.169  69.276  0.00  0.00    -0.250 OA
ENDBRANCH  25  27
ENDBRANCH   1  25
TORSDOF 3
ENDMDL
