MODEL 1
REMARK VINA RESULT:      -6.8      0.000      0.000
REMARK  Name = 
REMARK  4 active torsions:
REMARK  status: ('A' for Active; 'I' for Inactive)
REMARK    1  A    between atoms: C_4  and  C_5
REMARK    2  A    between atoms: C_4  and  C_7
REMARK    3  A    between atoms: N_9  and  C_10
REMARK    4  A    between atoms: C_13  and  C_14
REMARK                            x       y       z     vdW  Elec       q    Type
REMARK                         _______ _______ _______ _____ _____    ______ ____
ROOT
ATOM      1  C   UNL     1     -11.975  14.838  69.176  0.00  0.00    +0.074 A 
ATOM      2  C   UNL     1     -12.111  13.744  69.991  0.00  0.00    +0.017 A 
ATOM      3  C   UNL     1     -12.368  13.976  71.336  0.00  0.00    +0.005 A 
ATOM      4  C   UNL     1     -12.290  15.254  71.827  0.00  0.00    +0.072 A 
ATOM      5  C   UNL     1     -11.592  16.170  71.087  0.00  0.00    +0.005 A 
ATOM      6  C   UNL     1     -11.368  15.955  69.734  0.00  0.00    +0.017 A 
ENDROOT
BRANCH   4   7
ATOM      7  C   UNL     1     -12.816  15.663  73.153  0.00  0.00    +0.419 C 
ATOM      8  F   UNL     1     -14.141  16.003  73.075  0.00  0.00    -0.166 F 
ATOM      9  F   UNL     1     -12.658  14.643  74.068  0.00  0.00    -0.166 F 
ATOM     10  F   UNL     1     -12.084  16.744  73.602  0.00  0.00    -0.166 F 
ENDBRANCH   4   7
BRANCH   1  12
ATOM     11  C   UNL     1     -10.764  14.834  67.037  0.00  0.00    +0.282 C 
ATOM     12  N   UNL     1     -11.978  14.608  67.762  0.00  0.00    -0.175 NA
ATOM     13  O   UNL     1      -9.712  14.435  67.624  0.00  0.00    -0.267 OA
BRANCH  11  16
ATOM     14  C   UNL     1     -11.776  12.990  63.940  0.00  0.00    +0.078 C 
ATOM     15  C   UNL     1     -10.947  13.312  65.134  0.00  0.00    +0.188 C 
ATOM     16  C   UNL     1     -10.805  14.554  65.595  0.00  0.00    +0.158 C 
ATOM     17  O   UNL     1     -10.560  12.261  65.936  0.00  0.00    -0.290 OA
BRANCH  16  18
ATOM     18  C   UNL     1     -11.093  15.643  64.689  0.00  0.00    +0.108 C 
ATOM     19  N   UNL     1     -11.309  16.696  64.231  0.00  0.00    -0.191 NA
ENDBRANCH  16  18
ENDBRANCH  11  16
ENDBRANCH   1  12
TORSDOF 4
ENDMDL
MODEL 2
REMARK VINA RESULT:      -6.6      1.585      2.019
REMARK  Name = 
REMARK  4 active torsions:
REMARK  status: ('A' for Active; 'I' for Inactive)
REMARK    1  A    between atoms: C_4  and  C_5
REMARK    2  A    between atoms: C_4  and  C_7
REMARK    3  A    between atoms: N_9  and  C_10
REMARK    4  A    between atoms: C_13  and  C_14
REMARK                            x       y       z     vdW  Elec       q    Type
REMARK                         _______ _______ _______ _____ _____    ______ ____
ROOT
ATOM      1  C   UNL     1     -11.865  14.385  68.701  0.00  0.00    +0.074 A 
ATOM      2  C   UNL     1     -11.645  13.275  69.475  0.00  0.00    +0.017 A 
ATOM      3  C   UNL     1     -12.227  13.249  70.737  0.00  0.00    +0.005 A 
ATOM      4  C   UNL     1     -12.823  14.381  71.227  0.00  0.00    +0.072 A 
ATOM      5  C   UNL     1     -12.486  15.573  70.644  0.00  0.00    +0.005 A 
ATOM      6  C   UNL     1     -11.940  15.601  69.367  0.00  0.00    +0.017 A 
ENDROOT
BRANCH   4   7
ATOM      7  C   UNL     1     -13.715  14.398  72.413  0.00  0.00    +0.419 C 
ATOM      8  F   UNL     1     -13.009  14.658  73.558  0.00  0.00    -0.166 F 
ATOM      9  F   UNL     1     -14.703  15.347  72.259  0.00  0.00    -0.166 F 
ATOM     10  F   UNL     1     -14.332  13.167  72.516  0.00  0.00    -0.166 F 
ENDBRANCH   4   7
BRANCH   1  12
ATOM     11  C   UNL     1     -11.340  13.005  66.735  0.00  0.00    +0.282 C 
ATOM     12  N   UNL     1     -11.499  14.304  67.318  0.00  0.00    -0.175 NA
ATOM     13  O   UNL     1     -12.209  12.152  67.093  0.00  0.00    -0.267 OA
BRANCH  11  16
ATOM     14  C   UNL     1     -10.458  11.402  63.469  0.00  0.00    +0.078 C 
ATOM     15  C   UNL     1     -10.217  12.014  64.804  0.00  0.00    +0.188 C 
ATOM     16  C   UNL     1     -10.997  12.970  65.306  0.00  0.00    +0.158 C 
ATOM     17  O   UNL     1      -9.339  11.367  65.646  0.00  0.00    -0.290 OA
BRANCH  16  18
ATOM     18  C   UNL     1     -11.814  13.724  64.383  0.00  0.00    +0.108 C 
ATOM     19  N   UNL     1     -12.581  14.469  63.912  0.00  0.00    -0.191 NA
ENDBRANCH  16  18
ENDBRANCH  11  16
ENDBRANCH   1  12
TORSDOF 4
ENDMDL
MODEL 3
REMARK VINA RESULT:      -6.5      2.676      3.638
REMARK  Name = 
REMARK  4 active torsions:
REMARK  status: ('A' for Active; 'I' for Inactive)
REMARK    1  A    between atoms: C_4  and  C_5
REMARK    2  A    between atoms: C_4  and  C_7
REMARK    3  A    between atoms: N_9  and  C_10
REMARK    4  A    between atoms: C_13  and  C_14
REMARK                            x       y       z     vdW  Elec       q    Type
REMARK                         _______ _______ _______ _____ _____    ______ ____
ROOT
ATOM      1  C   UNL     1     -11.698  15.940  69.419  0.00  0.00    +0.074 A 
ATOM      2  C   UNL     1     -11.828  14.606  69.131  0.00  0.00    +0.017 A 
ATOM      3  C   UNL     1     -12.394  13.793  70.105  0.00  0.00    +0.005 A 
ATOM      4  C   UNL     1     -12.622  14.301  71.357  0.00  0.00    +0.072 A 
ATOM      5  C   UNL     1     -11.937  15.432  71.712  0.00  0.00    +0.005 A 
ATOM      6  C   UNL     1     -11.404  16.264  70.737  0.00  0.00    +0.017 A 
ENDROOT
BRANCH   4   7
ATOM      7  C   UNL     1     -13.471  13.635  72.376  0.00  0.00    +0.419 C 
ATOM      8  F   UNL     1     -14.797  13.918  72.175  0.00  0.00    -0.166 F 
ATOM      9  F   UNL     1     -13.285  12.269  72.340  0.00  0.00    -0.166 F 
ATOM     10  F   UNL     1     -13.086  14.076  73.626  0.00  0.00    -0.166 F 
ENDBRANCH   4   7
BRANCH   1  12
ATOM     11  C   UNL     1     -10.058  17.394  68.306  0.00  0.00    +0.282 C 
ATOM     12  N   UNL     1     -11.369  16.818  68.335  0.00  0.00    -0.175 NA
ATOM     13  O   UNL     1      -9.122  16.603  68.634  0.00  0.00    -0.267 OA
BRANCH  11  16
ATOM     14  C   UNL     1      -7.882  19.436  66.045  0.00  0.00    +0.078 C 
ATOM     15  C   UNL     1      -8.768  19.155  67.208  0.00  0.00    +0.188 C 
ATOM     16  C   UNL     1      -9.755  18.262  67.158  0.00  0.00    +0.158 C 
ATOM     17  O   UNL     1      -8.363  19.627  68.438  0.00  0.00    -0.290 OA
BRANCH  16  18
ATOM     18  C   UNL     1     -10.250  17.880  65.856  0.00  0.00    +0.108 C 
ATOM     19  N   UNL     1     -10.933  17.561  64.963  0.00  0.00    -0.191 NA
ENDBRANCH  16  18
ENDBRANCH  11  16
ENDBRANCH   1  12
TORSDOF 4
ENDMDL
MODEL 4
REMARK VINA RESULT:      -6.3      1.968      2.343
REMARK  Name = 
REMARK  4 active torsions:
REMARK  status: ('A' for Active; 'I' for Inactive)
REMARK    1  A    between atoms: C_4  and  C_5
REMARK    2  A    between atoms: C_4  and  C_7
REMARK    3  A    between atoms: N_9  and  C_10
REMARK    4  A    between atoms: C_13  and  C_14
REMARK                            x       y       z     vdW  Elec       q    Type
REMARK                         _______ _______ _______ _____ _____    ______ ____
ROOT
ATOM      1  C   UNL     1     -11.663  13.974  69.567  0.00  0.00    +0.074 A 
ATOM      2  C   UNL     1     -11.393  15.318  69.591  0.00  0.00    +0.017 A 
ATOM      3  C   UNL     1     -11.697  16.011  70.756  0.00  0.00    +0.005 A 
ATOM      4  C   UNL     1     -12.412  15.387  71.744  0.00  0.00    +0.072 A 
ATOM      5  C   UNL     1     -13.126  14.272  71.396  0.00  0.00    +0.005 A 
ATOM      6  C   UNL     1     -12.797  13.557  70.252  0.00  0.00    +0.017 A 
ENDROOT
BRANCH   4   7
ATOM      7  C   UNL     1     -12.545  15.913  73.126  0.00  0.00    +0.419 C 
ATOM      8  F   UNL     1     -13.845  16.246  73.404  0.00  0.00    -0.166 F 
ATOM      9  F   UNL     1     -12.106  14.980  74.040  0.00  0.00    -0.166 F 
ATOM     10  F   UNL     1     -11.743  17.030  73.250  0.00  0.00    -0.166 F 
ENDBRANCH   4   7
BRANCH   1  12
ATOM     11  C   UNL     1     -11.774  13.263  67.216  0.00  0.00    +0.282 C 
ATOM     12  N   UNL     1     -11.112  13.212  68.486  0.00  0.00    -0.175 NA
ATOM     13  O   UNL     1     -12.191  14.413  66.880  0.00  0.00    -0.267 OA
BRANCH  11  16
ATOM     14  C   UNL     1     -10.998  12.385  63.661  0.00  0.00    +0.078 C 
ATOM     15  C   UNL     1     -11.752  12.364  64.944  0.00  0.00    +0.188 C 
ATOM     16  C   UNL     1     -11.155  12.492  66.129  0.00  0.00    +0.158 C 
ATOM     17  O   UNL     1     -13.120  12.504  64.875  0.00  0.00    -0.290 OA
BRANCH  16  18
ATOM     18  C   UNL     1      -9.739  12.213  66.201  0.00  0.00    +0.108 C 
ATOM     19  N   UNL     1      -8.679  11.869  66.550  0.00  0.00    -0.191 NA
ENDBRANCH  16  18
ENDBRANCH  11  16
ENDBRANCH   1  12
TORSDOF 4
ENDMDL
MODEL 5
REMARK VINA RESULT:      -6.3      4.505      5.562
REMARK  Name = 
REMARK  4 active torsions:
REMARK  status: ('A' for Active; 'I' for Inactive)
REMARK    1  A    between atoms: C_4  and  C_5
REMARK    2  A    between atoms: C_4  and  C_7
REMARK    3  A    between atoms: N_9  and  C_10
REMARK    4  A    between atoms: C_13  and  C_14
REMARK                            x       y       z     vdW  Elec       q    Type
REMARK                         _______ _______ _______ _____ _____    ______ ____
ROOT
ATOM      1  C   UNL     1     -11.793  11.135  69.987  0.00  0.00    +0.074 A 
ATOM      2  C   UNL     1     -10.709  10.296  69.985  0.00  0.00    +0.017 A 
ATOM      3  C   UNL     1     -10.899   9.002  70.454  0.00  0.00    +0.005 A 
ATOM      4  C   UNL     1     -12.081   8.674  71.064  0.00  0.00    +0.072 A 
ATOM      5  C   UNL     1     -12.853   9.702  71.535  0.00  0.00    +0.005 A 
ATOM      6  C   UNL     1     -12.689  10.988  71.038  0.00  0.00    +0.017 A 
ENDROOT
BRANCH   4   7
ATOM      7  C   UNL     1     -12.509   7.280  71.339  0.00  0.00    +0.419 C 
ATOM      8  F   UNL     1     -12.206   6.453  70.288  0.00  0.00    -0.166 F 
ATOM      9  F   UNL     1     -11.900   6.807  72.482  0.00  0.00    -0.166 F 
ATOM     10  F   UNL     1     -13.872   7.273  71.558  0.00  0.00    -0.166 F 
ENDBRANCH   4   7
BRANCH   1  12
ATOM     11  C   UNL     1     -11.374  12.304  67.866  0.00  0.00    +0.282 C 
ATOM     12  N   UNL     1     -11.673  12.367  69.265  0.00  0.00    -0.175 NA
ATOM     13  O   UNL     1     -11.984  11.390  67.232  0.00  0.00    -0.267 OA
BRANCH  11  16
ATOM     14  C   UNL     1      -9.736  14.998  65.847  0.00  0.00    +0.078 C 
ATOM     15  C   UNL     1     -10.145  14.263  67.076  0.00  0.00    +0.188 C 
ATOM     16  C   UNL     1     -11.292  13.591  67.160  0.00  0.00    +0.158 C 
ATOM     17  O   UNL     1      -9.178  14.043  68.031  0.00  0.00    -0.290 OA
BRANCH  16  18
ATOM     18  C   UNL     1     -12.341  13.931  66.225  0.00  0.00    +0.108 C 
ATOM     19  N   UNL     1     -13.070  13.950  65.313  0.00  0.00    -0.191 NA
ENDBRANCH  16  18
ENDBRANCH  11  16
ENDBRANCH   1  12
TORSDOF 4
ENDMDL
MODEL 6
REMARK VINA RESULT:      -6.2      4.255      5.161
REMARK  Name = 
REMARK  4 active torsions:
REMARK  status: ('A' for Active; 'I' for Inactive)
REMARK    1  A    between atoms: C_4  and  C_5
REMARK    2  A    between atoms: C_4  and  C_7
REMARK    3  A    between atoms: N_9  and  C_10
REMARK    4  A    between atoms: C_13  and  C_14
REMARK                            x       y       z     vdW  Elec       q    Type
REMARK                         _______ _______ _______ _____ _____    ______ ____
ROOT
ATOM      1  C   UNL     1     -10.076  16.077  67.890  0.00  0.00    +0.074 A 
ATOM      2  C   UNL     1     -10.704  17.278  68.094  0.00  0.00    +0.017 A 
ATOM      3  C   UNL     1      -9.902  18.400  68.254  0.00  0.00    +0.005 A 
ATOM      4  C   UNL     1      -8.547  18.246  68.391  0.00  0.00    +0.072 A 
ATOM      5  C   UNL     1      -8.088  17.009  68.756  0.00  0.00    +0.005 A 
ATOM      6  C   UNL     1      -8.875  15.883  68.560  0.00  0.00    +0.017 A 
ENDROOT
BRANCH   4   7
ATOM      7  C   UNL     1      -7.574  19.361  68.279  0.00  0.00    +0.419 C 
ATOM      8  F   UNL     1      -6.444  18.965  67.611  0.00  0.00    -0.166 F 
ATOM      9  F   UNL     1      -8.142  20.431  67.621  0.00  0.00    -0.166 F 
ATOM     10  F   UNL     1      -7.239  19.782  69.550  0.00  0.00    -0.166 F 
ENDBRANCH   4   7
BRANCH   1  12
ATOM     11  C   UNL     1     -10.957  14.694  66.058  0.00  0.00    +0.282 C 
ATOM     12  N   UNL     1     -10.886  14.975  67.461  0.00  0.00    -0.175 NA
ATOM     13  O   UNL     1      -9.854  14.798  65.439  0.00  0.00    -0.267 OA
BRANCH  11  16
ATOM     14  C   UNL     1     -12.417  12.181  63.699  0.00  0.00    +0.078 C 
ATOM     15  C   UNL     1     -12.330  13.457  64.460  0.00  0.00    +0.188 C 
ATOM     16  C   UNL     1     -11.773  13.536  65.667  0.00  0.00    +0.158 C 
ATOM     17  O   UNL     1     -12.575  14.623  63.768  0.00  0.00    -0.290 OA
BRANCH  16  18
ATOM     18  C   UNL     1     -11.645  12.314  66.429  0.00  0.00    +0.108 C 
ATOM     19  N   UNL     1     -11.715  11.496  67.259  0.00  0.00    -0.191 NA
ENDBRANCH  16  18
ENDBRANCH  11  16
ENDBRANCH   1  12
TORSDOF 4
ENDMDL
MODEL 7
REMARK VINA RESULT:      -6.1      5.533      6.935
REMARK  Name = 
REMARK  4 active torsions:
REMARK  status: ('A' for Active; 'I' for Inactive)
REMARK    1  A    between atoms: C_4  and  C_5
REMARK    2  A    between atoms: C_4  and  C_7
REMARK    3  A    between atoms: N_9  and  C_10
REMARK    4  A    between atoms: C_13  and  C_14
REMARK                            x       y       z     vdW  Elec       q    Type
REMARK                         _______ _______ _______ _____ _____    ______ ____
ROOT
ATOM      1  C   UNL     1     -10.814  14.403  66.661  0.00  0.00    +0.074 A 
ATOM      2  C   UNL     1      -9.998  13.318  66.847  0.00  0.00    +0.017 A 
ATOM      3  C   UNL     1     -10.063  12.299  65.905  0.00  0.00    +0.005 A 
ATOM      4  C   UNL     1     -11.049  12.323  64.954  0.00  0.00    +0.072 A 
ATOM      5  C   UNL     1     -12.142  13.109  65.200  0.00  0.00    +0.005 A 
ATOM      6  C   UNL     1     -12.065  14.151  66.114  0.00  0.00    +0.017 A 
ENDROOT
BRANCH   4   7
ATOM      7  C   UNL     1     -11.048  11.466  63.742  0.00  0.00    +0.419 C 
ATOM      8  F   UNL     1     -12.304  11.370  63.204  0.00  0.00    -0.166 F 
ATOM      9  F   UNL     1     -10.182  11.973  62.796  0.00  0.00    -0.166 F 
ATOM     10  F   UNL     1     -10.595  10.210  64.092  0.00  0.00    -0.166 F 
ENDBRANCH   4   7
BRANCH   1  12
ATOM     11  C   UNL     1      -9.518  16.453  67.060  0.00  0.00    +0.282 C 
ATOM     12  N   UNL     1     -10.562  15.561  67.466  0.00  0.00    -0.175 NA
ATOM     13  O   UNL     1      -9.458  16.668  65.811  0.00  0.00    -0.267 OA
BRANCH  11  16
ATOM     14  C   UNL     1      -7.575  19.247  68.621  0.00  0.00    +0.078 C 
ATOM     15  C   UNL     1      -8.151  17.880  68.499  0.00  0.00    +0.188 C 
ATOM     16  C   UNL     1      -9.317  17.644  67.898  0.00  0.00    +0.158 C 
ATOM     17  O   UNL     1      -7.316  16.817  68.761  0.00  0.00    -0.290 OA
BRANCH  16  18
ATOM     18  C   UNL     1     -10.233  18.752  67.751  0.00  0.00    +0.108 C 
ATOM     19  N   UNL     1     -11.029  19.506  67.347  0.00  0.00    -0.191 NA
ENDBRANCH  16  18
ENDBRANCH  11  16
ENDBRANCH   1  12
TORSDOF 4
ENDMDL
MODEL 8
REMARK VINA RESULT:      -6.0      2.021      2.706
REMARK  Name = 
REMARK  4 active torsions:
REMARK  status: ('A' for Active; 'I' for Inactive)
REMARK    1  A    between atoms: C_4  and  C_5
REMARK    2  A    between atoms: C_4  and  C_7
REMARK    3  A    between atoms: N_9  and  C_10
REMARK    4  A    between atoms: C_13  and  C_14
REMARK                            x       y       z     vdW  Elec       q    Type
REMARK                         _______ _______ _______ _____ _____    ______ ____
ROOT
ATOM      1  C   UNL     1     -11.336  13.734  69.358  0.00  0.00    +0.074 A 
ATOM      2  C   UNL     1     -11.744  15.031  69.183  0.00  0.00    +0.017 A 
ATOM      3  C   UNL     1     -12.309  15.677  70.275  0.00  0.00    +0.005 A 
ATOM      4  C   UNL     1     -12.607  14.958  71.403  0.00  0.00    +0.072 A 
ATOM      5  C   UNL     1     -12.707  13.599  71.275  0.00  0.00    +0.005 A 
ATOM      6  C   UNL     1     -12.109  12.949  70.203  0.00  0.00    +0.017 A 
ENDROOT
BRANCH   4   7
ATOM      7  C   UNL     1     -12.937  15.574  72.712  0.00  0.00    +0.419 C 
ATOM      8  F   UNL     1     -12.098  16.622  72.990  0.00  0.00    -0.166 F 
ATOM      9  F   UNL     1     -14.242  16.019  72.720  0.00  0.00    -0.166 F 
ATOM     10  F   UNL     1     -12.817  14.611  73.694  0.00  0.00    -0.166 F 
ENDBRANCH   4   7
BRANCH   1  12
ATOM     11  C   UNL     1     -11.122  12.219  67.434  0.00  0.00    +0.282 C 
ATOM     12  N   UNL     1     -10.518  13.158  68.332  0.00  0.00    -0.175 NA
ATOM     13  O   UNL     1     -12.293  12.525  67.053  0.00  0.00    -0.267 OA
BRANCH  11  16
ATOM     14  C   UNL     1      -9.687   9.572  65.209  0.00  0.00    +0.078 C 
ATOM     15  C   UNL     1      -9.805  10.425  66.423  0.00  0.00    +0.188 C 
ATOM     16  C   UNL     1     -10.254  11.679  66.377  0.00  0.00    +0.158 C 
ATOM     17  O   UNL     1      -9.720   9.798  67.646  0.00  0.00    -0.290 OA
BRANCH  16  18
ATOM     18  C   UNL     1     -10.212  12.362  65.104  0.00  0.00    +0.108 C 
ATOM     19  N   UNL     1     -10.500  12.915  64.116  0.00  0.00    -0.191 NA
ENDBRANCH  16  18
ENDBRANCH  11  16
ENDBRANCH   1  12
TORSDOF 4
ENDMDL
MODEL 9
REMARK VINA RESULT:      -5.9      3.517      4.763
REMARK  Name = 
REMARK  4 active torsions:
REMARK  status: ('A' for Active; 'I' for Inactive)
REMARK    1  A    between atoms: C_4  and  C_5
REMARK    2  A    between atoms: C_4  and  C_7
REMARK    3  A    between atoms: N_9  and  C_10
REMARK    4  A    between atoms: C_13  and  C_14
REMARK                            x       y       z     vdW  Elec       q    Type
REMARK                         _______ _______ _______ _____ _____    ______ ____
ROOT
ATOM      1  C   UNL     1     -11.638  13.271  68.169  0.00  0.00    +0.074 A 
ATOM      2  C   UNL     1     -12.161  13.208  69.434  0.00  0.00    +0.017 A 
ATOM      3  C   UNL     1     -11.925  12.051  70.167  0.00  0.00    +0.005 A 
ATOM      4  C   UNL     1     -11.359  10.966  69.550  0.00  0.00    +0.072 A 
ATOM      5  C   UNL     1     -11.411  10.921  68.183  0.00  0.00    +0.005 A 
ATOM      6  C   UNL     1     -11.609  12.084  67.449  0.00  0.00    +0.017 A 
ENDROOT
BRANCH   4   7
ATOM      7  C   UNL     1     -10.801   9.800  70.279  0.00  0.00    +0.419 C 
ATOM      8  F   UNL     1     -11.328   9.708  71.541  0.00  0.00    -0.166 F 
ATOM      9  F   UNL     1     -11.060   8.634  69.590  0.00  0.00    -0.166 F 
ATOM     10  F   UNL     1      -9.430   9.944  70.356  0.00  0.00    -0.166 F 
ENDBRANCH   4   7
BRANCH   1  12
ATOM     11  C   UNL     1     -10.466  15.356  67.599  0.00  0.00    +0.282 C 
ATOM     12  N   UNL     1     -11.646  14.548  67.518  0.00  0.00    -0.175 NA
ATOM     13  O   UNL     1      -9.376  14.718  67.476  0.00  0.00    -0.267 OA
BRANCH  11  16
ATOM     14  C   UNL     1      -9.290  18.785  66.665  0.00  0.00    +0.078 C 
ATOM     15  C   UNL     1     -10.031  17.755  67.444  0.00  0.00    +0.188 C 
ATOM     16  C   UNL     1     -10.508  16.642  66.889  0.00  0.00    +0.158 C 
ATOM     17  O   UNL     1      -9.962  17.832  68.817  0.00  0.00    -0.290 OA
BRANCH  16  18
ATOM     18  C   UNL     1     -10.693  16.632  65.456  0.00  0.00    +0.108 C 
ATOM     19  N   UNL     1     -11.147  16.698  64.381  0.00  0.00    -0.191 NA
ENDBRANCH  16  18
ENDBRANCH  11  16
ENDBRANCH   1  12
TORSDOF 4
ENDMDL
