MODEL 1
REMARK VINA RESULT:      -6.9      0.000      0.000
REMARK  Name = 
REMARK  9 active torsions:
REMARK  status: ('A' for Active; 'I' for Inactive)
REMARK    1  A    between atoms: N_2  and  C_4
REMARK    2  A    between atoms: C_4  and  C_5
REMARK    3  A    between atoms: C_5  and  O_6
REMARK    4  A    between atoms: O_6  and  C_7
REMARK    5  A    between atoms: C_10  and  C_11
REMARK    6  A    between atoms: C_11  and  C_22
REMARK    7  A    between atoms: C_12  and  C_13
REMARK    8  A    between atoms: C_12  and  C_16
REMARK    9  A    between atoms: C_13  and  C_14
REMARK                            x       y       z     vdW  Elec       q    Type
REMARK                         _______ _______ _______ _____ _____    ______ ____
ROOT
ATOM      1  C   UNL     1     -11.232  14.591  69.678  0.00  0.00    -0.004 C 
ATOM      2  C   UNL     1     -11.225  13.570  68.822  0.00  0.00    -0.021 C 
ENDROOT
BRANCH   2   3
ATOM      3  C   UNL     1     -11.164  13.874  67.387  0.00  0.00    -0.004 A 
ATOM      4  C   UNL     1     -10.073  13.462  66.631  0.00  0.00    -0.000 A 
ATOM      5  C   UNL     1     -10.241  12.981  65.348  0.00  0.00    -0.000 A 
ATOM      6  C   UNL     1     -11.418  13.230  64.654  0.00  0.00    -0.000 A 
ATOM      7  C   UNL     1     -12.529  13.594  65.398  0.00  0.00    -0.000 A 
ATOM      8  C   UNL     1     -12.329  14.086  66.661  0.00  0.00    -0.000 A 
ENDBRANCH   2   3
BRANCH   1   9
ATOM      9  C   UNL     1     -12.041  14.577  70.903  0.00  0.00    -0.000 A 
ATOM     10  C   UNL     1     -11.466  15.137  72.033  0.00  0.00    -0.000 A 
ATOM     11  C   UNL     1     -12.189  15.563  73.115  0.00  0.00    -0.000 A 
ATOM     12  C   UNL     1     -13.540  15.825  72.936  0.00  0.00    -0.000 A 
ATOM     13  C   UNL     1     -14.158  15.289  71.817  0.00  0.00    -0.000 A 
ATOM     14  C   UNL     1     -13.420  14.699  70.803  0.00  0.00    -0.000 A 
ENDBRANCH   1   9
BRANCH   1  18
ATOM     15  C   UNL     1      -8.523  17.543  68.340  0.00  0.00    +0.139 A 
ATOM     16  C   UNL     1      -9.879  17.622  68.055  0.00  0.00    +0.037 A 
ATOM     17  C   UNL     1     -10.717  16.819  68.821  0.00  0.00    +0.003 A 
ATOM     18  C   UNL     1     -10.251  15.649  69.410  0.00  0.00    -0.000 A 
ATOM     19  C   UNL     1      -8.904  15.400  69.270  0.00  0.00    +0.003 A 
ATOM     20  C   UNL     1      -8.047  16.470  69.080  0.00  0.00    +0.037 A 
BRANCH  15  21
ATOM     21  O   UNL     1      -7.664  18.604  68.039  0.00  0.00    -0.474 OA
BRANCH  21  22
ATOM     22  C   UNL     1      -7.365  19.561  69.021  0.00  0.00    +0.223 C 
BRANCH  22  23
ATOM     23  C   UNL     1      -5.898  19.677  69.316  0.00  0.00    +0.120 C 
BRANCH  23  25
ATOM     24  C   UNL     1      -4.368  21.275  70.271  0.00  0.00    +0.090 C 
ATOM     25  N   UNL     1      -5.654  20.609  70.390  0.00  0.00    -0.267 NA
ATOM     26  C   UNL     1      -5.820  19.955  71.667  0.00  0.00    +0.090 C 
ENDBRANCH  23  25
ENDBRANCH  22  23
ENDBRANCH  21  22
ENDBRANCH  15  21
ENDBRANCH   1  18
BRANCH   2  27
ATOM     27  C   UNL     1     -11.724  12.245  69.309  0.00  0.00    +0.044 C 
BRANCH  27  28
ATOM     28  C   UNL     1     -10.717  11.143  69.045  0.00  0.00    +0.100 C 
ATOM     29 CL   UNL     1     -11.142  10.175  67.624  0.00  0.00    -0.113 Cl
ENDBRANCH  27  28
ENDBRANCH   2  27
TORSDOF 9
ENDMDL
MODEL 2
REMARK VINA RESULT:      -6.8      1.960      2.341
REMARK  Name = 
REMARK  9 active torsions:
REMARK  status: ('A' for Active; 'I' for Inactive)
REMARK    1  A    between atoms: N_2  and  C_4
REMARK    2  A    between atoms: C_4  and  C_5
REMARK    3  A    between atoms: C_5  and  O_6
REMARK    4  A    between atoms: O_6  and  C_7
REMARK    5  A    between atoms: C_10  and  C_11
REMARK    6  A    between atoms: C_11  and  C_22
REMARK    7  A    between atoms: C_12  and  C_13
REMARK    8  A    between atoms: C_12  and  C_16
REMARK    9  A    between atoms: C_13  and  C_14
REMARK                            x       y       z     vdW  Elec       q    Type
REMARK                         _______ _______ _______ _____ _____    ______ ____
ROOT
ATOM      1  C   UNL     1     -11.262  14.744  69.449  0.00  0.00    -0.004 C 
ATOM      2  C   UNL     1     -11.152  13.705  68.621  0.00  0.00    -0.021 C 
ENDROOT
BRANCH   2   3
ATOM      3  C   UNL     1     -11.194  13.969  67.177  0.00  0.00    -0.004 A 
ATOM      4  C   UNL     1     -10.072  13.733  66.391  0.00  0.00    -0.000 A 
ATOM      5  C   UNL     1     -10.193  13.189  65.129  0.00  0.00    -0.000 A 
ATOM      6  C   UNL     1     -11.418  13.201  64.473  0.00  0.00    -0.000 A 
ATOM      7  C   UNL     1     -12.551  13.386  65.249  0.00  0.00    -0.000 A 
ATOM      8  C   UNL     1     -12.401  13.947  66.490  0.00  0.00    -0.000 A 
ENDBRANCH   2   3
BRANCH   1   9
ATOM      9  C   UNL     1     -12.009  14.661  70.710  0.00  0.00    -0.000 A 
ATOM     10  C   UNL     1     -11.390  15.185  71.834  0.00  0.00    -0.000 A 
ATOM     11  C   UNL     1     -12.067  15.550  72.967  0.00  0.00    -0.000 A 
ATOM     12  C   UNL     1     -13.430  15.791  72.864  0.00  0.00    -0.000 A 
ATOM     13  C   UNL     1     -14.092  15.289  71.755  0.00  0.00    -0.000 A 
ATOM     14  C   UNL     1     -13.394  14.758  70.682  0.00  0.00    -0.000 A 
ENDBRANCH   1   9
BRANCH   1  18
ATOM     15  C   UNL     1      -8.994  17.958  67.911  0.00  0.00    +0.139 A 
ATOM     16  C   UNL     1     -10.339  17.807  67.600  0.00  0.00    +0.037 A 
ATOM     17  C   UNL     1     -11.065  16.948  68.418  0.00  0.00    +0.003 A 
ATOM     18  C   UNL     1     -10.445  15.914  69.108  0.00  0.00    -0.000 A 
ATOM     19  C   UNL     1      -9.072  15.863  69.010  0.00  0.00    +0.003 A 
ATOM     20  C   UNL     1      -8.382  17.033  68.743  0.00  0.00    +0.037 A 
BRANCH  15  21
ATOM     21  O   UNL     1      -8.297  19.111  67.535  0.00  0.00    -0.474 OA
BRANCH  21  22
ATOM     22  C   UNL     1      -8.257  19.493  66.186  0.00  0.00    +0.223 C 
BRANCH  22  23
ATOM     23  C   UNL     1      -6.872  19.796  65.692  0.00  0.00    +0.120 C 
BRANCH  23  25
ATOM     24  C   UNL     1      -5.511  17.807  65.710  0.00  0.00    +0.090 C 
ATOM     25  N   UNL     1      -6.343  18.699  64.919  0.00  0.00    -0.267 NA
ATOM     26  C   UNL     1      -5.659  19.196  63.748  0.00  0.00    +0.090 C 
ENDBRANCH  23  25
ENDBRANCH  22  23
ENDBRANCH  21  22
ENDBRANCH  15  21
ENDBRANCH   1  18
BRANCH   2  27
ATOM     27  C   UNL     1     -11.447  12.343  69.165  0.00  0.00    +0.044 C 
BRANCH  27  28
ATOM     28  C   UNL     1     -10.406  11.333  68.723  0.00  0.00    +0.100 C 
ATOM     29 CL   UNL     1     -10.987  10.308  67.400  0.00  0.00    -0.113 Cl
ENDBRANCH  27  28
ENDBRANCH   2  27
TORSDOF 9
ENDMDL
MODEL 3
REMARK VINA RESULT:      -6.4      4.151      8.088
REMARK  Name = 
REMARK  9 active torsions:
REMARK  status: ('A' for Active; 'I' for Inactive)
REMARK    1  A    between atoms: N_2  and  C_4
REMARK    2  A    between atoms: C_4  and  C_5
REMARK    3  A    between atoms: C_5  and  O_6
REMARK    4  A    between atoms: O_6  and  C_7
REMARK    5  A    between atoms: C_10  and  C_11
REMARK    6  A    between atoms: C_11  and  C_22
REMARK    7  A    between atoms: C_12  and  C_13
REMARK    8  A    between atoms: C_12  and  C_16
REMARK    9  A    between atoms: C_13  and  C_14
REMARK                            x       y       z     vdW  Elec       q    Type
REMARK                         _______ _______ _______ _____ _____    ______ ____
ROOT
ATOM      1  C   UNL     1     -11.350  14.004  68.260  0.00  0.00    -0.004 C 
ATOM      2  C   UNL     1     -11.402  15.028  69.111  0.00  0.00    -0.021 C 
ENDROOT
BRANCH   2   3
ATOM      3  C   UNL     1     -11.999  14.795  70.432  0.00  0.00    -0.004 A 
ATOM      4  C   UNL     1     -11.335  15.209  71.581  0.00  0.00    -0.000 A 
ATOM      5  C   UNL     1     -12.028  15.760  72.640  0.00  0.00    -0.000 A 
ATOM      6  C   UNL     1     -13.403  15.585  72.747  0.00  0.00    -0.000 A 
ATOM      7  C   UNL     1     -14.086  15.221  71.598  0.00  0.00    -0.000 A 
ATOM      8  C   UNL     1     -13.374  14.659  70.571  0.00  0.00    -0.000 A 
ENDBRANCH   2   3
BRANCH   1   9
ATOM      9  C   UNL     1     -11.571  14.175  66.818  0.00  0.00    -0.000 A 
ATOM     10  C   UNL     1     -10.442  14.199  66.016  0.00  0.00    -0.000 A 
ATOM     11  C   UNL     1     -10.469  13.952  64.669  0.00  0.00    -0.000 A 
ATOM     12  C   UNL     1     -11.559  13.266  64.152  0.00  0.00    -0.000 A 
ATOM     13  C   UNL     1     -12.710  13.211  64.921  0.00  0.00    -0.000 A 
ATOM     14  C   UNL     1     -12.712  13.632  66.242  0.00  0.00    -0.000 A 
ENDBRANCH   1   9
BRANCH   1  18
ATOM     15  C   UNL     1      -9.912  10.181  69.338  0.00  0.00    +0.139 A 
ATOM     16  C   UNL     1      -9.118  11.086  68.646  0.00  0.00    +0.037 A 
ATOM     17  C   UNL     1      -9.544  12.409  68.653  0.00  0.00    +0.003 A 
ATOM     18  C   UNL     1     -10.884  12.733  68.826  0.00  0.00    -0.000 A 
ATOM     19  C   UNL     1     -11.729  11.677  69.089  0.00  0.00    +0.003 A 
ATOM     20  C   UNL     1     -11.207  10.540  69.681  0.00  0.00    +0.037 A 
BRANCH  15  21
ATOM     21  O   UNL     1      -9.376   8.989  69.834  0.00  0.00    -0.474 OA
BRANCH  21  22
ATOM     22  C   UNL     1      -9.465   8.701  71.204  0.00  0.00    +0.223 C 
BRANCH  22  23
ATOM     23  C   UNL     1      -9.673   7.243  71.495  0.00  0.00    +0.120 C 
BRANCH  23  25
ATOM     24  C   UNL     1     -11.810   6.573  70.606  0.00  0.00    +0.090 C 
ATOM     25  N   UNL     1     -11.058   6.963  71.786  0.00  0.00    -0.267 NA
ATOM     26  C   UNL     1     -11.659   8.078  72.479  0.00  0.00    +0.090 C 
ENDBRANCH  23  25
ENDBRANCH  22  23
ENDBRANCH  21  22
ENDBRANCH  15  21
ENDBRANCH   1  18
BRANCH   2  27
ATOM     27  C   UNL     1     -11.286  16.410  68.551  0.00  0.00    +0.044 C 
BRANCH  27  28
ATOM     28  C   UNL     1      -9.979  17.064  68.955  0.00  0.00    +0.100 C 
ATOM     29 CL   UNL     1      -8.657  15.892  69.081  0.00  0.00    -0.113 Cl
ENDBRANCH  27  28
ENDBRANCH   2  27
TORSDOF 9
ENDMDL
MODEL 4
REMARK VINA RESULT:      -6.4      1.732      2.431
REMARK  Name = 
REMARK  9 active torsions:
REMARK  status: ('A' for Active; 'I' for Inactive)
REMARK    1  A    between atoms: N_2  and  C_4
REMARK    2  A    between atoms: C_4  and  C_5
REMARK    3  A    between atoms: C_5  and  O_6
REMARK    4  A    between atoms: O_6  and  C_7
REMARK    5  A    between atoms: C_10  and  C_11
REMARK    6  A    between atoms: C_11  and  C_22
REMARK    7  A    between atoms: C_12  and  C_13
REMARK    8  A    between atoms: C_12  and  C_16
REMARK    9  A    between atoms: C_13  and  C_14
REMARK                            x       y       z     vdW  Elec       q    Type
REMARK                         _______ _______ _______ _____ _____    ______ ____
ROOT
ATOM      1  C   UNL     1     -11.424  14.800  69.367  0.00  0.00    -0.004 C 
ATOM      2  C   UNL     1     -11.477  13.481  69.183  0.00  0.00    -0.021 C 
ENDROOT
BRANCH   2   3
ATOM      3  C   UNL     1     -11.464  12.978  67.803  0.00  0.00    -0.004 A 
ATOM      4  C   UNL     1     -12.419  13.414  66.892  0.00  0.00    -0.000 A 
ATOM      5  C   UNL     1     -12.080  13.673  65.580  0.00  0.00    -0.000 A 
ATOM      6  C   UNL     1     -10.898  13.171  65.047  0.00  0.00    -0.000 A 
ATOM      7  C   UNL     1      -9.916  12.778  65.943  0.00  0.00    -0.000 A 
ATOM      8  C   UNL     1     -10.287  12.509  67.234  0.00  0.00    -0.000 A 
ENDBRANCH   2   3
BRANCH   1   9
ATOM      9  C   UNL     1     -12.184  15.470  70.429  0.00  0.00    -0.000 A 
ATOM     10  C   UNL     1     -13.489  15.046  70.621  0.00  0.00    -0.000 A 
ATOM     11  C   UNL     1     -14.189  15.259  71.779  0.00  0.00    -0.000 A 
ATOM     12  C   UNL     1     -13.472  15.538  72.934  0.00  0.00    -0.000 A 
ATOM     13  C   UNL     1     -12.160  15.963  72.792  0.00  0.00    -0.000 A 
ATOM     14  C   UNL     1     -11.515  15.904  71.566  0.00  0.00    -0.000 A 
ENDBRANCH   1   9
BRANCH   1  18
ATOM     15  C   UNL     1      -8.729  16.513  66.603  0.00  0.00    +0.139 A 
ATOM     16  C   UNL     1     -10.102  16.569  66.406  0.00  0.00    +0.037 A 
ATOM     17  C   UNL     1     -10.894  16.302  67.516  0.00  0.00    +0.003 A 
ATOM     18  C   UNL     1     -10.426  15.513  68.561  0.00  0.00    -0.000 A 
ATOM     19  C   UNL     1      -9.114  15.108  68.468  0.00  0.00    +0.003 A 
ATOM     20  C   UNL     1      -8.231  15.880  67.732  0.00  0.00    +0.037 A 
BRANCH  15  21
ATOM     21  O   UNL     1      -7.856  17.225  65.774  0.00  0.00    -0.474 OA
BRANCH  21  22
ATOM     22  C   UNL     1      -7.179  18.347  66.273  0.00  0.00    +0.223 C 
BRANCH  22  23
ATOM     23  C   UNL     1      -7.944  19.628  66.110  0.00  0.00    +0.120 C 
BRANCH  23  25
ATOM     24  C   UNL     1      -7.654  19.530  68.500  0.00  0.00    +0.090 C 
ATOM     25  N   UNL     1      -8.346  20.161  67.390  0.00  0.00    -0.267 NA
ATOM     26  C   UNL     1      -9.782  20.099  67.528  0.00  0.00    +0.090 C 
ENDBRANCH  23  25
ENDBRANCH  22  23
ENDBRANCH  21  22
ENDBRANCH  15  21
ENDBRANCH   1  18
BRANCH   2  27
ATOM     27  C   UNL     1     -11.991  12.637  70.306  0.00  0.00    +0.044 C 
BRANCH  27  28
ATOM     28  C   UNL     1     -12.168  11.193  69.878  0.00  0.00    +0.100 C 
ATOM     29 CL   UNL     1     -10.698  10.237  70.128  0.00  0.00    -0.113 Cl
ENDBRANCH  27  28
ENDBRANCH   2  27
TORSDOF 9
ENDMDL
MODEL 5
REMARK VINA RESULT:      -6.2      4.590      7.777
REMARK  Name = 
REMARK  9 active torsions:
REMARK  status: ('A' for Active; 'I' for Inactive)
REMARK    1  A    between atoms: N_2  and  C_4
REMARK    2  A    between atoms: C_4  and  C_5
REMARK    3  A    between atoms: C_5  and  O_6
REMARK    4  A    between atoms: O_6  and  C_7
REMARK    5  A    between atoms: C_10  and  C_11
REMARK    6  A    between atoms: C_11  and  C_22
REMARK    7  A    between atoms: C_12  and  C_13
REMARK    8  A    between atoms: C_12  and  C_16
REMARK    9  A    between atoms: C_13  and  C_14
REMARK                            x       y       z     vdW  Elec       q    Type
REMARK                         _______ _______ _______ _____ _____    ______ ____
ROOT
ATOM      1  C   UNL     1      -9.323  14.112  67.240  0.00  0.00    -0.004 C 
ATOM      2  C   UNL     1      -9.821  14.881  66.274  0.00  0.00    -0.021 C 
ENDROOT
BRANCH   2   3
ATOM      3  C   UNL     1     -10.649  14.242  65.243  0.00  0.00    -0.004 A 
ATOM      4  C   UNL     1     -10.133  13.201  64.479  0.00  0.00    -0.000 A 
ATOM      5  C   UNL     1     -10.913  12.112  64.147  0.00  0.00    -0.000 A 
ATOM      6  C   UNL     1     -12.297  12.185  64.241  0.00  0.00    -0.000 A 
ATOM      7  C   UNL     1     -12.826  13.186  65.039  0.00  0.00    -0.000 A 
ATOM      8  C   UNL     1     -12.035  14.264  65.336  0.00  0.00    -0.000 A 
ENDBRANCH   2   3
BRANCH   1   9
ATOM      9  C   UNL     1      -7.976  14.320  67.788  0.00  0.00    -0.000 A 
ATOM     10  C   UNL     1      -7.902  14.848  69.067  0.00  0.00    -0.000 A 
ATOM     11  C   UNL     1      -6.794  14.737  69.866  0.00  0.00    -0.000 A 
ATOM     12  C   UNL     1      -5.875  13.739  69.572  0.00  0.00    -0.000 A 
ATOM     13  C   UNL     1      -5.914  13.179  68.305  0.00  0.00    -0.000 A 
ATOM     14  C   UNL     1      -6.961  13.441  67.436  0.00  0.00    -0.000 A 
ENDBRANCH   1   9
BRANCH   1  18
ATOM     15  C   UNL     1     -11.775  11.504  69.483  0.00  0.00    +0.139 A 
ATOM     16  C   UNL     1     -11.744  12.868  69.739  0.00  0.00    +0.037 A 
ATOM     17  C   UNL     1     -11.196  13.668  68.742  0.00  0.00    +0.003 A 
ATOM     18  C   UNL     1     -10.265  13.162  67.843  0.00  0.00    -0.000 A 
ATOM     19  C   UNL     1     -10.007  11.813  67.940  0.00  0.00    +0.003 A 
ATOM     20  C   UNL     1     -10.983  10.986  68.469  0.00  0.00    +0.037 A 
BRANCH  15  21
ATOM     21  O   UNL     1     -12.710  10.678  70.114  0.00  0.00    -0.474 OA
BRANCH  21  22
ATOM     22  C   UNL     1     -12.328   9.919  71.231  0.00  0.00    +0.223 C 
BRANCH  22  23
ATOM     23  C   UNL     1     -13.482   9.251  71.922  0.00  0.00    +0.120 C 
BRANCH  23  25
ATOM     24  C   UNL     1     -14.921   7.319  71.912  0.00  0.00    +0.090 C 
ATOM     25  N   UNL     1     -13.704   7.925  71.399  0.00  0.00    -0.267 NA
ATOM     26  C   UNL     1     -12.541   7.098  71.621  0.00  0.00    +0.090 C 
ENDBRANCH  23  25
ENDBRANCH  22  23
ENDBRANCH  21  22
ENDBRANCH  15  21
ENDBRANCH   1  18
BRANCH   2  27
ATOM     27  C   UNL     1      -9.169  16.205  66.027  0.00  0.00    +0.044 C 
BRANCH  27  28
ATOM     28  C   UNL     1     -10.110  17.352  66.339  0.00  0.00    +0.100 C 
ATOM     29 CL   UNL     1     -10.691  17.303  68.012  0.00  0.00    -0.113 Cl
ENDBRANCH  27  28
ENDBRANCH   2  27
TORSDOF 9
ENDMDL
MODEL 6
REMARK VINA RESULT:      -6.2      2.776      4.055
REMARK  Name = 
REMARK  9 active torsions:
REMARK  status: ('A' for Active; 'I' for Inactive)
REMARK    1  A    between atoms: N_2  and  C_4
REMARK    2  A    between atoms: C_4  and  C_5
REMARK    3  A    between atoms: C_5  and  O_6
REMARK    4  A    between atoms: O_6  and  C_7
REMARK    5  A    between atoms: C_10  and  C_11
REMARK    6  A    between atoms: C_11  and  C_22
REMARK    7  A    between atoms: C_12  and  C_13
REMARK    8  A    between atoms: C_12  and  C_16
REMARK    9  A    between atoms: C_13  and  C_14
REMARK                            x       y       z     vdW  Elec       q    Type
REMARK                         _______ _______ _______ _____ _____    ______ ____
ROOT
ATOM      1  C   UNL     1     -10.770  11.642  67.990  0.00  0.00    -0.004 C 
ATOM      2  C   UNL     1     -10.463  11.385  66.719  0.00  0.00    -0.021 C 
ENDROOT
BRANCH   2   3
ATOM      3  C   UNL     1     -10.923  12.332  65.695  0.00  0.00    -0.004 A 
ATOM      4  C   UNL     1     -12.280  12.591  65.542  0.00  0.00    -0.000 A 
ATOM      5  C   UNL     1     -12.732  13.868  65.282  0.00  0.00    -0.000 A 
ATOM      6  C   UNL     1     -11.859  14.840  64.810  0.00  0.00    -0.000 A 
ATOM      7  C   UNL     1     -10.504  14.620  64.999  0.00  0.00    -0.000 A 
ATOM      8  C   UNL     1     -10.082  13.338  65.236  0.00  0.00    -0.000 A 
ENDBRANCH   2   3
BRANCH   1   9
ATOM      9  C   UNL     1     -11.127  10.578  68.937  0.00  0.00    -0.000 A 
ATOM     10  C   UNL     1     -10.091  10.032  69.677  0.00  0.00    -0.000 A 
ATOM     11  C   UNL     1     -10.279   9.347  70.848  0.00  0.00    -0.000 A 
ATOM     12  C   UNL     1     -11.471   9.541  71.534  0.00  0.00    -0.000 A 
ATOM     13  C   UNL     1     -12.535  10.088  70.835  0.00  0.00    -0.000 A 
ATOM     14  C   UNL     1     -12.363  10.624  69.568  0.00  0.00    -0.000 A 
ENDBRANCH   1   9
BRANCH   1  18
ATOM     15  C   UNL     1     -10.372  15.782  68.725  0.00  0.00    +0.139 A 
ATOM     16  C   UNL     1     -11.611  15.206  68.480  0.00  0.00    +0.037 A 
ATOM     17  C   UNL     1     -11.680  13.822  68.603  0.00  0.00    +0.003 A 
ATOM     18  C   UNL     1     -10.555  13.027  68.426  0.00  0.00    -0.000 A 
ATOM     19  C   UNL     1      -9.369  13.697  68.226  0.00  0.00    +0.003 A 
ATOM     20  C   UNL     1      -9.240  14.981  68.727  0.00  0.00    +0.037 A 
BRANCH  15  21
ATOM     21  O   UNL     1     -10.270  17.116  69.131  0.00  0.00    -0.474 OA
BRANCH  21  22
ATOM     22  C   UNL     1      -9.427  17.996  68.433  0.00  0.00    +0.223 C 
BRANCH  22  23
ATOM     23  C   UNL     1      -9.798  19.440  68.605  0.00  0.00    +0.120 C 
BRANCH  23  25
ATOM     24  C   UNL     1     -10.256  19.745  66.259  0.00  0.00    +0.090 C 
ATOM     25  N   UNL     1      -9.501  20.199  67.415  0.00  0.00    -0.267 NA
ATOM     26  C   UNL     1      -8.077  20.213  67.172  0.00  0.00    +0.090 C 
ENDBRANCH  23  25
ENDBRANCH  22  23
ENDBRANCH  21  22
ENDBRANCH  15  21
ENDBRANCH   1  18
BRANCH   2  27
ATOM     27  C   UNL     1     -10.090   9.981  66.359  0.00  0.00    +0.044 C 
BRANCH  27  28
ATOM     28  C   UNL     1      -8.662   9.900  65.854  0.00  0.00    +0.100 C 
ATOM     29 CL   UNL     1      -7.513  10.644  66.977  0.00  0.00    -0.113 Cl
ENDBRANCH  27  28
ENDBRANCH   2  27
TORSDOF 9
ENDMDL
MODEL 7
REMARK VINA RESULT:      -6.0      4.518      8.266
REMARK  Name = 
REMARK  9 active torsions:
REMARK  status: ('A' for Active; 'I' for Inactive)
REMARK    1  A    between atoms: N_2  and  C_4
REMARK    2  A    between atoms: C_4  and  C_5
REMARK    3  A    between atoms: C_5  and  O_6
REMARK    4  A    between atoms: O_6  and  C_7
REMARK    5  A    between atoms: C_10  and  C_11
REMARK    6  A    between atoms: C_11  and  C_22
REMARK    7  A    between atoms: C_12  and  C_13
REMARK    8  A    between atoms: C_12  and  C_16
REMARK    9  A    between atoms: C_13  and  C_14
REMARK                            x       y       z     vdW  Elec       q    Type
REMARK                         _______ _______ _______ _____ _____    ______ ____
ROOT
ATOM      1  C   UNL     1     -10.636  13.851  66.735  0.00  0.00    -0.004 C 
ATOM      2  C   UNL     1     -10.168  15.053  67.070  0.00  0.00    -0.021 C 
ENDROOT
BRANCH   2   3
ATOM      3  C   UNL     1     -10.569  15.610  68.368  0.00  0.00    -0.004 A 
ATOM      4  C   UNL     1     -11.913  15.807  68.659  0.00  0.00    -0.000 A 
ATOM      5  C   UNL     1     -12.413  15.539  69.917  0.00  0.00    -0.000 A 
ATOM      6  C   UNL     1     -11.554  15.424  71.004  0.00  0.00    -0.000 A 
ATOM      7  C   UNL     1     -10.218  15.178  70.732  0.00  0.00    -0.000 A 
ATOM      8  C   UNL     1      -9.747  15.471  69.480  0.00  0.00    -0.000 A 
ENDBRANCH   2   3
BRANCH   1   9
ATOM      9  C   UNL     1     -11.029  13.522  65.359  0.00  0.00    -0.000 A 
ATOM     10  C   UNL     1     -10.176  12.690  64.652  0.00  0.00    -0.000 A 
ATOM     11  C   UNL     1     -10.561  11.977  63.548  0.00  0.00    -0.000 A 
ATOM     12  C   UNL     1     -11.917  11.748  63.359  0.00  0.00    -0.000 A 
ATOM     13  C   UNL     1     -12.809  12.554  64.048  0.00  0.00    -0.000 A 
ATOM     14  C   UNL     1     -12.378  13.407  65.052  0.00  0.00    -0.000 A 
ENDBRANCH   1   9
BRANCH   1  18
ATOM     15  C   UNL     1     -10.362  10.525  69.325  0.00  0.00    +0.139 A 
ATOM     16  C   UNL     1      -9.317  10.874  68.480  0.00  0.00    +0.037 A 
ATOM     17  C   UNL     1      -9.361  12.156  67.944  0.00  0.00    +0.003 A 
ATOM     18  C   UNL     1     -10.567  12.829  67.786  0.00  0.00    -0.000 A 
ATOM     19  C   UNL     1     -11.682  12.192  68.284  0.00  0.00    +0.003 A 
ATOM     20  C   UNL     1     -11.522  11.286  69.318  0.00  0.00    +0.037 A 
BRANCH  15  21
ATOM     21  O   UNL     1     -10.200   9.530  70.293  0.00  0.00    -0.474 OA
BRANCH  21  22
ATOM     22  C   UNL     1     -11.110   9.434  71.356  0.00  0.00    +0.223 C 
BRANCH  22  23
ATOM     23  C   UNL     1     -11.771   8.090  71.458  0.00  0.00    +0.120 C 
BRANCH  23  25
ATOM     24  C   UNL     1     -14.052   7.314  71.474  0.00  0.00    +0.090 C 
ATOM     25  N   UNL     1     -13.068   8.193  72.081  0.00  0.00    -0.267 NA
ATOM     26  C   UNL     1     -13.502   9.571  72.108  0.00  0.00    +0.090 C 
ENDBRANCH  23  25
ENDBRANCH  22  23
ENDBRANCH  21  22
ENDBRANCH  15  21
ENDBRANCH   1  18
BRANCH   2  27
ATOM     27  C   UNL     1      -9.663  15.938  65.974  0.00  0.00    +0.044 C 
BRANCH  27  28
ATOM     28  C   UNL     1     -10.625  17.075  65.693  0.00  0.00    +0.100 C 
ATOM     29 CL   UNL     1     -10.105  18.592  66.446  0.00  0.00    -0.113 Cl
ENDBRANCH  27  28
ENDBRANCH   2  27
TORSDOF 9
ENDMDL
MODEL 8
REMARK VINA RESULT:      -6.0      4.491      8.314
REMARK  Name = 
REMARK  9 active torsions:
REMARK  status: ('A' for Active; 'I' for Inactive)
REMARK    1  A    between atoms: N_2  and  C_4
REMARK    2  A    between atoms: C_4  and  C_5
REMARK    3  A    between atoms: C_5  and  O_6
REMARK    4  A    between atoms: O_6  and  C_7
REMARK    5  A    between atoms: C_10  and  C_11
REMARK    6  A    between atoms: C_11  and  C_22
REMARK    7  A    between atoms: C_12  and  C_13
REMARK    8  A    between atoms: C_12  and  C_16
REMARK    9  A    between atoms: C_13  and  C_14
REMARK                            x       y       z     vdW  Elec       q    Type
REMARK                         _______ _______ _______ _____ _____    ______ ____
ROOT
ATOM      1  C   UNL     1      -6.597  17.647  68.462  0.00  0.00    -0.004 C 
ATOM      2  C   UNL     1      -7.025  18.803  68.968  0.00  0.00    -0.021 C 
ENDROOT
BRANCH   2   3
ATOM      3  C   UNL     1      -8.123  19.492  68.277  0.00  0.00    -0.004 A 
ATOM      4  C   UNL     1      -7.992  19.847  66.939  0.00  0.00    -0.000 A 
ATOM      5  C   UNL     1      -9.054  19.724  66.067  0.00  0.00    -0.000 A 
ATOM      6  C   UNL     1     -10.351  19.600  66.552  0.00  0.00    -0.000 A 
ATOM      7  C   UNL     1     -10.499  19.198  67.869  0.00  0.00    -0.000 A 
ATOM      8  C   UNL     1      -9.433  19.350  68.717  0.00  0.00    -0.000 A 
ENDBRANCH   2   3
BRANCH   1   9
ATOM      9  C   UNL     1      -5.176  17.275  68.458  0.00  0.00    -0.000 A 
ATOM     10  C   UNL     1      -4.828  16.147  69.183  0.00  0.00    -0.000 A 
ATOM     11  C   UNL     1      -3.672  15.443  68.974  0.00  0.00    -0.000 A 
ATOM     12  C   UNL     1      -3.022  15.600  67.757  0.00  0.00    -0.000 A 
ATOM     13  C   UNL     1      -3.341  16.713  66.995  0.00  0.00    -0.000 A 
ATOM     14  C   UNL     1      -4.417  17.523  67.322  0.00  0.00    -0.000 A 
ENDBRANCH   1   9
BRANCH   1  18
ATOM     15  C   UNL     1      -9.257  14.498  67.540  0.00  0.00    +0.139 A 
ATOM     16  C   UNL     1      -8.831  14.729  68.841  0.00  0.00    +0.037 A 
ATOM     17  C   UNL     1      -8.258  15.971  69.089  0.00  0.00    +0.003 A 
ATOM     18  C   UNL     1      -7.647  16.697  68.074  0.00  0.00    -0.000 A 
ATOM     19  C   UNL     1      -7.737  16.159  66.810  0.00  0.00    +0.003 A 
ATOM     20  C   UNL     1      -8.799  15.319  66.521  0.00  0.00    +0.037 A 
BRANCH  15  21
ATOM     21  O   UNL     1     -10.263  13.564  67.271  0.00  0.00    -0.474 OA
BRANCH  21  22
ATOM     22  C   UNL     1     -10.590  13.255  65.942  0.00  0.00    +0.223 C 
BRANCH  22  23
ATOM     23  C   UNL     1     -11.932  12.599  65.794  0.00  0.00    +0.120 C 
BRANCH  23  25
ATOM     24  C   UNL     1     -12.355  12.239  63.450  0.00  0.00    +0.090 C 
ATOM     25  N   UNL     1     -12.614  13.070  64.613  0.00  0.00    -0.267 NA
ATOM     26  C   UNL     1     -12.305  14.461  64.378  0.00  0.00    +0.090 C 
ENDBRANCH  23  25
ENDBRANCH  22  23
ENDBRANCH  21  22
ENDBRANCH  15  21
ENDBRANCH   1  18
BRANCH   2  27
ATOM     27  C   UNL     1      -6.112  19.544  69.893  0.00  0.00    +0.044 C 
BRANCH  27  28
ATOM     28  C   UNL     1      -5.464  20.727  69.202  0.00  0.00    +0.100 C 
ATOM     29 CL   UNL     1      -3.823  21.033  69.795  0.00  0.00    -0.113 Cl
ENDBRANCH  27  28
ENDBRANCH   2  27
TORSDOF 9
ENDMDL
MODEL 9
REMARK VINA RESULT:      -5.9      4.598      7.883
REMARK  Name = 
REMARK  9 active torsions:
REMARK  status: ('A' for Active; 'I' for Inactive)
REMARK    1  A    between atoms: N_2  and  C_4
REMARK    2  A    between atoms: C_4  and  C_5
REMARK    3  A    between atoms: C_5  and  O_6
REMARK    4  A    between atoms: O_6  and  C_7
REMARK    5  A    between atoms: C_10  and  C_11
REMARK    6  A    between atoms: C_11  and  C_22
REMARK    7  A    between atoms: C_12  and  C_13
REMARK    8  A    between atoms: C_12  and  C_16
REMARK    9  A    between atoms: C_13  and  C_14
REMARK                            x       y       z     vdW  Elec       q    Type
REMARK                         _______ _______ _______ _____ _____    ______ ____
ROOT
ATOM      1  C   UNL     1      -9.648  12.998  67.769  0.00  0.00    -0.004 C 
ATOM      2  C   UNL     1     -10.096  13.490  66.614  0.00  0.00    -0.021 C 
ENDROOT
BRANCH   2   3
ATOM      3  C   UNL     1     -10.859  12.595  65.735  0.00  0.00    -0.004 A 
ATOM      4  C   UNL     1     -12.212  12.822  65.510  0.00  0.00    -0.000 A 
ATOM      5  C   UNL     1     -12.762  12.640  64.258  0.00  0.00    -0.000 A 
ATOM      6  C   UNL     1     -12.091  11.892  63.298  0.00  0.00    -0.000 A 
ATOM      7  C   UNL     1     -10.732  11.698  63.481  0.00  0.00    -0.000 A 
ATOM      8  C   UNL     1     -10.217  11.868  64.740  0.00  0.00    -0.000 A 
ENDBRANCH   2   3
BRANCH   1   9
ATOM      9  C   UNL     1      -8.337  13.366  68.318  0.00  0.00    -0.000 A 
ATOM     10  C   UNL     1      -7.225  12.904  67.632  0.00  0.00    -0.000 A 
ATOM     11  C   UNL     1      -5.979  13.460  67.754  0.00  0.00    -0.000 A 
ATOM     12  C   UNL     1      -5.886  14.754  68.248  0.00  0.00    -0.000 A 
ATOM     13  C   UNL     1      -6.976  15.261  68.938  0.00  0.00    -0.000 A 
ATOM     14  C   UNL     1      -8.191  14.593  68.951  0.00  0.00    -0.000 A 
ENDBRANCH   1   9
BRANCH   1  18
ATOM     15  C   UNL     1     -12.198  10.976  70.462  0.00  0.00    +0.139 A 
ATOM     16  C   UNL     1     -12.175  12.362  70.389  0.00  0.00    +0.037 A 
ATOM     17  C   UNL     1     -11.584  12.908  69.255  0.00  0.00    +0.003 A 
ATOM     18  C   UNL     1     -10.617  12.211  68.540  0.00  0.00    -0.000 A 
ATOM     19  C   UNL     1     -10.366  10.925  68.965  0.00  0.00    +0.003 A 
ATOM     20  C   UNL     1     -11.365  10.239  69.633  0.00  0.00    +0.037 A 
BRANCH  15  21
ATOM     21  O   UNL     1     -13.160  10.316  71.232  0.00  0.00    -0.474 OA
BRANCH  21  22
ATOM     22  C   UNL     1     -12.770   9.289  72.105  0.00  0.00    +0.223 C 
BRANCH  22  23
ATOM     23  C   UNL     1     -13.252   7.931  71.683  0.00  0.00    +0.120 C 
BRANCH  23  25
ATOM     24  C   UNL     1     -11.123   7.377  72.666  0.00  0.00    +0.090 C 
ATOM     25  N   UNL     1     -12.201   6.949  71.791  0.00  0.00    -0.267 NA
ATOM     26  C   UNL     1     -11.729   6.575  70.478  0.00  0.00    +0.090 C 
ENDBRANCH  23  25
ENDBRANCH  22  23
ENDBRANCH  21  22
ENDBRANCH  15  21
ENDBRANCH   1  18
BRANCH   2  27
ATOM     27  C   UNL     1      -9.440  14.723  66.077  0.00  0.00    +0.044 C 
BRANCH  27  28
ATOM     28  C   UNL     1     -10.388  15.906  66.093  0.00  0.00    +0.100 C 
ATOM     29 CL   UNL     1     -11.024  16.231  67.715  0.00  0.00    -0.113 Cl
ENDBRANCH  27  28
ENDBRANCH   2  27
TORSDOF 9
ENDMDL
