MODEL 1
REMARK VINA RESULT:      -8.1      0.000      0.000
REMARK  Name = 
REMARK  15 active torsions:
REMARK  status: ('A' for Active; 'I' for Inactive)
REMARK    1  A    between atoms: S_2  and  C_3
REMARK    2  A    between atoms: C_3  and  C_4
REMARK    3  A    between atoms: C_4  and  N_5
REMARK    4  A    between atoms: C_8  and  S_9
REMARK    5  A    between atoms: S_9  and  C_10
REMARK    6  A    between atoms: C_10  and  C_11
REMARK    7  A    between atoms: C_11  and  C_12
REMARK    8  A    between atoms: N_21  and  C_22
REMARK    9  A    between atoms: C_24  and  C_25
REMARK   10  A    between atoms: C_25  and  O_26
REMARK   11  A    between atoms: O_26  and  P_27
REMARK   12  A    between atoms: P_27  and  O_30
REMARK   13  A    between atoms: O_30  and  P_31
REMARK   14  A    between atoms: P_31  and  C_34
REMARK   15  A    between atoms: C_34  and  P_37
REMARK                            x       y       z     vdW  Elec       q    Type
REMARK                         _______ _______ _______ _____ _____    ______ ____
ROOT
ATOM      1  C   UNL     1     -11.187  12.468  65.707  0.00  0.00    +0.241 C 
ATOM      2  C   UNL     1     -12.694  13.242  65.483  0.00  0.00    +0.234 C 
ATOM      3  O   UNL     1     -13.169  12.280  64.437  0.00  0.00    -0.216 OA
ATOM      4  C   UNL     1     -11.954  14.335  64.421  0.00  0.00    +0.216 C 
ATOM      5  O   UNL     1     -11.376  13.312  63.478  0.00  0.00    -0.218 OA
ATOM      6  C   UNL     1     -10.445  14.372  65.221  0.00  0.00    +0.180 C 
ATOM      7  O   UNL     1     -10.913  13.733  66.498  0.00  0.00    -0.331 OA
ENDROOT
BRANCH   1  13
ATOM      8  N   UNL     1     -12.291  10.530  71.332  0.00  0.00    -0.218 NA
ATOM      9  C   UNL     1     -12.114  11.604  70.434  0.00  0.00    +0.170 A 
ATOM     10  C   UNL     1     -11.763  11.334  69.131  0.00  0.00    +0.150 A 
ATOM     11  N   UNL     1     -11.653  10.150  68.483  0.00  0.00    -0.219 NA
ATOM     12  C   UNL     1     -11.131  10.490  67.281  0.00  0.00    +0.182 A 
ATOM     13  N   UNL     1     -11.705  11.687  66.982  0.00  0.00    -0.269 N 
ATOM     14  C   UNL     1     -11.583  12.329  68.175  0.00  0.00    +0.169 A 
ATOM     15  N   UNL     1     -11.800  13.611  68.552  0.00  0.00    -0.202 NA
ATOM     16  C   UNL     1     -12.163  13.858  69.832  0.00  0.00    +0.193 A 
ATOM     17  N   UNL     1     -12.118  12.901  70.789  0.00  0.00    -0.203 NA
BRANCH   8  18
ATOM     18  C   UNL     1     -11.528   9.300  71.138  0.00  0.00    +0.125 C 
BRANCH  18  19
ATOM     19  C   UNL     1     -12.292   8.163  71.750  0.00  0.00    +0.081 C 
BRANCH  19  21
ATOM     20  C   UNL     1     -14.930   7.598  71.811  0.00  0.00    +0.069 C 
ATOM     21  S   UNL     1     -14.043   8.497  71.975  0.00  0.00    -0.137 S 
ENDBRANCH  19  21
ENDBRANCH  18  19
ENDBRANCH   8  18
BRANCH  16  22
ATOM     22  S   UNL     1     -12.778  15.472  70.292  0.00  0.00    -0.075 S 
BRANCH  22  23
ATOM     23  C   UNL     1     -13.993  15.224  71.614  0.00  0.00    +0.074 C 
BRANCH  23  24
ATOM     24  C   UNL     1     -13.525  16.014  72.830  0.00  0.00    +0.115 C 
BRANCH  24  25
ATOM     25  C   UNL     1     -12.569  15.115  73.575  0.00  0.00    +0.399 C 
ATOM     26  F   UNL     1     -13.013  13.819  73.415  0.00  0.00    -0.170 F 
ATOM     27  F   UNL     1     -11.316  15.253  73.027  0.00  0.00    -0.170 F 
ATOM     28  F   UNL     1     -12.598  15.478  74.896  0.00  0.00    -0.170 F 
ENDBRANCH  24  25
ENDBRANCH  23  24
ENDBRANCH  22  23
ENDBRANCH  16  22
ENDBRANCH   1  13
BRANCH   6  29
ATOM     29  C   UNL     1     -10.637  15.884  65.808  0.00  0.00    +0.181 C 
BRANCH  29  30
ATOM     30  O   UNL     1      -9.645  16.369  66.473  0.00  0.00    -0.311 OA
BRANCH  30  31
ATOM     31  P   UNL     1      -9.658  17.066  67.919  0.00  0.00    +0.221 P 
ATOM     32  O   UNL     1      -9.207  15.868  69.045  0.00  0.00    -0.437 OA
ATOM     33  O   UNL     1     -11.009  17.661  68.192  0.00  0.00    -0.517 OA
BRANCH  31  34
ATOM     34  O   UNL     1      -8.632  18.354  68.250  0.00  0.00    -0.247 OA
BRANCH  34  35
ATOM     35  P   UNL     1      -7.395  18.315  67.109  0.00  0.00    +0.407 P 
ATOM     36  O   UNL     1      -6.782  16.743  66.865  0.00  0.00    -0.137 OA
ATOM     37  O   UNL     1      -8.088  18.632  65.787  0.00  0.00    -0.252 OA
BRANCH  35  38
ATOM     38  C   UNL     1      -5.981  19.320  67.429  0.00  0.00    +0.272 C 
ATOM     39 CL   UNL     1      -4.622  19.082  66.285  0.00  0.00    -0.080 Cl
ATOM     40 CL   UNL     1      -6.447  21.025  67.114  0.00  0.00    -0.080 Cl
BRANCH  38  41
ATOM     41  P   UNL     1      -5.320  19.288  69.092  0.00  0.00    +0.156 P 
ATOM     42  O   UNL     1      -3.860  20.103  69.226  0.00  0.00    -0.355 OA
ATOM     43  O   UNL     1      -6.489  20.078  70.052  0.00  0.00    -0.355 OA
ATOM     44  O   UNL     1      -5.253  17.873  69.617  0.00  0.00    -0.457 OA
ENDBRANCH  38  41
ENDBRANCH  35  38
ENDBRANCH  34  35
ENDBRANCH  31  34
ENDBRANCH  30  31
ENDBRANCH  29  30
ENDBRANCH   6  29
TORSDOF 15
ENDMDL
MODEL 2
REMARK VINA RESULT:      -8.1      3.494      5.350
REMARK  Name = 
REMARK  15 active torsions:
REMARK  status: ('A' for Active; 'I' for Inactive)
REMARK    1  A    between atoms: S_2  and  C_3
REMARK    2  A    between atoms: C_3  and  C_4
REMARK    3  A    between atoms: C_4  and  N_5
REMARK    4  A    between atoms: C_8  and  S_9
REMARK    5  A    between atoms: S_9  and  C_10
REMARK    6  A    between atoms: C_10  and  C_11
REMARK    7  A    between atoms: C_11  and  C_12
REMARK    8  A    between atoms: N_21  and  C_22
REMARK    9  A    between atoms: C_24  and  C_25
REMARK   10  A    between atoms: C_25  and  O_26
REMARK   11  A    between atoms: O_26  and  P_27
REMARK   12  A    between atoms: P_27  and  O_30
REMARK   13  A    between atoms: O_30  and  P_31
REMARK   14  A    between atoms: P_31  and  C_34
REMARK   15  A    between atoms: C_34  and  P_37
REMARK                            x       y       z     vdW  Elec       q    Type
REMARK                         _______ _______ _______ _____ _____    ______ ____
ROOT
ATOM      1  C   UNL     1     -12.712  13.675  70.341  0.00  0.00    +0.241 C 
ATOM      2  C   UNL     1     -11.959  14.315  71.735  0.00  0.00    +0.234 C 
ATOM      3  O   UNL     1     -13.156  14.126  72.616  0.00  0.00    -0.216 OA
ATOM      4  C   UNL     1     -12.351  15.877  71.207  0.00  0.00    +0.216 C 
ATOM      5  O   UNL     1     -13.834  15.657  71.069  0.00  0.00    -0.218 OA
ATOM      6  C   UNL     1     -12.199  15.546  69.537  0.00  0.00    +0.180 C 
ATOM      7  O   UNL     1     -11.467  14.243  69.687  0.00  0.00    -0.331 OA
ENDROOT
BRANCH   1  13
ATOM      8  N   UNL     1     -10.657   8.019  69.701  0.00  0.00    -0.218 NA
ATOM      9  C   UNL     1     -10.856   9.305  69.154  0.00  0.00    +0.170 A 
ATOM     10  C   UNL     1     -11.545  10.244  69.888  0.00  0.00    +0.150 A 
ATOM     11  N   UNL     1     -12.004  10.193  71.161  0.00  0.00    -0.219 NA
ATOM     12  C   UNL     1     -12.730  11.330  71.285  0.00  0.00    +0.182 A 
ATOM     13  N   UNL     1     -12.048  12.255  70.556  0.00  0.00    -0.269 N 
ATOM     14  C   UNL     1     -11.774  11.538  69.433  0.00  0.00    +0.169 A 
ATOM     15  N   UNL     1     -11.261  11.884  68.229  0.00  0.00    -0.202 NA
ATOM     16  C   UNL     1     -10.569  10.954  67.528  0.00  0.00    +0.193 A 
ATOM     17  N   UNL     1     -10.549   9.649  67.891  0.00  0.00    -0.203 NA
BRANCH   8  18
ATOM     18  C   UNL     1     -11.642   7.476  70.633  0.00  0.00    +0.125 C 
BRANCH  18  19
ATOM     19  C   UNL     1     -11.162   6.137  71.109  0.00  0.00    +0.081 C 
BRANCH  19  21
ATOM     20  C   UNL     1     -10.413   7.064  73.531  0.00  0.00    +0.069 C 
ATOM     21  S   UNL     1     -10.847   6.061  72.877  0.00  0.00    -0.137 S 
ENDBRANCH  19  21
ENDBRANCH  18  19
ENDBRANCH   8  18
BRANCH  16  22
ATOM     22  S   UNL     1      -9.598  11.443  66.109  0.00  0.00    -0.075 S 
BRANCH  22  23
ATOM     23  C   UNL     1     -10.541  10.980  64.632  0.00  0.00    +0.074 C 
BRANCH  23  24
ATOM     24  C   UNL     1     -10.729  12.235  63.788  0.00  0.00    +0.115 C 
BRANCH  24  25
ATOM     25  C   UNL     1     -12.212  12.508  63.762  0.00  0.00    +0.399 C 
ATOM     26  F   UNL     1     -12.668  12.431  65.062  0.00  0.00    -0.170 F 
ATOM     27  F   UNL     1     -12.420  13.773  63.266  0.00  0.00    -0.170 F 
ATOM     28  F   UNL     1     -12.801  11.544  62.985  0.00  0.00    -0.170 F 
ENDBRANCH  24  25
ENDBRANCH  23  24
ENDBRANCH  22  23
ENDBRANCH  16  22
ENDBRANCH   1  13
BRANCH   6  29
ATOM     29  C   UNL     1     -10.818  16.399  69.353  0.00  0.00    +0.181 C 
BRANCH  29  30
ATOM     30  O   UNL     1     -10.499  16.715  68.145  0.00  0.00    -0.311 OA
BRANCH  30  31
ATOM     31  P   UNL     1      -9.865  15.782  67.002  0.00  0.00    +0.221 P 
ATOM     32  O   UNL     1     -11.164  15.226  66.049  0.00  0.00    -0.437 OA
ATOM     33  O   UNL     1      -9.067  14.675  67.626  0.00  0.00    -0.517 OA
BRANCH  31  34
ATOM     34  O   UNL     1      -8.779  16.419  65.892  0.00  0.00    -0.247 OA
BRANCH  34  35
ATOM     35  P   UNL     1      -7.612  17.266  66.762  0.00  0.00    +0.407 P 
ATOM     36  O   UNL     1      -7.382  16.636  68.329  0.00  0.00    -0.137 OA
ATOM     37  O   UNL     1      -6.300  16.939  66.055  0.00  0.00    -0.252 OA
BRANCH  35  38
ATOM     38  C   UNL     1      -7.884  18.994  66.992  0.00  0.00    +0.272 C 
ATOM     39 CL   UNL     1      -9.361  19.628  66.199  0.00  0.00    -0.080 Cl
ATOM     40 CL   UNL     1      -8.243  19.258  68.731  0.00  0.00    -0.080 Cl
BRANCH  38  41
ATOM     41  P   UNL     1      -6.526  20.091  66.596  0.00  0.00    +0.156 P 
ATOM     42  O   UNL     1      -6.752  21.643  67.189  0.00  0.00    -0.355 OA
ATOM     43  O   UNL     1      -5.161  19.399  67.349  0.00  0.00    -0.355 OA
ATOM     44  O   UNL     1      -6.228  20.065  65.115  0.00  0.00    -0.457 OA
ENDBRANCH  38  41
ENDBRANCH  35  38
ENDBRANCH  34  35
ENDBRANCH  31  34
ENDBRANCH  30  31
ENDBRANCH  29  30
ENDBRANCH   6  29
TORSDOF 15
ENDMDL
MODEL 3
REMARK VINA RESULT:      -8.0      2.830      4.099
REMARK  Name = 
REMARK  15 active torsions:
REMARK  status: ('A' for Active; 'I' for Inactive)
REMARK    1  A    between atoms: S_2  and  C_3
REMARK    2  A    between atoms: C_3  and  C_4
REMARK    3  A    between atoms: C_4  and  N_5
REMARK    4  A    between atoms: C_8  and  S_9
REMARK    5  A    between atoms: S_9  and  C_10
REMARK    6  A    between atoms: C_10  and  C_11
REMARK    7  A    between atoms: C_11  and  C_12
REMARK    8  A    between atoms: N_21  and  C_22
REMARK    9  A    between atoms: C_24  and  C_25
REMARK   10  A    between atoms: C_25  and  O_26
REMARK   11  A    between atoms: O_26  and  P_27
REMARK   12  A    between atoms: P_27  and  O_30
REMARK   13  A    between atoms: O_30  and  P_31
REMARK   14  A    between atoms: P_31  and  C_34
REMARK   15  A    between atoms: C_34  and  P_37
REMARK                            x       y       z     vdW  Elec       q    Type
REMARK                         _______ _______ _______ _____ _____    ______ ____
ROOT
ATOM      1  C   UNL     1      -9.233   9.845  67.114  0.00  0.00    +0.241 C 
ATOM      2  C   UNL     1      -9.763   8.904  65.789  0.00  0.00    +0.234 C 
ATOM      3  O   UNL     1      -8.612   7.947  65.853  0.00  0.00    -0.216 OA
ATOM      4  C   UNL     1      -9.037  10.013  64.734  0.00  0.00    +0.216 C 
ATOM      5  O   UNL     1      -7.652   9.947  65.323  0.00  0.00    -0.218 OA
ATOM      6  C   UNL     1      -9.323  11.395  65.699  0.00  0.00    +0.180 C 
ATOM      7  O   UNL     1     -10.334  10.759  66.611  0.00  0.00    -0.331 OA
ENDROOT
BRANCH   1  13
ATOM      8  N   UNL     1     -12.450   8.087  71.928  0.00  0.00    -0.218 NA
ATOM      9  C   UNL     1     -11.949   9.132  71.123  0.00  0.00    +0.170 A 
ATOM     10  C   UNL     1     -11.104   8.824  70.080  0.00  0.00    +0.150 A 
ATOM     11  N   UNL     1     -10.727   7.620  69.587  0.00  0.00    -0.219 NA
ATOM     12  C   UNL     1      -9.775   7.932  68.675  0.00  0.00    +0.182 A 
ATOM     13  N   UNL     1     -10.202   9.096  68.116  0.00  0.00    -0.269 N 
ATOM     14  C   UNL     1     -10.576   9.787  69.226  0.00  0.00    +0.169 A 
ATOM     15  N   UNL     1     -10.945  11.075  69.423  0.00  0.00    -0.202 NA
ATOM     16  C   UNL     1     -11.791  11.358  70.442  0.00  0.00    +0.193 A 
ATOM     17  N   UNL     1     -12.114  10.440  71.384  0.00  0.00    -0.203 NA
BRANCH   8  18
ATOM     18  C   UNL     1     -11.653   6.877  72.113  0.00  0.00    +0.125 C 
BRANCH  18  19
ATOM     19  C   UNL     1     -10.793   7.053  73.329  0.00  0.00    +0.081 C 
BRANCH  19  21
ATOM     20  C   UNL     1     -10.464   4.381  73.514  0.00  0.00    +0.069 C 
ATOM     21  S   UNL     1     -10.247   5.508  74.066  0.00  0.00    -0.137 S 
ENDBRANCH  19  21
ENDBRANCH  18  19
ENDBRANCH   8  18
BRANCH  16  22
ATOM     22  S   UNL     1     -12.564  12.966  70.541  0.00  0.00    -0.075 S 
BRANCH  22  23
ATOM     23  C   UNL     1     -13.515  13.007  72.084  0.00  0.00    +0.074 C 
BRANCH  23  24
ATOM     24  C   UNL     1     -13.188  14.314  72.796  0.00  0.00    +0.115 C 
BRANCH  24  25
ATOM     25  C   UNL     1     -14.056  15.370  72.159  0.00  0.00    +0.399 C 
ATOM     26  F   UNL     1     -13.335  15.925  71.121  0.00  0.00    -0.170 F 
ATOM     27  F   UNL     1     -15.195  14.773  71.673  0.00  0.00    -0.170 F 
ATOM     28  F   UNL     1     -14.334  16.314  73.113  0.00  0.00    -0.170 F 
ENDBRANCH  24  25
ENDBRANCH  23  24
ENDBRANCH  22  23
ENDBRANCH  16  22
ENDBRANCH   1  13
BRANCH   6  29
ATOM     29  C   UNL     1     -10.473  12.013  64.717  0.00  0.00    +0.181 C 
BRANCH  29  30
ATOM     30  O   UNL     1     -10.471  13.294  64.571  0.00  0.00    -0.311 OA
BRANCH  30  31
ATOM     31  P   UNL     1     -11.564  14.357  65.075  0.00  0.00    +0.221 P 
ATOM     32  O   UNL     1     -12.395  13.627  66.372  0.00  0.00    -0.437 OA
ATOM     33  O   UNL     1     -12.460  14.752  63.938  0.00  0.00    -0.517 OA
BRANCH  31  34
ATOM     34  O   UNL     1     -11.081  15.848  65.678  0.00  0.00    -0.247 OA
BRANCH  34  35
ATOM     35  P   UNL     1      -9.907  15.558  66.850  0.00  0.00    +0.407 P 
ATOM     36  O   UNL     1     -10.216  14.141  67.746  0.00  0.00    -0.137 OA
ATOM     37  O   UNL     1      -8.655  15.206  66.054  0.00  0.00    -0.252 OA
BRANCH  35  38
ATOM     38  C   UNL     1      -9.652  16.822  68.055  0.00  0.00    +0.272 C 
ATOM     39 CL   UNL     1     -10.738  16.726  69.478  0.00  0.00    -0.080 Cl
ATOM     40 CL   UNL     1      -8.037  16.551  68.790  0.00  0.00    -0.080 Cl
BRANCH  38  41
ATOM     41  P   UNL     1      -9.651  18.514  67.471  0.00  0.00    +0.156 P 
ATOM     42  O   UNL     1     -11.176  19.212  67.502  0.00  0.00    -0.355 OA
ATOM     43  O   UNL     1      -8.629  19.356  68.547  0.00  0.00    -0.355 OA
ATOM     44  O   UNL     1      -8.986  18.615  66.118  0.00  0.00    -0.457 OA
ENDBRANCH  38  41
ENDBRANCH  35  38
ENDBRANCH  34  35
ENDBRANCH  31  34
ENDBRANCH  30  31
ENDBRANCH  29  30
ENDBRANCH   6  29
TORSDOF 15
ENDMDL
MODEL 4
REMARK VINA RESULT:      -8.0      1.289      1.804
REMARK  Name = 
REMARK  15 active torsions:
REMARK  status: ('A' for Active; 'I' for Inactive)
REMARK    1  A    between atoms: S_2  and  C_3
REMARK    2  A    between atoms: C_3  and  C_4
REMARK    3  A    between atoms: C_4  and  N_5
REMARK    4  A    between atoms: C_8  and  S_9
REMARK    5  A    between atoms: S_9  and  C_10
REMARK    6  A    between atoms: C_10  and  C_11
REMARK    7  A    between atoms: C_11  and  C_12
REMARK    8  A    between atoms: N_21  and  C_22
REMARK    9  A    between atoms: C_24  and  C_25
REMARK   10  A    between atoms: C_25  and  O_26
REMARK   11  A    between atoms: O_26  and  P_27
REMARK   12  A    between atoms: P_27  and  O_30
REMARK   13  A    between atoms: O_30  and  P_31
REMARK   14  A    between atoms: P_31  and  C_34
REMARK   15  A    between atoms: C_34  and  P_37
REMARK                            x       y       z     vdW  Elec       q    Type
REMARK                         _______ _______ _______ _____ _____    ______ ____
ROOT
ATOM      1  C   UNL     1     -11.214  12.730  65.624  0.00  0.00    +0.241 C 
ATOM      2  C   UNL     1     -12.793  13.299  65.301  0.00  0.00    +0.234 C 
ATOM      3  O   UNL     1     -13.076  12.276  64.244  0.00  0.00    -0.216 OA
ATOM      4  C   UNL     1     -12.140  14.472  64.268  0.00  0.00    +0.216 C 
ATOM      5  O   UNL     1     -11.379  13.528  63.376  0.00  0.00    -0.218 OA
ATOM      6  C   UNL     1     -10.698  14.711  65.155  0.00  0.00    +0.180 C 
ATOM      7  O   UNL     1     -11.155  14.025  66.411  0.00  0.00    -0.331 OA
ENDROOT
BRANCH   1  13
ATOM      8  N   UNL     1     -12.197  10.571  71.191  0.00  0.00    -0.218 NA
ATOM      9  C   UNL     1     -12.047  11.680  70.331  0.00  0.00    +0.170 A 
ATOM     10  C   UNL     1     -11.717  11.462  69.012  0.00  0.00    +0.150 A 
ATOM     11  N   UNL     1     -11.608  10.305  68.318  0.00  0.00    -0.219 NA
ATOM     12  C   UNL     1     -11.111  10.695  67.120  0.00  0.00    +0.182 A 
ATOM     13  N   UNL     1     -11.701  11.897  66.877  0.00  0.00    -0.269 N 
ATOM     14  C   UNL     1     -11.564  12.494  68.091  0.00  0.00    +0.169 A 
ATOM     15  N   UNL     1     -11.786  13.759  68.520  0.00  0.00    -0.202 NA
ATOM     16  C   UNL     1     -12.128  13.955  69.815  0.00  0.00    +0.193 A 
ATOM     17  N   UNL     1     -12.056  12.962  70.735  0.00  0.00    -0.203 NA
BRANCH   8  18
ATOM     18  C   UNL     1     -11.426   9.357  70.937  0.00  0.00    +0.125 C 
BRANCH  18  19
ATOM     19  C   UNL     1     -12.138   8.198  71.569  0.00  0.00    +0.081 C 
BRANCH  19  21
ATOM     20  C   UNL     1     -14.823   8.020  71.767  0.00  0.00    +0.069 C 
ATOM     21  S   UNL     1     -13.774   8.600  72.196  0.00  0.00    -0.137 S 
ENDBRANCH  19  21
ENDBRANCH  18  19
ENDBRANCH   8  18
BRANCH  16  22
ATOM     22  S   UNL     1     -12.750  15.544  70.347  0.00  0.00    -0.075 S 
BRANCH  22  23
ATOM     23  C   UNL     1     -14.009  15.228  71.612  0.00  0.00    +0.074 C 
BRANCH  23  24
ATOM     24  C   UNL     1     -13.599  15.978  72.873  0.00  0.00    +0.115 C 
BRANCH  24  25
ATOM     25  C   UNL     1     -12.608  15.093  73.587  0.00  0.00    +0.399 C 
ATOM     26  F   UNL     1     -12.617  15.454  74.919  0.00  0.00    -0.170 F 
ATOM     27  F   UNL     1     -13.006  13.784  73.452  0.00  0.00    -0.170 F 
ATOM     28  F   UNL     1     -11.373  15.317  73.034  0.00  0.00    -0.170 F 
ENDBRANCH  24  25
ENDBRANCH  23  24
ENDBRANCH  22  23
ENDBRANCH  16  22
ENDBRANCH   1  13
BRANCH   6  29
ATOM     29  C   UNL     1     -11.120  16.189  65.708  0.00  0.00    +0.181 C 
BRANCH  29  30
ATOM     30  O   UNL     1     -10.218  17.107  65.631  0.00  0.00    -0.311 OA
BRANCH  30  31
ATOM     31  P   UNL     1     -10.107  18.471  66.470  0.00  0.00    +0.221 P 
ATOM     32  O   UNL     1     -10.935  18.211  67.938  0.00  0.00    -0.437 OA
ATOM     33  O   UNL     1     -10.658  19.615  65.670  0.00  0.00    -0.517 OA
BRANCH  31  34
ATOM     34  O   UNL     1      -8.606  19.059  66.939  0.00  0.00    -0.247 OA
BRANCH  34  35
ATOM     35  P   UNL     1      -7.584  17.733  67.125  0.00  0.00    +0.407 P 
ATOM     36  O   UNL     1      -8.311  16.468  68.006  0.00  0.00    -0.137 OA
ATOM     37  O   UNL     1      -7.454  17.155  65.719  0.00  0.00    -0.252 OA
BRANCH  35  38
ATOM     38  C   UNL     1      -6.036  18.023  67.921  0.00  0.00    +0.272 C 
ATOM     39 CL   UNL     1      -6.071  19.302  69.176  0.00  0.00    -0.080 Cl
ATOM     40 CL   UNL     1      -5.640  16.560  68.882  0.00  0.00    -0.080 Cl
BRANCH  38  41
ATOM     41  P   UNL     1      -4.622  18.319  66.865  0.00  0.00    +0.156 P 
ATOM     42  O   UNL     1      -4.176  16.963  65.984  0.00  0.00    -0.355 OA
ATOM     43  O   UNL     1      -5.118  19.546  65.789  0.00  0.00    -0.355 OA
ATOM     44  O   UNL     1      -3.476  18.910  67.653  0.00  0.00    -0.457 OA
ENDBRANCH  38  41
ENDBRANCH  35  38
ENDBRANCH  34  35
ENDBRANCH  31  34
ENDBRANCH  30  31
ENDBRANCH  29  30
ENDBRANCH   6  29
TORSDOF 15
ENDMDL
MODEL 5
REMARK VINA RESULT:      -7.9      3.422      5.262
REMARK  Name = 
REMARK  15 active torsions:
REMARK  status: ('A' for Active; 'I' for Inactive)
REMARK    1  A    between atoms: S_2  and  C_3
REMARK    2  A    between atoms: C_3  and  C_4
REMARK    3  A    between atoms: C_4  and  N_5
REMARK    4  A    between atoms: C_8  and  S_9
REMARK    5  A    between atoms: S_9  and  C_10
REMARK    6  A    between atoms: C_10  and  C_11
REMARK    7  A    between atoms: C_11  and  C_12
REMARK    8  A    between atoms: N_21  and  C_22
REMARK    9  A    between atoms: C_24  and  C_25
REMARK   10  A    between atoms: C_25  and  O_26
REMARK   11  A    between atoms: O_26  and  P_27
REMARK   12  A    between atoms: P_27  and  O_30
REMARK   13  A    between atoms: O_30  and  P_31
REMARK   14  A    between atoms: P_31  and  C_34
REMARK   15  A    between atoms: C_34  and  P_37
REMARK                            x       y       z     vdW  Elec       q    Type
REMARK                         _______ _______ _______ _____ _____    ______ ____
ROOT
ATOM      1  C   UNL     1     -12.897  13.725  70.708  0.00  0.00    +0.241 C 
ATOM      2  C   UNL     1     -12.170  14.326  72.134  0.00  0.00    +0.234 C 
ATOM      3  O   UNL     1     -13.400  14.162  72.975  0.00  0.00    -0.216 OA
ATOM      4  C   UNL     1     -12.498  15.905  71.614  0.00  0.00    +0.216 C 
ATOM      5  O   UNL     1     -13.982  15.732  71.426  0.00  0.00    -0.218 OA
ATOM      6  C   UNL     1     -12.303  15.590  69.945  0.00  0.00    +0.180 C 
ATOM      7  O   UNL     1     -11.615  14.263  70.101  0.00  0.00    -0.331 OA
ENDROOT
BRANCH   1  13
ATOM      8  N   UNL     1     -10.986   8.020  70.059  0.00  0.00    -0.218 NA
ATOM      9  C   UNL     1     -11.128   9.319  69.524  0.00  0.00    +0.170 A 
ATOM     10  C   UNL     1     -11.815  10.268  70.247  0.00  0.00    +0.150 A 
ATOM     11  N   UNL     1     -12.321  10.213  71.502  0.00  0.00    -0.219 NA
ATOM     12  C   UNL     1     -13.017  11.369  71.617  0.00  0.00    +0.182 A 
ATOM     13  N   UNL     1     -12.283  12.284  70.926  0.00  0.00    -0.269 N 
ATOM     14  C   UNL     1     -11.989  11.575  69.803  0.00  0.00    +0.169 A 
ATOM     15  N   UNL     1     -11.423  11.921  68.623  0.00  0.00    -0.202 NA
ATOM     16  C   UNL     1     -10.734  10.981  67.934  0.00  0.00    +0.193 A 
ATOM     17  N   UNL     1     -10.765   9.671  68.278  0.00  0.00    -0.203 NA
BRANCH   8  18
ATOM     18  C   UNL     1     -12.019   7.494  70.947  0.00  0.00    +0.125 C 
BRANCH  18  19
ATOM     19  C   UNL     1     -11.383   6.526  71.899  0.00  0.00    +0.081 C 
BRANCH  19  21
ATOM     20  C   UNL     1      -9.990   6.663  74.207  0.00  0.00    +0.069 C 
ATOM     21  S   UNL     1     -10.401   7.306  73.187  0.00  0.00    -0.137 S 
ENDBRANCH  19  21
ENDBRANCH  18  19
ENDBRANCH   8  18
BRANCH  16  22
ATOM     22  S   UNL     1      -9.699  11.460  66.558  0.00  0.00    -0.075 S 
BRANCH  22  23
ATOM     23  C   UNL     1     -10.581  12.760  65.653  0.00  0.00    +0.074 C 
BRANCH  23  24
ATOM     24  C   UNL     1     -11.880  12.161  65.129  0.00  0.00    +0.115 C 
BRANCH  24  25
ATOM     25  C   UNL     1     -11.928  12.481  63.655  0.00  0.00    +0.399 C 
ATOM     26  F   UNL     1     -12.802  11.591  63.068  0.00  0.00    -0.170 F 
ATOM     27  F   UNL     1     -12.389  13.766  63.497  0.00  0.00    -0.170 F 
ATOM     28  F   UNL     1     -10.663  12.321  63.152  0.00  0.00    -0.170 F 
ENDBRANCH  24  25
ENDBRANCH  23  24
ENDBRANCH  22  23
ENDBRANCH  16  22
ENDBRANCH   1  13
BRANCH   6  29
ATOM     29  C   UNL     1     -10.892  16.402  69.815  0.00  0.00    +0.181 C 
BRANCH  29  30
ATOM     30  O   UNL     1     -10.198  16.176  68.753  0.00  0.00    -0.311 OA
BRANCH  30  31
ATOM     31  P   UNL     1     -10.094  17.065  67.420  0.00  0.00    +0.221 P 
ATOM     32  O   UNL     1     -11.000  18.480  67.704  0.00  0.00    -0.437 OA
ATOM     33  O   UNL     1     -10.573  16.278  66.236  0.00  0.00    -0.517 OA
BRANCH  31  34
ATOM     34  O   UNL     1      -8.603  17.627  66.890  0.00  0.00    -0.247 OA
BRANCH  34  35
ATOM     35  P   UNL     1      -7.849  18.363  68.203  0.00  0.00    +0.407 P 
ATOM     36  O   UNL     1      -8.928  19.295  69.137  0.00  0.00    -0.137 OA
ATOM     37  O   UNL     1      -7.489  17.206  69.131  0.00  0.00    -0.252 OA
BRANCH  35  38
ATOM     38  C   UNL     1      -6.495  19.437  67.848  0.00  0.00    +0.272 C 
ATOM     39 CL   UNL     1      -5.460  18.907  66.485  0.00  0.00    -0.080 Cl
ATOM     40 CL   UNL     1      -7.176  20.979  67.231  0.00  0.00    -0.080 Cl
BRANCH  38  41
ATOM     41  P   UNL     1      -5.428  19.881  69.216  0.00  0.00    +0.156 P 
ATOM     42  O   UNL     1      -6.284  20.373  70.572  0.00  0.00    -0.355 OA
ATOM     43  O   UNL     1      -4.565  18.457  69.587  0.00  0.00    -0.355 OA
ATOM     44  O   UNL     1      -4.386  20.885  68.782  0.00  0.00    -0.457 OA
ENDBRANCH  38  41
ENDBRANCH  35  38
ENDBRANCH  34  35
ENDBRANCH  31  34
ENDBRANCH  30  31
ENDBRANCH  29  30
ENDBRANCH   6  29
TORSDOF 15
ENDMDL
MODEL 6
REMARK VINA RESULT:      -7.9      3.372      5.190
REMARK  Name = 
REMARK  15 active torsions:
REMARK  status: ('A' for Active; 'I' for Inactive)
REMARK    1  A    between atoms: S_2  and  C_3
REMARK    2  A    between atoms: C_3  and  C_4
REMARK    3  A    between atoms: C_4  and  N_5
REMARK    4  A    between atoms: C_8  and  S_9
REMARK    5  A    between atoms: S_9  and  C_10
REMARK    6  A    between atoms: C_10  and  C_11
REMARK    7  A    between atoms: C_11  and  C_12
REMARK    8  A    between atoms: N_21  and  C_22
REMARK    9  A    between atoms: C_24  and  C_25
REMARK   10  A    between atoms: C_25  and  O_26
REMARK   11  A    between atoms: O_26  and  P_27
REMARK   12  A    between atoms: P_27  and  O_30
REMARK   13  A    between atoms: O_30  and  P_31
REMARK   14  A    between atoms: P_31  and  C_34
REMARK   15  A    between atoms: C_34  and  P_37
REMARK                            x       y       z     vdW  Elec       q    Type
REMARK                         _______ _______ _______ _____ _____    ______ ____
ROOT
ATOM      1  C   UNL     1     -12.871  13.722  70.584  0.00  0.00    +0.241 C 
ATOM      2  C   UNL     1     -11.976  14.397  71.875  0.00  0.00    +0.234 C 
ATOM      3  O   UNL     1     -13.080  14.251  72.877  0.00  0.00    -0.216 OA
ATOM      4  C   UNL     1     -12.404  15.946  71.337  0.00  0.00    +0.216 C 
ATOM      5  O   UNL     1     -13.895  15.741  71.355  0.00  0.00    -0.218 OA
ATOM      6  C   UNL     1     -12.424  15.560  69.672  0.00  0.00    +0.180 C 
ATOM      7  O   UNL     1     -11.692  14.253  69.791  0.00  0.00    -0.331 OA
ENDROOT
BRANCH   1  13
ATOM      8  N   UNL     1     -10.726   8.113  69.837  0.00  0.00    -0.218 NA
ATOM      9  C   UNL     1     -10.913   9.416  69.328  0.00  0.00    +0.170 A 
ATOM     10  C   UNL     1     -11.646  10.321  70.062  0.00  0.00    +0.150 A 
ATOM     11  N   UNL     1     -12.164  10.219  71.310  0.00  0.00    -0.219 NA
ATOM     12  C   UNL     1     -12.907  11.344  71.441  0.00  0.00    +0.182 A 
ATOM     13  N   UNL     1     -12.202  12.301  70.779  0.00  0.00    -0.269 N 
ATOM     14  C   UNL     1     -11.867  11.629  69.645  0.00  0.00    +0.169 A 
ATOM     15  N   UNL     1     -11.302  12.024  68.480  0.00  0.00    -0.202 NA
ATOM     16  C   UNL     1     -10.568  11.127  67.779  0.00  0.00    +0.193 A 
ATOM     17  N   UNL     1     -10.551   9.810  68.095  0.00  0.00    -0.203 NA
BRANCH   8  18
ATOM     18  C   UNL     1     -11.747   7.527  70.701  0.00  0.00    +0.125 C 
BRANCH  18  19
ATOM     19  C   UNL     1     -11.078   6.594  71.666  0.00  0.00    +0.081 C 
BRANCH  19  21
ATOM     20  C   UNL     1      -9.838   6.772  74.057  0.00  0.00    +0.069 C 
ATOM     21  S   UNL     1     -10.554   7.379  73.196  0.00  0.00    -0.137 S 
ENDBRANCH  19  21
ENDBRANCH  18  19
ENDBRANCH   8  18
BRANCH  16  22
ATOM     22  S   UNL     1      -9.537  11.677  66.426  0.00  0.00    -0.075 S 
BRANCH  22  23
ATOM     23  C   UNL     1     -10.600  11.808  64.964  0.00  0.00    +0.074 C 
BRANCH  23  24
ATOM     24  C   UNL     1     -10.709  13.283  64.599  0.00  0.00    +0.115 C 
BRANCH  24  25
ATOM     25  C   UNL     1     -12.063  13.739  65.083  0.00  0.00    +0.399 C 
ATOM     26  F   UNL     1     -12.543  14.652  64.166  0.00  0.00    -0.170 F 
ATOM     27  F   UNL     1     -12.900  12.650  65.142  0.00  0.00    -0.170 F 
ATOM     28  F   UNL     1     -11.893  14.328  66.309  0.00  0.00    -0.170 F 
ENDBRANCH  24  25
ENDBRANCH  23  24
ENDBRANCH  22  23
ENDBRANCH  16  22
ENDBRANCH   1  13
BRANCH   6  29
ATOM     29  C   UNL     1     -11.060  16.388  69.322  0.00  0.00    +0.181 C 
BRANCH  29  30
ATOM     30  O   UNL     1     -10.706  16.409  68.083  0.00  0.00    -0.311 OA
BRANCH  30  31
ATOM     31  P   UNL     1     -10.128  17.640  67.230  0.00  0.00    +0.221 P 
ATOM     32  O   UNL     1     -11.027  19.014  67.684  0.00  0.00    -0.437 OA
ATOM     33  O   UNL     1     -10.207  17.332  65.763  0.00  0.00    -0.517 OA
BRANCH  31  34
ATOM     34  O   UNL     1      -8.527  18.116  67.404  0.00  0.00    -0.247 OA
BRANCH  34  35
ATOM     35  P   UNL     1      -7.566  16.770  67.084  0.00  0.00    +0.407 P 
ATOM     36  O   UNL     1      -8.461  15.468  66.443  0.00  0.00    -0.137 OA
ATOM     37  O   UNL     1      -6.685  17.202  65.917  0.00  0.00    -0.252 OA
BRANCH  35  38
ATOM     38  C   UNL     1      -6.666  16.091  68.442  0.00  0.00    +0.272 C 
ATOM     39 CL   UNL     1      -6.051  17.302  69.610  0.00  0.00    -0.080 Cl
ATOM     40 CL   UNL     1      -7.823  15.152  69.443  0.00  0.00    -0.080 Cl
BRANCH  38  41
ATOM     41  P   UNL     1      -5.329  14.968  68.049  0.00  0.00    +0.156 P 
ATOM     42  O   UNL     1      -4.105  15.700  67.167  0.00  0.00    -0.355 OA
ATOM     43  O   UNL     1      -4.708  14.470  69.558  0.00  0.00    -0.355 OA
ATOM     44  O   UNL     1      -5.855  13.713  67.393  0.00  0.00    -0.457 OA
ENDBRANCH  38  41
ENDBRANCH  35  38
ENDBRANCH  34  35
ENDBRANCH  31  34
ENDBRANCH  30  31
ENDBRANCH  29  30
ENDBRANCH   6  29
TORSDOF 15
ENDMDL
MODEL 7
REMARK VINA RESULT:      -7.8      1.244      1.751
REMARK  Name = 
REMARK  15 active torsions:
REMARK  status: ('A' for Active; 'I' for Inactive)
REMARK    1  A    between atoms: S_2  and  C_3
REMARK    2  A    between atoms: C_3  and  C_4
REMARK    3  A    between atoms: C_4  and  N_5
REMARK    4  A    between atoms: C_8  and  S_9
REMARK    5  A    between atoms: S_9  and  C_10
REMARK    6  A    between atoms: C_10  and  C_11
REMARK    7  A    between atoms: C_11  and  C_12
REMARK    8  A    between atoms: N_21  and  C_22
REMARK    9  A    between atoms: C_24  and  C_25
REMARK   10  A    between atoms: C_25  and  O_26
REMARK   11  A    between atoms: O_26  and  P_27
REMARK   12  A    between atoms: P_27  and  O_30
REMARK   13  A    between atoms: O_30  and  P_31
REMARK   14  A    between atoms: P_31  and  C_34
REMARK   15  A    between atoms: C_34  and  P_37
REMARK                            x       y       z     vdW  Elec       q    Type
REMARK                         _______ _______ _______ _____ _____    ______ ____
ROOT
ATOM      1  C   UNL     1     -10.627  12.389  66.100  0.00  0.00    +0.241 C 
ATOM      2  C   UNL     1     -12.128  12.876  65.443  0.00  0.00    +0.234 C 
ATOM      3  O   UNL     1     -12.150  11.811  64.389  0.00  0.00    -0.216 OA
ATOM      4  C   UNL     1     -11.323  14.047  64.520  0.00  0.00    +0.216 C 
ATOM      5  O   UNL     1     -10.360  13.113  63.836  0.00  0.00    -0.218 OA
ATOM      6  C   UNL     1     -10.103  14.377  65.670  0.00  0.00    +0.180 C 
ATOM      7  O   UNL     1     -10.779  13.708  66.833  0.00  0.00    -0.331 OA
ENDROOT
BRANCH   1  13
ATOM      8  N   UNL     1     -12.566  10.296  71.436  0.00  0.00    -0.218 NA
ATOM      9  C   UNL     1     -12.264  11.395  70.603  0.00  0.00    +0.170 A 
ATOM     10  C   UNL     1     -11.713  11.161  69.363  0.00  0.00    +0.150 A 
ATOM     11  N   UNL     1     -11.491   9.995  68.711  0.00  0.00    -0.219 NA
ATOM     12  C   UNL     1     -10.793  10.371  67.613  0.00  0.00    +0.182 A 
ATOM     13  N   UNL     1     -11.327  11.571  67.259  0.00  0.00    -0.269 N 
ATOM     14  C   UNL     1     -11.398  12.182  68.472  0.00  0.00    +0.169 A 
ATOM     15  N   UNL     1     -11.684  13.453  68.843  0.00  0.00    -0.202 NA
ATOM     16  C   UNL     1     -12.243  13.663  70.058  0.00  0.00    +0.193 A 
ATOM     17  N   UNL     1     -12.336  12.681  70.986  0.00  0.00    -0.203 NA
BRANCH   8  18
ATOM     18  C   UNL     1     -11.768   9.077  71.332  0.00  0.00    +0.125 C 
BRANCH  18  19
ATOM     19  C   UNL     1     -12.110   8.182  72.486  0.00  0.00    +0.081 C 
BRANCH  19  21
ATOM     20  C   UNL     1      -9.930   7.156  73.702  0.00  0.00    +0.069 C 
ATOM     21  S   UNL     1     -10.855   6.949  72.851  0.00  0.00    -0.137 S 
ENDBRANCH  19  21
ENDBRANCH  18  19
ENDBRANCH   8  18
BRANCH  16  22
ATOM     22  S   UNL     1     -12.940  15.260  70.457  0.00  0.00    -0.075 S 
BRANCH  22  23
ATOM     23  C   UNL     1     -14.099  15.010  71.828  0.00  0.00    +0.074 C 
BRANCH  23  24
ATOM     24  C   UNL     1     -13.719  15.978  72.941  0.00  0.00    +0.115 C 
BRANCH  24  25
ATOM     25  C   UNL     1     -12.569  15.341  73.681  0.00  0.00    +0.399 C 
ATOM     26  F   UNL     1     -12.623  15.785  74.986  0.00  0.00    -0.170 F 
ATOM     27  F   UNL     1     -12.722  13.975  73.643  0.00  0.00    -0.170 F 
ATOM     28  F   UNL     1     -11.407  15.749  73.078  0.00  0.00    -0.170 F 
ENDBRANCH  24  25
ENDBRANCH  23  24
ENDBRANCH  22  23
ENDBRANCH  16  22
ENDBRANCH   1  13
BRANCH   6  29
ATOM     29  C   UNL     1     -10.685  15.850  66.070  0.00  0.00    +0.181 C 
BRANCH  29  30
ATOM     30  O   UNL     1      -9.873  16.842  65.935  0.00  0.00    -0.311 OA
BRANCH  30  31
ATOM     31  P   UNL     1     -10.028  18.341  66.486  0.00  0.00    +0.221 P 
ATOM     32  O   UNL     1     -10.936  18.242  67.925  0.00  0.00    -0.437 OA
ATOM     33  O   UNL     1     -10.660  19.212  65.441  0.00  0.00    -0.517 OA
BRANCH  31  34
ATOM     34  O   UNL     1      -8.671  19.233  66.913  0.00  0.00    -0.247 OA
BRANCH  34  35
ATOM     35  P   UNL     1      -7.352  18.186  66.878  0.00  0.00    +0.407 P 
ATOM     36  O   UNL     1      -7.586  16.810  67.857  0.00  0.00    -0.137 OA
ATOM     37  O   UNL     1      -7.356  17.618  65.463  0.00  0.00    -0.252 OA
BRANCH  35  38
ATOM     38  C   UNL     1      -5.793  18.848  67.374  0.00  0.00    +0.272 C 
ATOM     39 CL   UNL     1      -4.771  17.720  68.319  0.00  0.00    -0.080 Cl
ATOM     40 CL   UNL     1      -4.814  19.096  65.890  0.00  0.00    -0.080 Cl
BRANCH  38  41
ATOM     41  P   UNL     1      -5.812  20.425  68.222  0.00  0.00    +0.156 P 
ATOM     42  O   UNL     1      -6.618  21.615  67.358  0.00  0.00    -0.355 OA
ATOM     43  O   UNL     1      -6.643  20.135  69.683  0.00  0.00    -0.355 OA
ATOM     44  O   UNL     1      -4.415  20.836  68.624  0.00  0.00    -0.457 OA
ENDBRANCH  38  41
ENDBRANCH  35  38
ENDBRANCH  34  35
ENDBRANCH  31  34
ENDBRANCH  30  31
ENDBRANCH  29  30
ENDBRANCH   6  29
TORSDOF 15
ENDMDL
MODEL 8
REMARK VINA RESULT:      -7.7      3.834      5.855
REMARK  Name = 
REMARK  15 active torsions:
REMARK  status: ('A' for Active; 'I' for Inactive)
REMARK    1  A    between atoms: S_2  and  C_3
REMARK    2  A    between atoms: C_3  and  C_4
REMARK    3  A    between atoms: C_4  and  N_5
REMARK    4  A    between atoms: C_8  and  S_9
REMARK    5  A    between atoms: S_9  and  C_10
REMARK    6  A    between atoms: C_10  and  C_11
REMARK    7  A    between atoms: C_11  and  C_12
REMARK    8  A    between atoms: N_21  and  C_22
REMARK    9  A    between atoms: C_24  and  C_25
REMARK   10  A    between atoms: C_25  and  O_26
REMARK   11  A    between atoms: O_26  and  P_27
REMARK   12  A    between atoms: P_27  and  O_30
REMARK   13  A    between atoms: O_30  and  P_31
REMARK   14  A    between atoms: P_31  and  C_34
REMARK   15  A    between atoms: C_34  and  P_37
REMARK                            x       y       z     vdW  Elec       q    Type
REMARK                         _______ _______ _______ _____ _____    ______ ____
ROOT
ATOM      1  C   UNL     1      -9.946  17.175  66.943  0.00  0.00    +0.241 C 
ATOM      2  C   UNL     1      -9.580  18.532  67.916  0.00  0.00    +0.234 C 
ATOM      3  O   UNL     1     -10.893  19.212  67.672  0.00  0.00    -0.216 OA
ATOM      4  C   UNL     1      -8.755  19.224  66.608  0.00  0.00    +0.216 C 
ATOM      5  O   UNL     1      -9.893  19.168  65.623  0.00  0.00    -0.218 OA
ATOM      6  C   UNL     1      -8.185  17.752  65.953  0.00  0.00    +0.180 C 
ATOM      7  O   UNL     1      -8.470  16.906  67.162  0.00  0.00    -0.331 OA
ENDROOT
BRANCH   1  13
ATOM      8  N   UNL     1     -12.221  12.963  70.645  0.00  0.00    -0.218 NA
ATOM      9  C   UNL     1     -11.569  13.289  69.436  0.00  0.00    +0.170 A 
ATOM     10  C   UNL     1     -11.392  14.614  69.109  0.00  0.00    +0.150 A 
ATOM     11  N   UNL     1     -11.648  15.733  69.827  0.00  0.00    -0.219 NA
ATOM     12  C   UNL     1     -11.424  16.737  68.946  0.00  0.00    +0.182 A 
ATOM     13  N   UNL     1     -10.372  16.310  68.197  0.00  0.00    -0.269 N 
ATOM     14  C   UNL     1     -10.747  15.026  67.947  0.00  0.00    +0.169 A 
ATOM     15  N   UNL     1     -10.248  14.069  67.130  0.00  0.00    -0.202 NA
ATOM     16  C   UNL     1     -10.414  12.770  67.476  0.00  0.00    +0.193 A 
ATOM     17  N   UNL     1     -11.229  12.396  68.491  0.00  0.00    -0.203 NA
BRANCH   8  18
ATOM     18  C   UNL     1     -13.226  13.874  71.185  0.00  0.00    +0.125 C 
BRANCH  18  19
ATOM     19  C   UNL     1     -13.108  13.883  72.680  0.00  0.00    +0.081 C 
BRANCH  19  21
ATOM     20  C   UNL     1     -12.444  15.715  74.547  0.00  0.00    +0.069 C 
ATOM     21  S   UNL     1     -12.942  15.526  73.390  0.00  0.00    -0.137 S 
ENDBRANCH  19  21
ENDBRANCH  18  19
ENDBRANCH   8  18
BRANCH  16  22
ATOM     22  S   UNL     1      -9.500  11.493  66.622  0.00  0.00    -0.075 S 
BRANCH  22  23
ATOM     23  C   UNL     1      -9.763  11.745  64.846  0.00  0.00    +0.074 C 
BRANCH  23  24
ATOM     24  C   UNL     1     -11.176  11.283  64.515  0.00  0.00    +0.115 C 
BRANCH  24  25
ATOM     25  C   UNL     1     -11.963  12.529  64.196  0.00  0.00    +0.399 C 
ATOM     26  F   UNL     1     -12.932  12.666  65.169  0.00  0.00    -0.170 F 
ATOM     27  F   UNL     1     -11.113  13.609  64.224  0.00  0.00    -0.170 F 
ATOM     28  F   UNL     1     -12.537  12.356  62.963  0.00  0.00    -0.170 F 
ENDBRANCH  24  25
ENDBRANCH  23  24
ENDBRANCH  22  23
ENDBRANCH  16  22
ENDBRANCH   1  13
BRANCH   6  29
ATOM     29  C   UNL     1      -6.631  18.001  66.388  0.00  0.00    +0.181 C 
BRANCH  29  30
ATOM     30  O   UNL     1      -6.148  17.194  67.269  0.00  0.00    -0.311 OA
BRANCH  30  31
ATOM     31  P   UNL     1      -4.611  16.825  67.549  0.00  0.00    +0.221 P 
ATOM     32  O   UNL     1      -3.673  18.044  66.815  0.00  0.00    -0.437 OA
ATOM     33  O   UNL     1      -4.309  15.449  67.032  0.00  0.00    -0.517 OA
BRANCH  31  34
ATOM     34  O   UNL     1      -4.030  16.746  69.122  0.00  0.00    -0.247 OA
BRANCH  34  35
ATOM     35  P   UNL     1      -4.915  17.846  70.040  0.00  0.00    +0.407 P 
ATOM     36  O   UNL     1      -6.568  17.860  69.623  0.00  0.00    -0.137 OA
ATOM     37  O   UNL     1      -4.911  17.257  71.447  0.00  0.00    -0.252 OA
BRANCH  35  38
ATOM     38  C   UNL     1      -4.406  19.534  69.973  0.00  0.00    +0.272 C 
ATOM     39 CL   UNL     1      -2.744  19.788  69.353  0.00  0.00    -0.080 Cl
ATOM     40 CL   UNL     1      -5.406  20.352  68.727  0.00  0.00    -0.080 Cl
BRANCH  38  41
ATOM     41  P   UNL     1      -4.595  20.499  71.469  0.00  0.00    +0.156 P 
ATOM     42  O   UNL     1      -3.481  20.085  72.653  0.00  0.00    -0.355 OA
ATOM     43  O   UNL     1      -4.328  22.116  70.993  0.00  0.00    -0.355 OA
ATOM     44  O   UNL     1      -6.022  20.452  71.963  0.00  0.00    -0.457 OA
ENDBRANCH  38  41
ENDBRANCH  35  38
ENDBRANCH  34  35
ENDBRANCH  31  34
ENDBRANCH  30  31
ENDBRANCH  29  30
ENDBRANCH   6  29
TORSDOF 15
ENDMDL
MODEL 9
REMARK VINA RESULT:      -7.6      1.823      2.575
REMARK  Name = 
REMARK  15 active torsions:
REMARK  status: ('A' for Active; 'I' for Inactive)
REMARK    1  A    between atoms: S_2  and  C_3
REMARK    2  A    between atoms: C_3  and  C_4
REMARK    3  A    between atoms: C_4  and  N_5
REMARK    4  A    between atoms: C_8  and  S_9
REMARK    5  A    between atoms: S_9  and  C_10
REMARK    6  A    between atoms: C_10  and  C_11
REMARK    7  A    between atoms: C_11  and  C_12
REMARK    8  A    between atoms: N_21  and  C_22
REMARK    9  A    between atoms: C_24  and  C_25
REMARK   10  A    between atoms: C_25  and  O_26
REMARK   11  A    between atoms: O_26  and  P_27
REMARK   12  A    between atoms: P_27  and  O_30
REMARK   13  A    between atoms: O_30  and  P_31
REMARK   14  A    between atoms: P_31  and  C_34
REMARK   15  A    between atoms: C_34  and  P_37
REMARK                            x       y       z     vdW  Elec       q    Type
REMARK                         _______ _______ _______ _____ _____    ______ ____
ROOT
ATOM      1  C   UNL     1     -10.544  12.627  67.084  0.00  0.00    +0.241 C 
ATOM      2  C   UNL     1     -12.013  13.021  66.304  0.00  0.00    +0.234 C 
ATOM      3  O   UNL     1     -11.724  12.201  65.083  0.00  0.00    -0.216 OA
ATOM      4  C   UNL     1     -11.310  14.457  65.746  0.00  0.00    +0.216 C 
ATOM      5  O   UNL     1     -10.127  13.828  65.059  0.00  0.00    -0.218 OA
ATOM      6  C   UNL     1     -10.315  14.715  67.111  0.00  0.00    +0.180 C 
ATOM      7  O   UNL     1     -11.007  13.733  68.014  0.00  0.00    -0.331 OA
ENDROOT
BRANCH   1  13
ATOM      8  N   UNL     1     -12.718   9.219  71.587  0.00  0.00    -0.218 NA
ATOM      9  C   UNL     1     -12.500  10.499  71.033  0.00  0.00    +0.170 A 
ATOM     10  C   UNL     1     -11.784  10.606  69.862  0.00  0.00    +0.150 A 
ATOM     11  N   UNL     1     -11.311   9.644  69.036  0.00  0.00    -0.219 NA
ATOM     12  C   UNL     1     -10.561  10.330  68.141  0.00  0.00    +0.182 A 
ATOM     13  N   UNL     1     -11.233  11.499  67.953  0.00  0.00    -0.269 N 
ATOM     14  C   UNL     1     -11.535  11.825  69.239  0.00  0.00    +0.169 A 
ATOM     15  N   UNL     1     -12.056  12.940  69.803  0.00  0.00    -0.202 NA
ATOM     16  C   UNL     1     -12.774  12.814  70.944  0.00  0.00    +0.193 A 
ATOM     17  N   UNL     1     -12.816  11.654  71.643  0.00  0.00    -0.203 NA
BRANCH   8  18
ATOM     18  C   UNL     1     -11.733   8.164  71.364  0.00  0.00    +0.125 C 
BRANCH  18  19
ATOM     19  C   UNL     1     -10.900   8.019  72.603  0.00  0.00    +0.081 C 
BRANCH  19  21
ATOM     20  C   UNL     1      -8.693   8.804  71.263  0.00  0.00    +0.069 C 
ATOM     21  S   UNL     1      -9.143   8.285  72.335  0.00  0.00    -0.137 S 
ENDBRANCH  19  21
ENDBRANCH  18  19
ENDBRANCH   8  18
BRANCH  16  22
ATOM     22  S   UNL     1     -13.752  14.186  71.541  0.00  0.00    -0.075 S 
BRANCH  22  23
ATOM     23  C   UNL     1     -12.744  15.682  71.355  0.00  0.00    +0.074 C 
BRANCH  23  24
ATOM     24  C   UNL     1     -11.757  15.724  72.515  0.00  0.00    +0.115 C 
BRANCH  24  25
ATOM     25  C   UNL     1     -12.566  16.051  73.746  0.00  0.00    +0.399 C 
ATOM     26  F   UNL     1     -11.996  17.163  74.330  0.00  0.00    -0.170 F 
ATOM     27  F   UNL     1     -13.857  16.329  73.365  0.00  0.00    -0.170 F 
ATOM     28  F   UNL     1     -12.496  14.972  74.589  0.00  0.00    -0.170 F 
ENDBRANCH  24  25
ENDBRANCH  23  24
ENDBRANCH  22  23
ENDBRANCH  16  22
ENDBRANCH   1  13
BRANCH   6  29
ATOM     29  C   UNL     1     -11.183  15.977  67.679  0.00  0.00    +0.181 C 
BRANCH  29  30
ATOM     30  O   UNL     1     -10.576  17.113  67.723  0.00  0.00    -0.311 OA
BRANCH  30  31
ATOM     31  P   UNL     1     -10.053  18.015  66.502  0.00  0.00    +0.221 P 
ATOM     32  O   UNL     1     -10.152  19.637  67.014  0.00  0.00    -0.437 OA
ATOM     33  O   UNL     1     -10.859  17.728  65.269  0.00  0.00    -0.517 OA
BRANCH  31  34
ATOM     34  O   UNL     1      -8.479  17.852  65.941  0.00  0.00    -0.247 OA
BRANCH  34  35
ATOM     35  P   UNL     1      -7.461  17.902  67.282  0.00  0.00    +0.407 P 
ATOM     36  O   UNL     1      -8.211  18.602  68.643  0.00  0.00    -0.137 OA
ATOM     37  O   UNL     1      -7.292  16.441  67.684  0.00  0.00    -0.252 OA
BRANCH  35  38
ATOM     38  C   UNL     1      -5.936  18.770  67.095  0.00  0.00    +0.272 C 
ATOM     39 CL   UNL     1      -4.992  18.954  68.607  0.00  0.00    -0.080 Cl
ATOM     40 CL   UNL     1      -4.852  17.748  66.093  0.00  0.00    -0.080 Cl
BRANCH  38  41
ATOM     41  P   UNL     1      -6.001  20.364  66.283  0.00  0.00    +0.156 P 
ATOM     42  O   UNL     1      -6.703  21.550  67.238  0.00  0.00    -0.355 OA
ATOM     43  O   UNL     1      -4.373  20.779  65.984  0.00  0.00    -0.355 OA
ATOM     44  O   UNL     1      -6.646  20.248  64.921  0.00  0.00    -0.457 OA
ENDBRANCH  38  41
ENDBRANCH  35  38
ENDBRANCH  34  35
ENDBRANCH  31  34
ENDBRANCH  30  31
ENDBRANCH  29  30
ENDBRANCH   6  29
TORSDOF 15
ENDMDL
