MODEL 1
REMARK VINA RESULT:      -5.6      0.000      0.000
REMARK  Name = 
REMARK  6 active torsions:
REMARK  status: ('A' for Active; 'I' for Inactive)
REMARK    1  A    between atoms: C_2  and  N_3
REMARK    2  A    between atoms: N_3  and  C_4
REMARK    3  A    between atoms: C_4  and  C_5
REMARK    4  A    between atoms: C_11  and  C_13
REMARK    5  A    between atoms: C_13  and  C_14
REMARK    6  A    between atoms: C_13  and  C_16
REMARK                            x       y       z     vdW  Elec       q    Type
REMARK                         _______ _______ _______ _____ _____    ______ ____
ROOT
ATOM      1  N   UNL     1     -10.875  15.176  68.930  0.00  0.00    -0.275 N 
ATOM      2  C   UNL     1     -10.652  13.796  68.636  0.00  0.00    +0.232 C 
ATOM      3  O   UNL     1      -9.529  13.372  68.419  0.00  0.00    -0.274 OA
ENDROOT
BRANCH   1   5
ATOM      4  C   UNL     1     -11.647  15.947  71.089  0.00  0.00    +0.023 C 
ATOM      5  C   UNL     1     -12.071  15.527  69.689  0.00  0.00    +0.094 C 
ENDBRANCH   1   5
BRANCH   2   6
ATOM      6  C   UNL     1     -11.942  13.078  68.006  0.00  0.00    +0.132 C 
BRANCH   6   7
ATOM      7  C   UNL     1     -11.364  13.064  66.501  0.00  0.00    -0.011 A 
ATOM      8  C   UNL     1     -11.272  11.860  65.871  0.00  0.00    -0.004 A 
ATOM      9  C   UNL     1     -11.045  11.875  64.502  0.00  0.00    -0.000 A 
ATOM     10  C   UNL     1     -11.734  12.811  63.776  0.00  0.00    -0.000 A 
ATOM     11  C   UNL     1     -12.302  13.887  64.436  0.00  0.00    -0.000 A 
ATOM     12  C   UNL     1     -12.081  14.030  65.798  0.00  0.00    -0.004 A 
ENDBRANCH   6   7
BRANCH   6  13
ATOM     13  C   UNL     1     -11.461  11.553  68.343  0.00  0.00    +0.195 C 
ATOM     14  O   UNL     1     -12.368  10.878  69.049  0.00  0.00    -0.220 OA
ENDBRANCH   6  13
ENDBRANCH   2   6
BRANCH   1  15
ATOM     15  C   UNL     1      -9.718  16.016  69.148  0.00  0.00    +0.120 C 
BRANCH  15  16
ATOM     16  C   UNL     1      -9.579  16.968  68.004  0.00  0.00    +0.001 A 
ATOM     17  C   UNL     1      -9.993  18.270  68.233  0.00  0.00    +0.018 A 
ATOM     18  C   UNL     1     -10.455  19.006  67.157  0.00  0.00    +0.099 A 
ATOM     19  N   UNL     1     -10.482  18.497  65.909  0.00  0.00    -0.242 NA
ATOM     20  C   UNL     1     -10.223  17.179  65.742  0.00  0.00    +0.099 A 
ATOM     21  C   UNL     1      -9.429  16.550  66.696  0.00  0.00    +0.018 A 
ENDBRANCH  15  16
ENDBRANCH   1  15
TORSDOF 6
ENDMDL
MODEL 2
REMARK VINA RESULT:      -5.5      2.409      6.666
REMARK  Name = 
REMARK  6 active torsions:
REMARK  status: ('A' for Active; 'I' for Inactive)
REMARK    1  A    between atoms: C_2  and  N_3
REMARK    2  A    between atoms: N_3  and  C_4
REMARK    3  A    between atoms: C_4  and  C_5
REMARK    4  A    between atoms: C_11  and  C_13
REMARK    5  A    between atoms: C_13  and  C_14
REMARK    6  A    between atoms: C_13  and  C_16
REMARK                            x       y       z     vdW  Elec       q    Type
REMARK                         _______ _______ _______ _____ _____    ______ ____
ROOT
ATOM      1  N   UNL     1     -11.143  13.224  68.165  0.00  0.00    -0.275 N 
ATOM      2  C   UNL     1     -10.641  14.452  68.693  0.00  0.00    +0.232 C 
ATOM      3  O   UNL     1      -9.604  14.484  69.335  0.00  0.00    -0.274 OA
ENDROOT
BRANCH   1   5
ATOM      4  C   UNL     1     -11.164  13.301  65.747  0.00  0.00    +0.023 C 
ATOM      5  C   UNL     1     -12.024  13.292  67.003  0.00  0.00    +0.094 C 
ENDBRANCH   1   5
BRANCH   2   6
ATOM      6  C   UNL     1     -11.793  15.545  68.930  0.00  0.00    +0.132 C 
BRANCH   6   7
ATOM      7  C   UNL     1     -11.945  15.237  70.506  0.00  0.00    -0.011 A 
ATOM      8  C   UNL     1     -11.687  16.252  71.376  0.00  0.00    -0.004 A 
ATOM      9  C   UNL     1     -12.084  16.076  72.694  0.00  0.00    -0.000 A 
ATOM     10  C   UNL     1     -13.308  15.494  72.893  0.00  0.00    -0.000 A 
ATOM     11  C   UNL     1     -13.900  14.802  71.852  0.00  0.00    -0.000 A 
ATOM     12  C   UNL     1     -13.195  14.641  70.668  0.00  0.00    -0.004 A 
ENDBRANCH   6   7
BRANCH   6  13
ATOM     13  C   UNL     1     -10.778  16.809  69.144  0.00  0.00    +0.195 C 
ATOM     14  O   UNL     1     -10.919  17.740  68.201  0.00  0.00    -0.220 OA
ENDBRANCH   6  13
ENDBRANCH   2   6
BRANCH   1  15
ATOM     15  C   UNL     1     -10.296  12.055  68.249  0.00  0.00    +0.120 C 
BRANCH  15  16
ATOM     16  C   UNL     1     -11.062  10.939  68.882  0.00  0.00    +0.001 A 
ATOM     17  C   UNL     1     -11.865  11.277  69.960  0.00  0.00    +0.018 A 
ATOM     18  C   UNL     1     -12.102  10.313  70.924  0.00  0.00    +0.099 A 
ATOM     19  N   UNL     1     -11.598   9.067  70.820  0.00  0.00    -0.242 NA
ATOM     20  C   UNL     1     -10.694   8.814  69.845  0.00  0.00    +0.099 A 
ATOM     21  C   UNL     1     -10.733   9.609  68.705  0.00  0.00    +0.018 A 
ENDBRANCH  15  16
ENDBRANCH   1  15
TORSDOF 6
ENDMDL
MODEL 3
REMARK VINA RESULT:      -5.5      2.389      5.682
REMARK  Name = 
REMARK  6 active torsions:
REMARK  status: ('A' for Active; 'I' for Inactive)
REMARK    1  A    between atoms: C_2  and  N_3
REMARK    2  A    between atoms: N_3  and  C_4
REMARK    3  A    between atoms: C_4  and  C_5
REMARK    4  A    between atoms: C_11  and  C_13
REMARK    5  A    between atoms: C_13  and  C_14
REMARK    6  A    between atoms: C_13  and  C_16
REMARK                            x       y       z     vdW  Elec       q    Type
REMARK                         _______ _______ _______ _____ _____    ______ ____
ROOT
ATOM      1  N   UNL     1     -11.435  14.824  68.625  0.00  0.00    -0.275 N 
ATOM      2  C   UNL     1     -10.255  15.532  68.240  0.00  0.00    +0.232 C 
ATOM      3  O   UNL     1      -9.391  15.808  69.056  0.00  0.00    -0.274 OA
ENDROOT
BRANCH   1   5
ATOM      4  C   UNL     1     -11.668  12.619  67.659  0.00  0.00    +0.023 C 
ATOM      5  C   UNL     1     -12.140  14.065  67.597  0.00  0.00    +0.094 C 
ENDBRANCH   1   5
BRANCH   2   6
ATOM      6  C   UNL     1     -10.472  16.434  66.929  0.00  0.00    +0.132 C 
BRANCH   6   7
ATOM      7  C   UNL     1      -9.565  17.658  67.460  0.00  0.00    -0.011 A 
ATOM      8  C   UNL     1      -8.444  17.967  66.751  0.00  0.00    -0.004 A 
ATOM      9  C   UNL     1      -7.824  19.175  67.036  0.00  0.00    -0.000 A 
ATOM     10  C   UNL     1      -8.646  20.252  67.240  0.00  0.00    -0.000 A 
ATOM     11  C   UNL     1      -9.985  20.033  67.515  0.00  0.00    -0.000 A 
ATOM     12  C   UNL     1     -10.433  18.728  67.663  0.00  0.00    -0.004 A 
ENDBRANCH   6   7
BRANCH   6  13
ATOM     13  C   UNL     1      -9.268  15.750  66.060  0.00  0.00    +0.195 C 
ATOM     14  O   UNL     1      -9.703  14.759  65.282  0.00  0.00    -0.220 OA
ENDBRANCH   6  13
ENDBRANCH   2   6
BRANCH   1  15
ATOM     15  C   UNL     1     -11.489  14.280  69.964  0.00  0.00    +0.120 C 
BRANCH  15  16
ATOM     16  C   UNL     1     -12.294  15.192  70.832  0.00  0.00    +0.001 A 
ATOM     17  C   UNL     1     -11.616  15.808  71.872  0.00  0.00    +0.018 A 
ATOM     18  C   UNL     1     -12.330  16.143  73.008  0.00  0.00    +0.099 A 
ATOM     19  N   UNL     1     -13.655  15.911  73.108  0.00  0.00    -0.242 NA
ATOM     20  C   UNL     1     -14.255  15.169  72.148  0.00  0.00    +0.099 A 
ATOM     21  C   UNL     1     -13.674  15.154  70.884  0.00  0.00    +0.018 A 
ENDBRANCH  15  16
ENDBRANCH   1  15
TORSDOF 6
ENDMDL
MODEL 4
REMARK VINA RESULT:      -5.4      2.489      6.347
REMARK  Name = 
REMARK  6 active torsions:
REMARK  status: ('A' for Active; 'I' for Inactive)
REMARK    1  A    between atoms: C_2  and  N_3
REMARK    2  A    between atoms: N_3  and  C_4
REMARK    3  A    between atoms: C_4  and  C_5
REMARK    4  A    between atoms: C_11  and  C_13
REMARK    5  A    between atoms: C_13  and  C_14
REMARK    6  A    between atoms: C_13  and  C_16
REMARK                            x       y       z     vdW  Elec       q    Type
REMARK                         _______ _______ _______ _____ _____    ______ ____
ROOT
ATOM      1  N   UNL     1     -11.149  12.476  65.734  0.00  0.00    -0.275 N 
ATOM      2  C   UNL     1     -10.492  13.741  65.816  0.00  0.00    +0.232 C 
ATOM      3  O   UNL     1      -9.318  13.821  66.139  0.00  0.00    -0.274 OA
ENDROOT
BRANCH   1   5
ATOM      4  C   UNL     1     -11.838  11.957  63.474  0.00  0.00    +0.023 C 
ATOM      5  C   UNL     1     -12.313  12.369  64.860  0.00  0.00    +0.094 C 
ENDBRANCH   1   5
BRANCH   2   6
ATOM      6  C   UNL     1     -11.508  14.954  66.089  0.00  0.00    +0.132 C 
BRANCH   6   7
ATOM      7  C   UNL     1     -10.945  15.267  67.568  0.00  0.00    -0.011 A 
ATOM      8  C   UNL     1     -10.686  16.567  67.882  0.00  0.00    -0.004 A 
ATOM      9  C   UNL     1     -10.475  16.867  69.221  0.00  0.00    -0.000 A 
ATOM     10  C   UNL     1     -11.296  16.247  70.125  0.00  0.00    -0.000 A 
ATOM     11  C   UNL     1     -12.008  15.128  69.729  0.00  0.00    -0.000 A 
ATOM     12  C   UNL     1     -11.799  14.617  68.456  0.00  0.00    -0.004 A 
ENDBRANCH   6   7
BRANCH   6  13
ATOM     13  C   UNL     1     -10.597  16.098  65.360  0.00  0.00    +0.195 C 
ATOM     14  O   UNL     1     -11.232  16.683  64.345  0.00  0.00    -0.220 OA
ENDBRANCH   6  13
ENDBRANCH   2   6
BRANCH   1  15
ATOM     15  C   UNL     1     -10.340  11.284  65.860  0.00  0.00    +0.120 C 
BRANCH  15  16
ATOM     16  C   UNL     1     -10.869  10.447  66.979  0.00  0.00    +0.001 A 
ATOM     17  C   UNL     1     -11.360  11.131  68.080  0.00  0.00    +0.018 A 
ATOM     18  C   UNL     1     -11.296  10.512  69.315  0.00  0.00    +0.099 A 
ATOM     19  N   UNL     1     -10.799   9.266  69.459  0.00  0.00    -0.242 NA
ATOM     20  C   UNL     1     -10.184   8.689  68.400  0.00  0.00    +0.099 A 
ATOM     21  C   UNL     1     -10.558   9.110  67.127  0.00  0.00    +0.018 A 
ENDBRANCH  15  16
ENDBRANCH   1  15
TORSDOF 6
ENDMDL
MODEL 5
REMARK VINA RESULT:      -5.4      2.190      5.842
REMARK  Name = 
REMARK  6 active torsions:
REMARK  status: ('A' for Active; 'I' for Inactive)
REMARK    1  A    between atoms: C_2  and  N_3
REMARK    2  A    between atoms: N_3  and  C_4
REMARK    3  A    between atoms: C_4  and  C_5
REMARK    4  A    between atoms: C_11  and  C_13
REMARK    5  A    between atoms: C_13  and  C_14
REMARK    6  A    between atoms: C_13  and  C_16
REMARK                            x       y       z     vdW  Elec       q    Type
REMARK                         _______ _______ _______ _____ _____    ______ ____
ROOT
ATOM      1  N   UNL     1     -10.430  14.582  66.978  0.00  0.00    -0.275 N 
ATOM      2  C   UNL     1     -10.535  14.816  68.383  0.00  0.00    +0.232 C 
ATOM      3  O   UNL     1     -10.250  13.945  69.189  0.00  0.00    -0.274 OA
ENDROOT
BRANCH   1   5
ATOM      4  C   UNL     1      -8.767  16.092  66.079  0.00  0.00    +0.023 C 
ATOM      5  C   UNL     1     -10.247  15.738  66.106  0.00  0.00    +0.094 C 
ENDBRANCH   1   5
BRANCH   2   6
ATOM      6  C   UNL     1     -11.600  15.960  68.745  0.00  0.00    +0.132 C 
BRANCH   6   7
ATOM      7  C   UNL     1     -11.871  15.420  70.240  0.00  0.00    -0.011 A 
ATOM      8  C   UNL     1     -11.544  16.241  71.277  0.00  0.00    -0.004 A 
ATOM      9  C   UNL     1     -12.027  15.902  72.533  0.00  0.00    -0.000 A 
ATOM     10  C   UNL     1     -13.320  15.451  72.591  0.00  0.00    -0.000 A 
ATOM     11  C   UNL     1     -13.931  15.015  71.428  0.00  0.00    -0.000 A 
ATOM     12  C   UNL     1     -13.188  14.964  70.258  0.00  0.00    -0.004 A 
ENDBRANCH   6   7
BRANCH   6  13
ATOM     13  C   UNL     1     -10.495  17.072  69.208  0.00  0.00    +0.195 C 
ATOM     14  O   UNL     1     -10.566  18.190  68.487  0.00  0.00    -0.220 OA
ENDBRANCH   6  13
ENDBRANCH   2   6
BRANCH   1  15
ATOM     15  C   UNL     1      -9.800  13.355  66.541  0.00  0.00    +0.120 C 
BRANCH  15  16
ATOM     16  C   UNL     1     -10.734  12.619  65.636  0.00  0.00    +0.001 A 
ATOM     17  C   UNL     1     -10.249  12.302  64.377  0.00  0.00    +0.018 A 
ATOM     18  C   UNL     1     -11.155  12.193  63.338  0.00  0.00    +0.099 A 
ATOM     19  N   UNL     1     -12.479  12.359  63.530  0.00  0.00    -0.242 NA
ATOM     20  C   UNL     1     -12.905  12.820  64.729  0.00  0.00    +0.099 A 
ATOM     21  C   UNL     1     -12.100  12.581  65.838  0.00  0.00    +0.018 A 
ENDBRANCH  15  16
ENDBRANCH   1  15
TORSDOF 6
ENDMDL
MODEL 6
REMARK VINA RESULT:      -5.4      2.109      5.473
REMARK  Name = 
REMARK  6 active torsions:
REMARK  status: ('A' for Active; 'I' for Inactive)
REMARK    1  A    between atoms: C_2  and  N_3
REMARK    2  A    between atoms: N_3  and  C_4
REMARK    3  A    between atoms: C_4  and  C_5
REMARK    4  A    between atoms: C_11  and  C_13
REMARK    5  A    between atoms: C_13  and  C_14
REMARK    6  A    between atoms: C_13  and  C_16
REMARK                            x       y       z     vdW  Elec       q    Type
REMARK                         _______ _______ _______ _____ _____    ______ ____
ROOT
ATOM      1  N   UNL     1      -9.998  13.642  67.223  0.00  0.00    -0.275 N 
ATOM      2  C   UNL     1      -9.918  14.787  68.073  0.00  0.00    +0.232 C 
ATOM      3  O   UNL     1     -10.879  15.152  68.729  0.00  0.00    -0.274 OA
ENDROOT
BRANCH   1   5
ATOM      4  C   UNL     1      -8.709  11.654  67.714  0.00  0.00    +0.023 C 
ATOM      5  C   UNL     1      -8.758  12.942  66.904  0.00  0.00    +0.094 C 
ENDBRANCH   1   5
BRANCH   2   6
ATOM      6  C   UNL     1      -8.793  15.832  67.603  0.00  0.00    +0.132 C 
BRANCH   6   7
ATOM      7  C   UNL     1      -9.756  17.121  67.715  0.00  0.00    -0.011 A 
ATOM      8  C   UNL     1      -9.305  18.186  68.433  0.00  0.00    -0.004 A 
ATOM      9  C   UNL     1      -9.996  19.383  68.299  0.00  0.00    -0.000 A 
ATOM     10  C   UNL     1     -10.398  19.719  67.033  0.00  0.00    -0.000 A 
ATOM     11  C   UNL     1     -10.435  18.738  66.058  0.00  0.00    -0.000 A 
ATOM     12  C   UNL     1     -10.150  17.428  66.413  0.00  0.00    -0.004 A 
ENDBRANCH   6   7
BRANCH   6  13
ATOM     13  C   UNL     1      -8.133  16.037  69.084  0.00  0.00    +0.195 C 
ATOM     14  O   UNL     1      -7.489  14.951  69.508  0.00  0.00    -0.220 OA
ENDBRANCH   6  13
ENDBRANCH   2   6
BRANCH   1  15
ATOM     15  C   UNL     1     -11.185  12.819  67.307  0.00  0.00    +0.120 C 
BRANCH  15  16
ATOM     16  C   UNL     1     -11.995  12.998  66.064  0.00  0.00    +0.001 A 
ATOM     17  C   UNL     1     -11.845  12.028  65.087  0.00  0.00    +0.018 A 
ATOM     18  C   UNL     1     -12.046  12.394  63.768  0.00  0.00    +0.099 A 
ATOM     19  N   UNL     1     -12.406  13.648  63.427  0.00  0.00    -0.242 NA
ATOM     20  C   UNL     1     -12.390  14.607  64.382  0.00  0.00    +0.099 A 
ATOM     21  C   UNL     1     -12.557  14.207  65.703  0.00  0.00    +0.018 A 
ENDBRANCH  15  16
ENDBRANCH   1  15
TORSDOF 6
ENDMDL
MODEL 7
REMARK VINA RESULT:      -5.4      2.109      4.615
REMARK  Name = 
REMARK  6 active torsions:
REMARK  status: ('A' for Active; 'I' for Inactive)
REMARK    1  A    between atoms: C_2  and  N_3
REMARK    2  A    between atoms: N_3  and  C_4
REMARK    3  A    between atoms: C_4  and  C_5
REMARK    4  A    between atoms: C_11  and  C_13
REMARK    5  A    between atoms: C_13  and  C_14
REMARK    6  A    between atoms: C_13  and  C_16
REMARK                            x       y       z     vdW  Elec       q    Type
REMARK                         _______ _______ _______ _____ _____    ______ ____
ROOT
ATOM      1  N   UNL     1     -11.070  15.359  68.683  0.00  0.00    -0.275 N 
ATOM      2  C   UNL     1     -11.160  14.941  67.321  0.00  0.00    +0.232 C 
ATOM      3  O   UNL     1     -12.238  14.680  66.812  0.00  0.00    -0.274 OA
ENDROOT
BRANCH   1   5
ATOM      4  C   UNL     1     -10.182  17.609  68.726  0.00  0.00    +0.023 C 
ATOM      5  C   UNL     1      -9.910  16.153  69.076  0.00  0.00    +0.094 C 
ENDBRANCH   1   5
BRANCH   2   6
ATOM      6  C   UNL     1      -9.809  14.254  66.790  0.00  0.00    +0.132 C 
BRANCH   6   7
ATOM      7  C   UNL     1     -10.566  13.135  65.910  0.00  0.00    -0.011 A 
ATOM      8  C   UNL     1     -10.464  13.220  64.555  0.00  0.00    -0.004 A 
ATOM      9  C   UNL     1     -10.871  12.118  63.816  0.00  0.00    -0.000 A 
ATOM     10  C   UNL     1     -10.518  10.888  64.306  0.00  0.00    -0.000 A 
ATOM     11  C   UNL     1     -10.127  10.779  65.629  0.00  0.00    -0.000 A 
ATOM     12  C   UNL     1     -10.191  11.902  66.441  0.00  0.00    -0.004 A 
ENDBRANCH   6   7
BRANCH   6  13
ATOM     13  C   UNL     1      -9.589  15.277  65.534  0.00  0.00    +0.195 C 
ATOM     14  O   UNL     1      -8.725  16.251  65.816  0.00  0.00    -0.220 OA
ENDBRANCH   6  13
ENDBRANCH   2   6
BRANCH   1  15
ATOM     15  C   UNL     1     -12.301  15.647  69.385  0.00  0.00    +0.120 C 
BRANCH  15  16
ATOM     16  C   UNL     1     -12.200  15.133  70.785  0.00  0.00    +0.001 A 
ATOM     17  C   UNL     1     -12.680  13.852  71.005  0.00  0.00    +0.018 A 
ATOM     18  C   UNL     1     -13.170  13.546  72.263  0.00  0.00    +0.099 A 
ATOM     19  N   UNL     1     -13.162  14.448  73.265  0.00  0.00    -0.242 NA
ATOM     20  C   UNL     1     -12.836  15.730  72.979  0.00  0.00    +0.099 A 
ATOM     21  C   UNL     1     -12.020  15.960  71.876  0.00  0.00    +0.018 A 
ENDBRANCH  15  16
ENDBRANCH   1  15
TORSDOF 6
ENDMDL
MODEL 8
REMARK VINA RESULT:      -5.2      2.287      4.401
REMARK  Name = 
REMARK  6 active torsions:
REMARK  status: ('A' for Active; 'I' for Inactive)
REMARK    1  A    between atoms: C_2  and  N_3
REMARK    2  A    between atoms: N_3  and  C_4
REMARK    3  A    between atoms: C_4  and  C_5
REMARK    4  A    between atoms: C_11  and  C_13
REMARK    5  A    between atoms: C_13  and  C_14
REMARK    6  A    between atoms: C_13  and  C_16
REMARK                            x       y       z     vdW  Elec       q    Type
REMARK                         _______ _______ _______ _____ _____    ______ ____
ROOT
ATOM      1  N   UNL     1      -9.957  15.322  67.714  0.00  0.00    -0.275 N 
ATOM      2  C   UNL     1     -11.040  14.469  68.087  0.00  0.00    +0.232 C 
ATOM      3  O   UNL     1     -12.146  14.601  67.588  0.00  0.00    -0.274 OA
ENDROOT
BRANCH   1   5
ATOM      4  C   UNL     1      -8.428  13.578  67.027  0.00  0.00    +0.023 C 
ATOM      5  C   UNL     1      -8.599  14.817  67.894  0.00  0.00    +0.094 C 
ENDBRANCH   1   5
BRANCH   2   6
ATOM      6  C   UNL     1     -10.866  13.850  69.558  0.00  0.00    +0.132 C 
BRANCH   6   7
ATOM      7  C   UNL     1     -12.045  14.734  70.214  0.00  0.00    -0.011 A 
ATOM      8  C   UNL     1     -13.079  14.071  70.803  0.00  0.00    -0.004 A 
ATOM      9  C   UNL     1     -13.938  14.813  71.601  0.00  0.00    -0.000 A 
ATOM     10  C   UNL     1     -13.359  15.746  72.421  0.00  0.00    -0.000 A 
ATOM     11  C   UNL     1     -12.062  16.154  72.164  0.00  0.00    -0.000 A 
ATOM     12  C   UNL     1     -11.421  15.673  71.032  0.00  0.00    -0.004 A 
ENDBRANCH   6   7
BRANCH   6  13
ATOM     13  C   UNL     1     -11.814  12.544  69.299  0.00  0.00    +0.195 C 
ATOM     14  O   UNL     1     -11.169  11.398  69.511  0.00  0.00    -0.220 OA
ENDBRANCH   6  13
ENDBRANCH   2   6
BRANCH   1  15
ATOM     15  C   UNL     1     -10.155  16.218  66.596  0.00  0.00    +0.120 C 
BRANCH  15  16
ATOM     16  C   UNL     1     -10.405  17.598  67.112  0.00  0.00    +0.001 A 
ATOM     17  C   UNL     1     -10.493  18.603  66.162  0.00  0.00    +0.018 A 
ATOM     18  C   UNL     1     -10.126  19.884  66.532  0.00  0.00    +0.099 A 
ATOM     19  N   UNL     1      -9.717  20.172  67.784  0.00  0.00    -0.242 NA
ATOM     20  C   UNL     1      -9.491  19.148  68.641  0.00  0.00    +0.099 A 
ATOM     21  C   UNL     1     -10.181  17.960  68.426  0.00  0.00    +0.018 A 
ENDBRANCH  15  16
ENDBRANCH   1  15
TORSDOF 6
ENDMDL
MODEL 9
REMARK VINA RESULT:      -5.2      2.381      5.161
REMARK  Name = 
REMARK  6 active torsions:
REMARK  status: ('A' for Active; 'I' for Inactive)
REMARK    1  A    between atoms: C_2  and  N_3
REMARK    2  A    between atoms: N_3  and  C_4
REMARK    3  A    between atoms: C_4  and  C_5
REMARK    4  A    between atoms: C_11  and  C_13
REMARK    5  A    between atoms: C_13  and  C_14
REMARK    6  A    between atoms: C_13  and  C_16
REMARK                            x       y       z     vdW  Elec       q    Type
REMARK                         _______ _______ _______ _____ _____    ______ ____
ROOT
ATOM      1  N   UNL     1     -10.738  13.832  68.456  0.00  0.00    -0.275 N 
ATOM      2  C   UNL     1     -11.247  14.242  67.186  0.00  0.00    +0.232 C 
ATOM      3  O   UNL     1     -12.429  14.118  66.912  0.00  0.00    -0.274 OA
ENDROOT
BRANCH   1   5
ATOM      4  C   UNL     1      -9.809  15.935  69.207  0.00  0.00    +0.023 C 
ATOM      5  C   UNL     1      -9.515  14.467  68.937  0.00  0.00    +0.094 C 
ENDBRANCH   1   5
BRANCH   2   6
ATOM      6  C   UNL     1     -10.127  14.237  66.036  0.00  0.00    +0.132 C 
BRANCH   6   7
ATOM      7  C   UNL     1     -10.612  12.842  65.386  0.00  0.00    -0.011 A 
ATOM      8  C   UNL     1     -11.001  12.855  64.082  0.00  0.00    -0.004 A 
ATOM      9  C   UNL     1     -11.147  11.628  63.449  0.00  0.00    -0.000 A 
ATOM     10  C   UNL     1     -10.191  10.684  63.717  0.00  0.00    -0.000 A 
ATOM     11  C   UNL     1      -9.381  10.844  64.827  0.00  0.00    -0.000 A 
ATOM     12  C   UNL     1      -9.622  11.908  65.684  0.00  0.00    -0.004 A 
ENDBRANCH   6   7
BRANCH   6  13
ATOM     13  C   UNL     1     -10.967  15.166  64.986  0.00  0.00    +0.195 C 
ATOM     14  O   UNL     1     -10.567  16.437  64.999  0.00  0.00    -0.220 OA
ENDBRANCH   6  13
ENDBRANCH   2   6
BRANCH   1  15
ATOM     15  C   UNL     1     -11.691  13.442  69.472  0.00  0.00    +0.120 C 
BRANCH  15  16
ATOM     16  C   UNL     1     -11.735  11.951  69.558  0.00  0.00    +0.001 A 
ATOM     17  C   UNL     1     -12.437  11.417  70.626  0.00  0.00    +0.018 A 
ATOM     18  C   UNL     1     -12.047  10.181  71.110  0.00  0.00    +0.099 A 
ATOM     19  N   UNL     1     -11.034   9.488  70.553  0.00  0.00    -0.242 NA
ATOM     20  C   UNL     1     -10.269  10.101  69.619  0.00  0.00    +0.099 A 
ATOM     21  C   UNL     1     -10.845  11.135  68.888  0.00  0.00    +0.018 A 
ENDBRANCH  15  16
ENDBRANCH   1  15
TORSDOF 6
ENDMDL
