MODEL 1
REMARK VINA RESULT:      -7.3      0.000      0.000
REMARK  Name = 
REMARK  2 active torsions:
REMARK  status: ('A' for Active; 'I' for Inactive)
REMARK    1  A    between atoms: C_10  and  C_11
REMARK    2  A    between atoms: C_11  and  C_12
REMARK                            x       y       z     vdW  Elec       q    Type
REMARK                         _______ _______ _______ _____ _____    ______ ____
ROOT
ATOM      1  C   UNL     1     -10.886  14.192  68.960  0.00  0.00    +0.061 C 
ENDROOT
BRANCH   1   4
ATOM      2  O   UNL     1     -12.539  15.923  70.468  0.00  0.00    -0.286 OA
ATOM      3  C   UNL     1     -12.597  14.547  70.687  0.00  0.00    +0.203 A 
ATOM      4  C   UNL     1     -12.034  13.683  69.755  0.00  0.00    +0.033 A 
ATOM      5  C   UNL     1     -11.944  12.357  70.162  0.00  0.00    +0.068 A 
ATOM      6 CL   UNL     1     -10.798  11.242  69.451  0.00  0.00    -0.082 Cl
ATOM      7  C   UNL     1     -12.748  11.866  71.173  0.00  0.00    +0.069 A 
ATOM      8 CL   UNL     1     -13.233  10.177  71.197  0.00  0.00    -0.081 Cl
ATOM      9  C   UNL     1     -13.331  12.763  72.055  0.00  0.00    +0.027 A 
ATOM     10  C   UNL     1     -13.162  14.120  71.860  0.00  0.00    +0.097 A 
ATOM     11 CL   UNL     1     -13.399  15.149  73.261  0.00  0.00    -0.079 Cl
ENDBRANCH   1   4
BRANCH   1  12
ATOM     12  C   UNL     1     -11.298  14.869  67.715  0.00  0.00    +0.033 A 
ATOM     13  C   UNL     1     -11.423  14.084  66.576  0.00  0.00    +0.068 A 
ATOM     14 CL   UNL     1     -11.854  12.384  66.714  0.00  0.00    -0.082 Cl
ATOM     15  C   UNL     1     -11.343  14.640  65.306  0.00  0.00    +0.069 A 
ATOM     16 CL   UNL     1     -12.256  13.933  63.977  0.00  0.00    -0.081 Cl
ATOM     17  C   UNL     1     -10.647  15.833  65.148  0.00  0.00    +0.027 A 
ATOM     18  C   UNL     1     -10.478  16.638  66.267  0.00  0.00    +0.097 A 
ATOM     19 CL   UNL     1     -10.159  18.360  66.078  0.00  0.00    -0.079 Cl
ATOM     20  C   UNL     1     -10.806  16.155  67.527  0.00  0.00    +0.203 A 
ATOM     21  O   UNL     1     -11.064  17.043  68.577  0.00  0.00    -0.286 OA
ENDBRANCH   1  12
TORSDOF 2
ENDMDL
MODEL 2
REMARK VINA RESULT:      -7.1      2.120      6.608
REMARK  Name = 
REMARK  2 active torsions:
REMARK  status: ('A' for Active; 'I' for Inactive)
REMARK    1  A    between atoms: C_10  and  C_11
REMARK    2  A    between atoms: C_11  and  C_12
REMARK                            x       y       z     vdW  Elec       q    Type
REMARK                         _______ _______ _______ _____ _____    ______ ____
ROOT
ATOM      1  C   UNL     1     -10.864  13.353  68.825  0.00  0.00    +0.061 C 
ENDROOT
BRANCH   1   4
ATOM      2  O   UNL     1     -12.168  12.259  66.566  0.00  0.00    -0.286 OA
ATOM      3  C   UNL     1     -11.492  13.473  66.453  0.00  0.00    +0.203 A 
ATOM      4  C   UNL     1     -11.124  14.160  67.605  0.00  0.00    +0.033 A 
ATOM      5  C   UNL     1     -10.268  15.236  67.400  0.00  0.00    +0.068 A 
ATOM      6 CL   UNL     1      -9.242  15.863  68.670  0.00  0.00    -0.082 Cl
ATOM      7  C   UNL     1     -10.173  15.845  66.163  0.00  0.00    +0.069 A 
ATOM      8 CL   UNL     1      -9.773  17.551  66.028  0.00  0.00    -0.081 Cl
ATOM      9  C   UNL     1     -10.595  15.145  65.042  0.00  0.00    +0.027 A 
ATOM     10  C   UNL     1     -11.167  13.897  65.191  0.00  0.00    +0.097 A 
ATOM     11 CL   UNL     1     -11.138  12.848  63.786  0.00  0.00    -0.079 Cl
ENDBRANCH   1   4
BRANCH   1  12
ATOM     12  C   UNL     1     -12.079  13.105  69.626  0.00  0.00    +0.033 A 
ATOM     13  C   UNL     1     -12.511  14.129  70.459  0.00  0.00    +0.068 A 
ATOM     14 CL   UNL     1     -12.184  15.807  70.044  0.00  0.00    -0.082 Cl
ATOM     15  C   UNL     1     -13.317  13.870  71.559  0.00  0.00    +0.069 A 
ATOM     16 CL   UNL     1     -14.486  15.071  72.096  0.00  0.00    -0.081 Cl
ATOM     17  C   UNL     1     -13.274  12.601  72.128  0.00  0.00    +0.027 A 
ATOM     18  C   UNL     1     -12.825  11.551  71.337  0.00  0.00    +0.097 A 
ATOM     19 CL   UNL     1     -13.272   9.894  71.729  0.00  0.00    -0.079 Cl
ATOM     20  C   UNL     1     -12.242  11.810  70.103  0.00  0.00    +0.203 A 
ATOM     21  O   UNL     1     -12.188  10.811  69.126  0.00  0.00    -0.286 OA
ENDBRANCH   1  12
TORSDOF 2
ENDMDL
MODEL 3
REMARK VINA RESULT:      -6.7      2.899      6.575
REMARK  Name = 
REMARK  2 active torsions:
REMARK  status: ('A' for Active; 'I' for Inactive)
REMARK    1  A    between atoms: C_10  and  C_11
REMARK    2  A    between atoms: C_11  and  C_12
REMARK                            x       y       z     vdW  Elec       q    Type
REMARK                         _______ _______ _______ _____ _____    ______ ____
ROOT
ATOM      1  C   UNL     1     -10.771  13.004  68.648  0.00  0.00    +0.061 C 
ENDROOT
BRANCH   1   4
ATOM      2  O   UNL     1      -8.941  10.880  68.276  0.00  0.00    -0.286 OA
ATOM      3  C   UNL     1      -9.711  11.324  67.203  0.00  0.00    +0.203 A 
ATOM      4  C   UNL     1     -10.814  12.136  67.443  0.00  0.00    +0.033 A 
ATOM      5  C   UNL     1     -11.383  12.706  66.309  0.00  0.00    +0.068 A 
ATOM      6 CL   UNL     1     -12.357  14.156  66.387  0.00  0.00    -0.082 Cl
ATOM      7  C   UNL     1     -11.178  12.157  65.057  0.00  0.00    +0.069 A 
ATOM      8 CL   UNL     1     -12.395  12.310  63.798  0.00  0.00    -0.081 Cl
ATOM      9  C   UNL     1     -10.093  11.314  64.869  0.00  0.00    +0.027 A 
ATOM     10  C   UNL     1      -9.292  10.981  65.944  0.00  0.00    +0.097 A 
ATOM     11 CL   UNL     1      -7.670  10.426  65.571  0.00  0.00    -0.079 Cl
ENDBRANCH   1   4
BRANCH   1  12
ATOM     12  C   UNL     1     -11.989  12.907  69.476  0.00  0.00    +0.033 A 
ATOM     13  C   UNL     1     -12.392  14.052  70.150  0.00  0.00    +0.068 A 
ATOM     14 CL   UNL     1     -12.023  15.642  69.496  0.00  0.00    -0.082 Cl
ATOM     15  C   UNL     1     -13.200  13.977  71.277  0.00  0.00    +0.069 A 
ATOM     16 CL   UNL     1     -14.337  15.274  71.632  0.00  0.00    -0.081 Cl
ATOM     17  C   UNL     1     -13.189  12.804  72.024  0.00  0.00    +0.027 A 
ATOM     18  C   UNL     1     -12.770  11.639  71.394  0.00  0.00    +0.097 A 
ATOM     19 CL   UNL     1     -13.259  10.069  72.023  0.00  0.00    -0.079 Cl
ATOM     20  C   UNL     1     -12.184  11.700  70.136  0.00  0.00    +0.203 A 
ATOM     21  O   UNL     1     -12.160  10.569  69.315  0.00  0.00    -0.286 OA
ENDBRANCH   1  12
TORSDOF 2
ENDMDL
MODEL 4
REMARK VINA RESULT:      -6.5      2.720      5.235
REMARK  Name = 
REMARK  2 active torsions:
REMARK  status: ('A' for Active; 'I' for Inactive)
REMARK    1  A    between atoms: C_10  and  C_11
REMARK    2  A    between atoms: C_11  and  C_12
REMARK                            x       y       z     vdW  Elec       q    Type
REMARK                         _______ _______ _______ _____ _____    ______ ____
ROOT
ATOM      1  C   UNL     1     -10.477  17.171  67.690  0.00  0.00    +0.061 C 
ENDROOT
BRANCH   1   4
ATOM      2  O   UNL     1     -10.418  16.216  65.029  0.00  0.00    -0.286 OA
ATOM      3  C   UNL     1     -10.863  15.381  66.053  0.00  0.00    +0.203 A 
ATOM      4  C   UNL     1     -10.605  15.725  67.375  0.00  0.00    +0.033 A 
ATOM      5  C   UNL     1     -11.273  14.957  68.323  0.00  0.00    +0.068 A 
ATOM      6 CL   UNL     1     -11.566  15.536  69.947  0.00  0.00    -0.082 Cl
ATOM      7  C   UNL     1     -11.759  13.702  68.009  0.00  0.00    +0.069 A 
ATOM      8 CL   UNL     1     -11.882  12.452  69.238  0.00  0.00    -0.081 Cl
ATOM      9  C   UNL     1     -11.959  13.380  66.675  0.00  0.00    +0.027 A 
ATOM     10  C   UNL     1     -11.598  14.282  65.693  0.00  0.00    +0.097 A 
ATOM     11 CL   UNL     1     -12.377  14.096  64.132  0.00  0.00    -0.079 Cl
ENDBRANCH   1   4
BRANCH   1  12
ATOM     12  C   UNL     1      -9.090  17.665  67.595  0.00  0.00    +0.033 A 
ATOM     13  C   UNL     1      -8.801  18.551  66.565  0.00  0.00    +0.068 A 
ATOM     14 CL   UNL     1     -10.050  19.618  65.937  0.00  0.00    -0.082 Cl
ATOM     15  C   UNL     1      -7.503  18.713  66.098  0.00  0.00    +0.069 A 
ATOM     16 CL   UNL     1      -6.984  20.272  65.466  0.00  0.00    -0.081 Cl
ATOM     17  C   UNL     1      -6.602  17.669  66.272  0.00  0.00    +0.027 A 
ATOM     18  C   UNL     1      -6.865  16.745  67.275  0.00  0.00    +0.097 A 
ATOM     19 CL   UNL     1      -5.559  15.778  67.952  0.00  0.00    -0.079 Cl
ATOM     20  C   UNL     1      -8.093  16.755  67.924  0.00  0.00    +0.203 A 
ATOM     21  O   UNL     1      -8.228  16.165  69.185  0.00  0.00    -0.286 OA
ENDBRANCH   1  12
TORSDOF 2
ENDMDL
MODEL 5
REMARK VINA RESULT:      -6.5      2.924      3.856
REMARK  Name = 
REMARK  2 active torsions:
REMARK  status: ('A' for Active; 'I' for Inactive)
REMARK    1  A    between atoms: C_10  and  C_11
REMARK    2  A    between atoms: C_11  and  C_12
REMARK                            x       y       z     vdW  Elec       q    Type
REMARK                         _______ _______ _______ _____ _____    ______ ____
ROOT
ATOM      1  C   UNL     1     -10.252  12.325  67.929  0.00  0.00    +0.061 C 
ENDROOT
BRANCH   1   4
ATOM      2  O   UNL     1     -11.528  14.837  68.174  0.00  0.00    -0.286 OA
ATOM      3  C   UNL     1     -11.816  13.824  69.087  0.00  0.00    +0.203 A 
ATOM      4  C   UNL     1     -11.443  12.517  68.797  0.00  0.00    +0.033 A 
ATOM      5  C   UNL     1     -11.570  11.620  69.852  0.00  0.00    +0.068 A 
ATOM      6 CL   UNL     1     -10.659  10.129  69.919  0.00  0.00    -0.082 Cl
ATOM      7  C   UNL     1     -12.412  11.887  70.915  0.00  0.00    +0.069 A 
ATOM      8 CL   UNL     1     -13.181  10.580  71.803  0.00  0.00    -0.081 Cl
ATOM      9  C   UNL     1     -12.801  13.198  71.145  0.00  0.00    +0.027 A 
ATOM     10  C   UNL     1     -12.406  14.191  70.269  0.00  0.00    +0.097 A 
ATOM     11 CL   UNL     1     -12.414  15.832  70.888  0.00  0.00    -0.079 Cl
ENDBRANCH   1   4
BRANCH   1  12
ATOM     12  C   UNL     1     -10.501  11.411  66.797  0.00  0.00    +0.033 A 
ATOM     13  C   UNL     1      -9.481  10.533  66.454  0.00  0.00    +0.068 A 
ATOM     14 CL   UNL     1      -8.351   9.965  67.677  0.00  0.00    -0.082 Cl
ATOM     15  C   UNL     1      -9.403   9.981  65.182  0.00  0.00    +0.069 A 
ATOM     16 CL   UNL     1      -8.723   8.373  64.961  0.00  0.00    -0.081 Cl
ATOM     17  C   UNL     1      -9.998  10.664  64.127  0.00  0.00    +0.027 A 
ATOM     18  C   UNL     1     -11.007  11.570  64.427  0.00  0.00    +0.097 A 
ATOM     19 CL   UNL     1     -12.184  12.023  63.199  0.00  0.00    -0.079 Cl
ATOM     20  C   UNL     1     -11.249  11.928  65.747  0.00  0.00    +0.203 A 
ATOM     21  O   UNL     1     -12.487  12.465  66.115  0.00  0.00    -0.286 OA
ENDBRANCH   1  12
TORSDOF 2
ENDMDL
MODEL 6
REMARK VINA RESULT:      -6.3      1.833      5.785
REMARK  Name = 
REMARK  2 active torsions:
REMARK  status: ('A' for Active; 'I' for Inactive)
REMARK    1  A    between atoms: C_10  and  C_11
REMARK    2  A    between atoms: C_11  and  C_12
REMARK                            x       y       z     vdW  Elec       q    Type
REMARK                         _______ _______ _______ _____ _____    ______ ____
ROOT
ATOM      1  C   UNL     1     -11.511  14.095  68.743  0.00  0.00    +0.061 C 
ENDROOT
BRANCH   1   4
ATOM      2  O   UNL     1     -11.336  16.894  68.383  0.00  0.00    -0.286 OA
ATOM      3  C   UNL     1     -10.229  16.092  68.112  0.00  0.00    +0.203 A 
ATOM      4  C   UNL     1     -10.205  14.782  68.575  0.00  0.00    +0.033 A 
ATOM      5  C   UNL     1      -9.172  13.999  68.072  0.00  0.00    +0.068 A 
ATOM      6 CL   UNL     1      -9.261  12.252  68.038  0.00  0.00    -0.082 Cl
ATOM      7  C   UNL     1      -8.030  14.577  67.550  0.00  0.00    +0.069 A 
ATOM      8 CL   UNL     1      -6.483  13.746  67.632  0.00  0.00    -0.081 Cl
ATOM      9  C   UNL     1      -8.080  15.901  67.142  0.00  0.00    +0.027 A 
ATOM     10  C   UNL     1      -9.236  16.632  67.337  0.00  0.00    +0.097 A 
ATOM     11 CL   UNL     1      -9.451  18.045  66.320  0.00  0.00    -0.079 Cl
ENDBRANCH   1   4
BRANCH   1  12
ATOM     12  C   UNL     1     -11.728  13.587  70.112  0.00  0.00    +0.033 A 
ATOM     13  C   UNL     1     -12.293  12.324  70.239  0.00  0.00    +0.068 A 
ATOM     14 CL   UNL     1     -12.039  11.110  68.993  0.00  0.00    -0.082 Cl
ATOM     15  C   UNL     1     -12.954  11.945  71.400  0.00  0.00    +0.069 A 
ATOM     16 CL   UNL     1     -12.937  10.261  71.912  0.00  0.00    -0.081 Cl
ATOM     17  C   UNL     1     -13.498  12.938  72.207  0.00  0.00    +0.027 A 
ATOM     18  C   UNL     1     -12.979  14.222  72.094  0.00  0.00    +0.097 A 
ATOM     19 CL   UNL     1     -13.161  15.369  73.417  0.00  0.00    -0.079 Cl
ATOM     20  C   UNL     1     -12.104  14.530  71.061  0.00  0.00    +0.203 A 
ATOM     21  O   UNL     1     -11.249  15.632  71.166  0.00  0.00    -0.286 OA
ENDBRANCH   1  12
TORSDOF 2
ENDMDL
MODEL 7
REMARK VINA RESULT:      -6.3      2.606      6.718
REMARK  Name = 
REMARK  2 active torsions:
REMARK  status: ('A' for Active; 'I' for Inactive)
REMARK    1  A    between atoms: C_10  and  C_11
REMARK    2  A    between atoms: C_11  and  C_12
REMARK                            x       y       z     vdW  Elec       q    Type
REMARK                         _______ _______ _______ _____ _____    ______ ____
ROOT
ATOM      1  C   UNL     1     -10.467  12.702  68.099  0.00  0.00    +0.061 C 
ENDROOT
BRANCH   1   4
ATOM      2  O   UNL     1     -12.287  11.971  66.062  0.00  0.00    -0.286 OA
ATOM      3  C   UNL     1     -11.711  13.240  66.050  0.00  0.00    +0.203 A 
ATOM      4  C   UNL     1     -11.073  13.711  67.192  0.00  0.00    +0.033 A 
ATOM      5  C   UNL     1     -10.343  14.881  67.018  0.00  0.00    +0.068 A 
ATOM      6 CL   UNL     1      -9.038  15.331  68.093  0.00  0.00    -0.082 Cl
ATOM      7  C   UNL     1     -10.606  15.734  65.963  0.00  0.00    +0.069 A 
ATOM      8 CL   UNL     1     -10.319  17.462  66.109  0.00  0.00    -0.081 Cl
ATOM      9  C   UNL     1     -11.286  15.239  64.860  0.00  0.00    +0.027 A 
ATOM     10  C   UNL     1     -11.752  13.939  64.872  0.00  0.00    +0.097 A 
ATOM     11 CL   UNL     1     -12.062  13.202  63.310  0.00  0.00    -0.079 Cl
ENDBRANCH   1   4
BRANCH   1  12
ATOM     12  C   UNL     1     -11.458  12.016  68.950  0.00  0.00    +0.033 A 
ATOM     13  C   UNL     1     -11.942  12.713  70.050  0.00  0.00    +0.068 A 
ATOM     14 CL   UNL     1     -12.028  14.469  70.019  0.00  0.00    -0.082 Cl
ATOM     15  C   UNL     1     -12.487  12.048  71.140  0.00  0.00    +0.069 A 
ATOM     16 CL   UNL     1     -13.767  12.805  72.082  0.00  0.00    -0.081 Cl
ATOM     17  C   UNL     1     -12.100  10.733  71.376  0.00  0.00    +0.027 A 
ATOM     18  C   UNL     1     -11.588  10.007  70.308  0.00  0.00    +0.097 A 
ATOM     19 CL   UNL     1     -11.626   8.247  70.336  0.00  0.00    -0.079 Cl
ATOM     20  C   UNL     1     -11.280  10.648  69.115  0.00  0.00    +0.203 A 
ATOM     21  O   UNL     1     -11.191   9.919  67.925  0.00  0.00    -0.286 OA
ENDBRANCH   1  12
TORSDOF 2
ENDMDL
MODEL 8
REMARK VINA RESULT:      -6.2      3.005      5.142
REMARK  Name = 
REMARK  2 active torsions:
REMARK  status: ('A' for Active; 'I' for Inactive)
REMARK    1  A    between atoms: C_10  and  C_11
REMARK    2  A    between atoms: C_11  and  C_12
REMARK                            x       y       z     vdW  Elec       q    Type
REMARK                         _______ _______ _______ _____ _____    ______ ____
ROOT
ATOM      1  C   UNL     1     -11.630  12.919  66.761  0.00  0.00    +0.061 C 
ENDROOT
BRANCH   1   4
ATOM      2  O   UNL     1     -12.105  13.041  69.546  0.00  0.00    -0.286 OA
ATOM      3  C   UNL     1     -11.608  14.160  68.881  0.00  0.00    +0.203 A 
ATOM      4  C   UNL     1     -11.085  14.017  67.601  0.00  0.00    +0.033 A 
ATOM      5  C   UNL     1     -10.821  15.210  66.937  0.00  0.00    +0.068 A 
ATOM      6 CL   UNL     1     -10.724  15.301  65.193  0.00  0.00    -0.082 Cl
ATOM      7  C   UNL     1     -10.648  16.390  67.635  0.00  0.00    +0.069 A 
ATOM      8 CL   UNL     1      -9.608  17.661  67.009  0.00  0.00    -0.081 Cl
ATOM      9  C   UNL     1     -11.142  16.478  68.928  0.00  0.00    +0.027 A 
ATOM     10  C   UNL     1     -11.723  15.370  69.514  0.00  0.00    +0.097 A 
ATOM     11 CL   UNL     1     -12.815  15.673  70.853  0.00  0.00    -0.079 Cl
ENDBRANCH   1   4
BRANCH   1  12
ATOM     12  C   UNL     1     -10.581  12.060  66.178  0.00  0.00    +0.033 A 
ATOM     13  C   UNL     1     -10.781  11.605  64.881  0.00  0.00    +0.068 A 
ATOM     14 CL   UNL     1     -11.727  12.556  63.743  0.00  0.00    -0.082 Cl
ATOM     15  C   UNL     1     -10.140  10.466  64.411  0.00  0.00    +0.069 A 
ATOM     16 CL   UNL     1      -9.714  10.336  62.708  0.00  0.00    -0.081 Cl
ATOM     17  C   UNL     1      -9.725   9.512  65.333  0.00  0.00    +0.027 A 
ATOM     18  C   UNL     1      -9.535   9.919  66.647  0.00  0.00    +0.097 A 
ATOM     19 CL   UNL     1      -8.488   8.994  67.718  0.00  0.00    -0.079 Cl
ATOM     20  C   UNL     1      -9.957  11.179  67.052  0.00  0.00    +0.203 A 
ATOM     21  O   UNL     1      -9.408  11.773  68.194  0.00  0.00    -0.286 OA
ENDBRANCH   1  12
TORSDOF 2
ENDMDL
MODEL 9
REMARK VINA RESULT:      -6.2      2.846      4.963
REMARK  Name = 
REMARK  2 active torsions:
REMARK  status: ('A' for Active; 'I' for Inactive)
REMARK    1  A    between atoms: C_10  and  C_11
REMARK    2  A    between atoms: C_11  and  C_12
REMARK                            x       y       z     vdW  Elec       q    Type
REMARK                         _______ _______ _______ _____ _____    ______ ____
ROOT
ATOM      1  C   UNL     1     -10.964  15.939  67.564  0.00  0.00    +0.061 C 
ENDROOT
BRANCH   1   4
ATOM      2  O   UNL     1     -10.566  15.353  64.826  0.00  0.00    -0.286 OA
ATOM      3  C   UNL     1     -10.929  14.334  65.704  0.00  0.00    +0.203 A 
ATOM      4  C   UNL     1     -10.822  14.543  67.075  0.00  0.00    +0.033 A 
ATOM      5  C   UNL     1     -11.411  13.564  67.867  0.00  0.00    +0.068 A 
ATOM      6 CL   UNL     1     -11.906  13.876  69.515  0.00  0.00    -0.082 Cl
ATOM      7  C   UNL     1     -11.654  12.297  67.370  0.00  0.00    +0.069 A 
ATOM      8 CL   UNL     1     -11.644  10.898  68.433  0.00  0.00    -0.081 Cl
ATOM      9  C   UNL     1     -11.707  12.120  65.996  0.00  0.00    +0.027 A 
ATOM     10  C   UNL     1     -11.440  13.185  65.159  0.00  0.00    +0.097 A 
ATOM     11 CL   UNL     1     -12.071  13.076  63.525  0.00  0.00    -0.079 Cl
ENDBRANCH   1   4
BRANCH   1  12
ATOM     12  C   UNL     1      -9.706  16.708  67.496  0.00  0.00    +0.033 A 
ATOM     13  C   UNL     1      -8.746  16.442  68.463  0.00  0.00    +0.068 A 
ATOM     14 CL   UNL     1      -8.640  14.845  69.192  0.00  0.00    -0.082 Cl
ATOM     15  C   UNL     1      -7.769  17.375  68.783  0.00  0.00    +0.069 A 
ATOM     16 CL   UNL     1      -6.178  16.838  69.312  0.00  0.00    -0.081 Cl
ATOM     17  C   UNL     1      -8.032  18.719  68.542  0.00  0.00    +0.027 A 
ATOM     18  C   UNL     1      -9.003  19.031  67.599  0.00  0.00    +0.097 A 
ATOM     19 CL   UNL     1      -9.000  20.606  66.813  0.00  0.00    -0.079 Cl
ATOM     20  C   UNL     1      -9.820  18.031  67.086  0.00  0.00    +0.203 A 
ATOM     21  O   UNL     1     -10.475  18.214  65.864  0.00  0.00    -0.286 OA
ENDBRANCH   1  12
TORSDOF 2
ENDMDL
