MODEL 1
REMARK VINA RESULT:      -5.8      0.000      0.000
REMARK  Name = 
REMARK  0 active torsions:
REMARK  status: ('A' for Active; 'I' for Inactive)
REMARK                            x       y       z     vdW  Elec       q    Type
REMARK                         _______ _______ _______ _____ _____    ______ ____
ROOT
ATOM      1  C   UNL     1     -13.619  14.040  72.530  0.00  0.00    +0.000 C 
ATOM      2  C   UNL     1     -12.835  14.080  71.251  0.00  0.00    +0.001 C 
ATOM      3  C   UNL     1     -13.180  12.762  71.878  0.00  0.00    +0.000 C 
ATOM      4  C   UNL     1     -12.742  11.484  71.226  0.00  0.00    +0.001 C 
ATOM      5  C   UNL     1     -11.958  11.524  69.947  0.00  0.00    +0.000 C 
ATOM      6  C   UNL     1     -11.613  12.843  69.320  0.00  0.00    +0.001 C 
ATOM      7  C   UNL     1     -11.268  14.161  68.694  0.00  0.00    +0.018 C 
ATOM      8  C   UNL     1     -11.707  15.439  69.346  0.00  0.00    +0.077 C 
ATOM      9  N   UNL     1     -11.362  16.757  68.719  0.00  0.00    -0.134 NA
ATOM     10  C   UNL     1     -13.087  10.166  71.853  0.00  0.00    +0.000 C 
ATOM     11  C   UNL     1     -12.796  12.983  71.241  0.00  0.00    +0.018 C 
ATOM     12  C   UNL     1     -12.490  15.398  70.624  0.00  0.00    +0.018 C 
ATOM     13  C   UNL     1     -12.397  12.802  70.599  0.00  0.00    +0.000 C 
ENDROOT
TORSDOF 0
ENDMDL
MODEL 2
REMARK VINA RESULT:      -5.7      1.627      2.692
REMARK  Name = 
REMARK  0 active torsions:
REMARK  status: ('A' for Active; 'I' for Inactive)
REMARK                            x       y       z     vdW  Elec       q    Type
REMARK                         _______ _______ _______ _____ _____    ______ ____
ROOT
ATOM      1  C   UNL     1     -13.143  10.854  71.817  0.00  0.00    +0.000 C 
ATOM      2  C   UNL     1     -12.975  12.290  71.414  0.00  0.00    +0.001 C 
ATOM      3  C   UNL     1     -12.315  11.205  70.616  0.00  0.00    +0.000 C 
ATOM      4  C   UNL     1     -11.487  11.555  69.416  0.00  0.00    +0.001 C 
ATOM      5  C   UNL     1     -11.319  12.991  69.013  0.00  0.00    +0.000 C 
ATOM      6  C   UNL     1     -11.979  14.076  69.812  0.00  0.00    +0.001 C 
ATOM      7  C   UNL     1     -12.639  15.161  70.610  0.00  0.00    +0.018 C 
ATOM      8  C   UNL     1     -13.467  14.810  71.811  0.00  0.00    +0.077 C 
ATOM      9  N   UNL     1     -14.127  15.895  72.609  0.00  0.00    -0.134 NA
ATOM     10  C   UNL     1     -10.827  10.471  68.617  0.00  0.00    +0.000 C 
ATOM     11  C   UNL     1     -12.346  11.979  70.570  0.00  0.00    +0.018 C 
ATOM     12  C   UNL     1     -13.635  13.374  72.213  0.00  0.00    +0.018 C 
ATOM     13  C   UNL     1     -12.147  12.640  70.214  0.00  0.00    +0.000 C 
ENDROOT
TORSDOF 0
ENDMDL
MODEL 3
REMARK VINA RESULT:      -5.7      1.582      2.997
REMARK  Name = 
REMARK  0 active torsions:
REMARK  status: ('A' for Active; 'I' for Inactive)
REMARK                            x       y       z     vdW  Elec       q    Type
REMARK                         _______ _______ _______ _____ _____    ______ ____
ROOT
ATOM      1  C   UNL     1     -11.413  14.370  68.601  0.00  0.00    +0.000 C 
ATOM      2  C   UNL     1     -12.162  14.079  69.869  0.00  0.00    +0.001 C 
ATOM      3  C   UNL     1     -11.534  12.958  69.094  0.00  0.00    +0.000 C 
ATOM      4  C   UNL     1     -11.655  11.547  69.586  0.00  0.00    +0.001 C 
ATOM      5  C   UNL     1     -12.403  11.255  70.853  0.00  0.00    +0.000 C 
ATOM      6  C   UNL     1     -13.031  12.376  71.628  0.00  0.00    +0.001 C 
ATOM      7  C   UNL     1     -13.658  13.497  72.403  0.00  0.00    +0.018 C 
ATOM      8  C   UNL     1     -13.537  14.909  71.910  0.00  0.00    +0.077 C 
ATOM      9  N   UNL     1     -14.165  16.029  72.686  0.00  0.00    -0.134 NA
ATOM     10  C   UNL     1     -11.028  10.426  68.811  0.00  0.00    +0.000 C 
ATOM     11  C   UNL     1     -11.947  13.009  69.749  0.00  0.00    +0.018 C 
ATOM     12  C   UNL     1     -12.789  15.199  70.644  0.00  0.00    +0.018 C 
ATOM     13  C   UNL     1     -12.283  12.667  70.361  0.00  0.00    +0.000 C 
ENDROOT
TORSDOF 0
ENDMDL
MODEL 4
REMARK VINA RESULT:      -5.6      1.944      3.622
REMARK  Name = 
REMARK  0 active torsions:
REMARK  status: ('A' for Active; 'I' for Inactive)
REMARK                            x       y       z     vdW  Elec       q    Type
REMARK                         _______ _______ _______ _____ _____    ______ ____
ROOT
ATOM      1  C   UNL     1     -11.908  15.502  69.454  0.00  0.00    +0.000 C 
ATOM      2  C   UNL     1     -12.084  14.060  69.832  0.00  0.00    +0.001 C 
ATOM      3  C   UNL     1     -12.585  15.141  70.743  0.00  0.00    +0.000 C 
ATOM      4  C   UNL     1     -13.261  14.782  72.032  0.00  0.00    +0.001 C 
ATOM      5  C   UNL     1     -13.438  13.340  72.410  0.00  0.00    +0.000 C 
ATOM      6  C   UNL     1     -12.937  12.259  71.499  0.00  0.00    +0.001 C 
ATOM      7  C   UNL     1     -12.437  11.178  70.587  0.00  0.00    +0.018 C 
ATOM      8  C   UNL     1     -11.760  11.539  69.297  0.00  0.00    +0.077 C 
ATOM      9  N   UNL     1     -11.260  10.457  68.386  0.00  0.00    -0.134 NA
ATOM     10  C   UNL     1     -13.762  15.862  72.944  0.00  0.00    +0.000 C 
ATOM     11  C   UNL     1     -12.582  14.366  70.762  0.00  0.00    +0.018 C 
ATOM     12  C   UNL     1     -11.584  12.980  68.920  0.00  0.00    +0.018 C 
ATOM     13  C   UNL     1     -12.761  13.701  71.121  0.00  0.00    +0.000 C 
ENDROOT
TORSDOF 0
ENDMDL
MODEL 5
REMARK VINA RESULT:      -5.5      0.495      2.332
REMARK  Name = 
REMARK  0 active torsions:
REMARK  status: ('A' for Active; 'I' for Inactive)
REMARK                            x       y       z     vdW  Elec       q    Type
REMARK                         _______ _______ _______ _____ _____    ______ ____
ROOT
ATOM      1  C   UNL     1     -11.172  11.402  68.762  0.00  0.00    +0.000 C 
ATOM      2  C   UNL     1     -11.656  12.659  69.424  0.00  0.00    +0.001 C 
ATOM      3  C   UNL     1     -11.974  11.324  70.028  0.00  0.00    +0.000 C 
ATOM      4  C   UNL     1     -12.775  11.245  71.293  0.00  0.00    +0.001 C 
ATOM      5  C   UNL     1     -13.259  12.502  71.955  0.00  0.00    +0.000 C 
ATOM      6  C   UNL     1     -12.941  13.837  71.350  0.00  0.00    +0.001 C 
ATOM      7  C   UNL     1     -12.623  15.173  70.746  0.00  0.00    +0.018 C 
ATOM      8  C   UNL     1     -11.821  15.251  69.480  0.00  0.00    +0.077 C 
ATOM      9  N   UNL     1     -11.504  16.587  68.876  0.00  0.00    -0.134 NA
ATOM     10  C   UNL     1     -13.093   9.909  71.898  0.00  0.00    +0.000 C 
ATOM     11  C   UNL     1     -12.129  12.061  70.214  0.00  0.00    +0.018 C 
ATOM     12  C   UNL     1     -11.338  13.995  68.819  0.00  0.00    +0.018 C 
ATOM     13  C   UNL     1     -12.457  12.580  70.689  0.00  0.00    +0.000 C 
ENDROOT
TORSDOF 0
ENDMDL
MODEL 6
REMARK VINA RESULT:      -5.4      2.319      3.881
REMARK  Name = 
REMARK  0 active torsions:
REMARK  status: ('A' for Active; 'I' for Inactive)
REMARK                            x       y       z     vdW  Elec       q    Type
REMARK                         _______ _______ _______ _____ _____    ______ ____
ROOT
ATOM      1  C   UNL     1     -13.338  14.982  71.925  0.00  0.00    +0.000 C 
ATOM      2  C   UNL     1     -12.924  13.666  71.334  0.00  0.00    +0.001 C 
ATOM      3  C   UNL     1     -12.527  14.947  70.663  0.00  0.00    +0.000 C 
ATOM      4  C   UNL     1     -11.717  14.914  69.402  0.00  0.00    +0.001 C 
ATOM      5  C   UNL     1     -11.303  13.598  68.811  0.00  0.00    +0.000 C 
ATOM      6  C   UNL     1     -11.699  12.317  69.482  0.00  0.00    +0.001 C 
ATOM      7  C   UNL     1     -12.096  11.035  70.154  0.00  0.00    +0.018 C 
ATOM      8  C   UNL     1     -12.907  11.069  71.415  0.00  0.00    +0.077 C 
ATOM      9  N   UNL     1     -13.303   9.788  72.086  0.00  0.00    -0.134 NA
ATOM     10  C   UNL     1     -11.320  16.195  68.731  0.00  0.00    +0.000 C 
ATOM     11  C   UNL     1     -12.414  14.194  70.518  0.00  0.00    +0.018 C 
ATOM     12  C   UNL     1     -13.320  12.385  72.006  0.00  0.00    +0.018 C 
ATOM     13  C   UNL     1     -12.114  13.632  70.073  0.00  0.00    +0.000 C 
ENDROOT
TORSDOF 0
ENDMDL
MODEL 7
REMARK VINA RESULT:      -5.2      1.466      2.975
REMARK  Name = 
REMARK  0 active torsions:
REMARK  status: ('A' for Active; 'I' for Inactive)
REMARK                            x       y       z     vdW  Elec       q    Type
REMARK                         _______ _______ _______ _____ _____    ______ ____
ROOT
ATOM      1  C   UNL     1     -12.438  12.000  70.627  0.00  0.00    +0.000 C 
ATOM      2  C   UNL     1     -12.098  13.216  69.816  0.00  0.00    +0.001 C 
ATOM      3  C   UNL     1     -12.483  13.361  71.259  0.00  0.00    +0.000 C 
ATOM      4  C   UNL     1     -12.528  14.720  71.891  0.00  0.00    +0.001 C 
ATOM      5  C   UNL     1     -12.188  15.936  71.080  0.00  0.00    +0.000 C 
ATOM      6  C   UNL     1     -11.803  15.792  69.638  0.00  0.00    +0.001 C 
ATOM      7  C   UNL     1     -11.418  15.647  68.195  0.00  0.00    +0.018 C 
ATOM      8  C   UNL     1     -11.373  14.287  67.563  0.00  0.00    +0.077 C 
ATOM      9  N   UNL     1     -10.988  14.144  66.121  0.00  0.00    -0.134 NA
ATOM     10  C   UNL     1     -12.913  14.864  73.333  0.00  0.00    +0.000 C 
ATOM     11  C   UNL     1     -12.280  13.851  70.694  0.00  0.00    +0.018 C 
ATOM     12  C   UNL     1     -11.713  13.072  68.374  0.00  0.00    +0.018 C 
ATOM     13  C   UNL     1     -12.143  14.576  70.448  0.00  0.00    +0.000 C 
ENDROOT
TORSDOF 0
ENDMDL
MODEL 8
REMARK VINA RESULT:      -5.2      3.951      5.168
REMARK  Name = 
REMARK  0 active torsions:
REMARK  status: ('A' for Active; 'I' for Inactive)
REMARK                            x       y       z     vdW  Elec       q    Type
REMARK                         _______ _______ _______ _____ _____    ______ ____
ROOT
ATOM      1  C   UNL     1     -11.749  12.105  68.279  0.00  0.00    +0.000 C 
ATOM      2  C   UNL     1     -11.599  12.296  66.798  0.00  0.00    +0.001 C 
ATOM      3  C   UNL     1     -11.031  11.075  67.458  0.00  0.00    +0.000 C 
ATOM      4  C   UNL     1     -10.313  10.045  66.639  0.00  0.00    +0.001 C 
ATOM      5  C   UNL     1     -10.163  10.236  65.158  0.00  0.00    +0.000 C 
ATOM      6  C   UNL     1     -10.731  11.457  64.498  0.00  0.00    +0.001 C 
ATOM      7  C   UNL     1     -11.300  12.678  63.838  0.00  0.00    +0.018 C 
ATOM      8  C   UNL     1     -12.019  13.708  64.658  0.00  0.00    +0.077 C 
ATOM      9  N   UNL     1     -12.587  14.928  63.997  0.00  0.00    -0.134 NA
ATOM     10  C   UNL     1      -9.744   8.824  67.299  0.00  0.00    +0.000 C 
ATOM     11  C   UNL     1     -11.056  11.344  66.731  0.00  0.00    +0.018 C 
ATOM     12  C   UNL     1     -12.168  13.517  66.138  0.00  0.00    +0.018 C 
ATOM     13  C   UNL     1     -10.881  11.266  65.978  0.00  0.00    +0.000 C 
ENDROOT
TORSDOF 0
ENDMDL
MODEL 9
REMARK VINA RESULT:      -5.2      2.688      3.678
REMARK  Name = 
REMARK  0 active torsions:
REMARK  status: ('A' for Active; 'I' for Inactive)
REMARK                            x       y       z     vdW  Elec       q    Type
REMARK                         _______ _______ _______ _____ _____    ______ ____
ROOT
ATOM      1  C   UNL     1     -11.991  13.929  69.257  0.00  0.00    +0.000 C 
ATOM      2  C   UNL     1     -11.883  13.399  67.858  0.00  0.00    +0.001 C 
ATOM      3  C   UNL     1     -11.545  12.516  69.022  0.00  0.00    +0.000 C 
ATOM      4  C   UNL     1     -11.099  11.104  68.788  0.00  0.00    +0.001 C 
ATOM      5  C   UNL     1     -10.991  10.573  67.388  0.00  0.00    +0.000 C 
ATOM      6  C   UNL     1     -11.330  11.456  66.224  0.00  0.00    +0.001 C 
ATOM      7  C   UNL     1     -11.669  12.339  65.059  0.00  0.00    +0.018 C 
ATOM      8  C   UNL     1     -12.115  13.752  65.294  0.00  0.00    +0.077 C 
ATOM      9  N   UNL     1     -12.453  14.634  64.129  0.00  0.00    -0.134 NA
ATOM     10  C   UNL     1     -10.760  10.221  69.952  0.00  0.00    +0.000 C 
ATOM     11  C   UNL     1     -11.552  12.429  68.251  0.00  0.00    +0.018 C 
ATOM     12  C   UNL     1     -12.222  14.282  66.693  0.00  0.00    +0.018 C 
ATOM     13  C   UNL     1     -11.437  11.987  67.623  0.00  0.00    +0.000 C 
ENDROOT
TORSDOF 0
ENDMDL
