MODEL 1
REMARK VINA RESULT:      -7.8      0.000      0.000
REMARK  Name = 
REMARK  4 active torsions:
REMARK  status: ('A' for Active; 'I' for Inactive)
REMARK    1  A    between atoms: O_2  and  C_3
REMARK    2  A    between atoms: C_4  and  N_5
REMARK    3  A    between atoms: C_20  and  C_21
REMARK    4  A    between atoms: N_25  and  C_26
REMARK                            x       y       z     vdW  Elec       q    Type
REMARK                         _______ _______ _______ _____ _____    ______ ____
ROOT
ATOM      1  C   UNL     1     -10.815  14.612  66.570  0.00  0.00    +0.170 A 
ATOM      2  C   UNL     1     -11.253  13.292  66.602  0.00  0.00    +0.099 A 
ATOM      3  C   UNL     1     -11.773  12.767  67.778  0.00  0.00    +0.060 A 
ATOM      4  C   UNL     1     -11.730  11.392  67.990  0.00  0.00    +0.205 A 
ATOM      5  C   UNL     1     -10.823  10.640  67.249  0.00  0.00    +0.136 A 
ATOM      6  C   UNL     1     -10.552  11.115  65.974  0.00  0.00    +0.086 A 
ATOM      7  O   UNL     1     -11.978  10.962  69.157  0.00  0.00    -0.286 OA
ATOM      8  C   UNL     1     -12.000  13.686  68.796  0.00  0.00    +0.036 A 
ATOM      9  C   UNL     1     -11.268  14.869  68.895  0.00  0.00    +0.157 A 
ATOM     10  F   UNL     1     -10.684  15.116  70.112  0.00  0.00    -0.203 F 
ATOM     11  N   UNL     1     -10.842  12.393  65.673  0.00  0.00    -0.325 N 
ATOM     12  C   UNL     1     -10.670  15.362  67.735  0.00  0.00    +0.112 A 
ENDROOT
BRANCH  12  13
ATOM     13  N   UNL     1      -9.576  16.291  67.775  0.00  0.00    -0.302 N 
ATOM     14  C   UNL     1      -8.634  16.601  66.745  0.00  0.00    +0.108 C 
ATOM     15  C   UNL     1      -8.783  18.215  66.615  0.00  0.00    +0.094 C 
ATOM     16  C   UNL     1      -8.482  18.384  68.282  0.00  0.00    +0.038 C 
ATOM     17  C   UNL     1      -9.483  19.641  68.505  0.00  0.00    +0.005 C 
ATOM     18  C   UNL     1      -9.666  20.362  67.219  0.00  0.00    +0.019 C 
ATOM     19  C   UNL     1     -10.712  19.569  66.437  0.00  0.00    +0.089 C 
ATOM     20  N   UNL     1     -10.342  18.185  66.712  0.00  0.00    -0.218 NA
ATOM     21  C   UNL     1      -9.596  17.322  68.743  0.00  0.00    +0.092 C 
ENDBRANCH  12  13
BRANCH   5  22
ATOM     22  C   UNL     1     -10.234   9.439  67.803  0.00  0.00    +0.392 C 
ATOM     23  O   UNL     1     -10.656   8.211  67.282  0.00  0.00    -0.240 OA
ATOM     24  O   UNL     1      -9.009   9.523  68.118  0.00  0.00    -0.240 OA
ENDBRANCH   5  22
BRANCH  11  25
ATOM     25  C   UNL     1     -10.838  12.915  64.310  0.00  0.00    +0.086 C 
ATOM     26  C   UNL     1     -12.063  12.347  63.537  0.00  0.00    +0.024 C 
ATOM     27  C   UNL     1     -10.703  11.782  63.261  0.00  0.00    +0.024 C 
ENDBRANCH  11  25
BRANCH   1  29
ATOM     28  C   UNL     1     -11.248  15.864  64.612  0.00  0.00    +0.253 C 
ATOM     29  O   UNL     1     -10.528  15.132  65.328  0.00  0.00    -0.469 OA
ENDBRANCH   1  29
TORSDOF 4
ENDMDL
MODEL 2
REMARK VINA RESULT:      -7.1      3.167      7.827
REMARK  Name = 
REMARK  4 active torsions:
REMARK  status: ('A' for Active; 'I' for Inactive)
REMARK    1  A    between atoms: O_2  and  C_3
REMARK    2  A    between atoms: C_4  and  N_5
REMARK    3  A    between atoms: C_20  and  C_21
REMARK    4  A    between atoms: N_25  and  C_26
REMARK                            x       y       z     vdW  Elec       q    Type
REMARK                         _______ _______ _______ _____ _____    ______ ____
ROOT
ATOM      1  C   UNL     1     -11.928  12.083  70.068  0.00  0.00    +0.170 A 
ATOM      2  C   UNL     1     -12.159  13.357  69.559  0.00  0.00    +0.099 A 
ATOM      3  C   UNL     1     -11.976  13.602  68.204  0.00  0.00    +0.060 A 
ATOM      4  C   UNL     1     -11.697  14.897  67.776  0.00  0.00    +0.205 A 
ATOM      5  C   UNL     1     -11.205  15.806  68.707  0.00  0.00    +0.136 A 
ATOM      6  C   UNL     1     -11.647  15.628  70.010  0.00  0.00    +0.086 A 
ATOM      7  O   UNL     1     -11.293  15.055  66.584  0.00  0.00    -0.286 OA
ATOM      8  C   UNL     1     -11.761  12.478  67.415  0.00  0.00    +0.036 A 
ATOM      9  C   UNL     1     -11.197  11.313  67.935  0.00  0.00    +0.157 A 
ATOM     10  F   UNL     1     -10.116  10.811  67.254  0.00  0.00    -0.203 F 
ATOM     11  N   UNL     1     -12.173  14.445  70.370  0.00  0.00    -0.325 N 
ATOM     12  C   UNL     1     -11.302  11.096  69.309  0.00  0.00    +0.112 A 
ENDROOT
BRANCH  12  13
ATOM     13  N   UNL     1     -10.430  10.197  70.009  0.00  0.00    -0.302 N 
ATOM     14  C   UNL     1     -10.778   9.121  70.885  0.00  0.00    +0.108 C 
ATOM     15  C   UNL     1     -10.008   7.859  70.206  0.00  0.00    +0.094 C 
ATOM     16  C   UNL     1      -8.538   8.717  70.265  0.00  0.00    +0.038 C 
ATOM     17  C   UNL     1      -7.943   8.122  68.878  0.00  0.00    +0.005 C 
ATOM     18  C   UNL     1      -8.581   6.813  68.587  0.00  0.00    +0.019 C 
ATOM     19  C   UNL     1      -9.936   7.135  67.958  0.00  0.00    +0.089 C 
ATOM     20  N   UNL     1     -10.400   8.269  68.750  0.00  0.00    -0.218 NA
ATOM     21  C   UNL     1      -9.105  10.034  69.542  0.00  0.00    +0.092 C 
ENDBRANCH  12  13
BRANCH   5  22
ATOM     22  C   UNL     1     -10.303  16.863  68.300  0.00  0.00    +0.392 C 
ATOM     23  O   UNL     1     -10.860  18.113  68.006  0.00  0.00    -0.240 OA
ATOM     24  O   UNL     1      -9.174  16.875  68.877  0.00  0.00    -0.240 OA
ENDBRANCH   5  22
BRANCH  11  25
ATOM     25  C   UNL     1     -12.895  14.236  71.621  0.00  0.00    +0.086 C 
ATOM     26  C   UNL     1     -14.300  14.898  71.523  0.00  0.00    +0.024 C 
ATOM     27  C   UNL     1     -13.230  15.578  72.322  0.00  0.00    +0.024 C 
ENDBRANCH  11  25
BRANCH   1  29
ATOM     28  C   UNL     1     -13.238  11.071  71.755  0.00  0.00    +0.253 C 
ATOM     29  O   UNL     1     -12.345  11.854  71.360  0.00  0.00    -0.469 OA
ENDBRANCH   1  29
TORSDOF 4
ENDMDL
MODEL 3
REMARK VINA RESULT:      -7.1      1.112      2.047
REMARK  Name = 
REMARK  4 active torsions:
REMARK  status: ('A' for Active; 'I' for Inactive)
REMARK    1  A    between atoms: O_2  and  C_3
REMARK    2  A    between atoms: C_4  and  N_5
REMARK    3  A    between atoms: C_20  and  C_21
REMARK    4  A    between atoms: N_25  and  C_26
REMARK                            x       y       z     vdW  Elec       q    Type
REMARK                         _______ _______ _______ _____ _____    ______ ____
ROOT
ATOM      1  C   UNL     1     -11.100  14.859  66.328  0.00  0.00    +0.170 A 
ATOM      2  C   UNL     1     -11.427  13.534  66.594  0.00  0.00    +0.099 A 
ATOM      3  C   UNL     1     -11.827  13.165  67.872  0.00  0.00    +0.060 A 
ATOM      4  C   UNL     1     -11.659  11.848  68.288  0.00  0.00    +0.205 A 
ATOM      5  C   UNL     1     -10.743  11.054  67.604  0.00  0.00    +0.136 A 
ATOM      6  C   UNL     1     -10.593  11.339  66.255  0.00  0.00    +0.086 A 
ATOM      7  O   UNL     1     -11.797  11.591  69.522  0.00  0.00    -0.286 OA
ATOM      8  C   UNL     1     -12.062  14.215  68.752  0.00  0.00    +0.036 A 
ATOM      9  C   UNL     1     -11.423  15.448  68.614  0.00  0.00    +0.157 A 
ATOM     10  F   UNL     1     -10.785  15.924  69.731  0.00  0.00    -0.203 F 
ATOM     11  N   UNL     1     -11.005  12.530  65.785  0.00  0.00    -0.325 N 
ATOM     12  C   UNL     1     -10.943  15.792  67.351  0.00  0.00    +0.112 A 
ENDROOT
BRANCH  12  13
ATOM     13  N   UNL     1      -9.928  16.790  67.166  0.00  0.00    -0.302 N 
ATOM     14  C   UNL     1      -9.705  17.984  67.921  0.00  0.00    +0.108 C 
ATOM     15  C   UNL     1      -8.152  17.822  68.375  0.00  0.00    +0.094 C 
ATOM     16  C   UNL     1      -7.693  17.608  66.750  0.00  0.00    +0.038 C 
ATOM     17  C   UNL     1      -6.508  16.541  67.050  0.00  0.00    +0.005 C 
ATOM     18  C   UNL     1      -6.022  16.721  68.441  0.00  0.00    +0.019 C 
ATOM     19  C   UNL     1      -7.017  15.984  69.335  0.00  0.00    +0.089 C 
ATOM     20  N   UNL     1      -8.302  16.306  68.723  0.00  0.00    -0.218 NA
ATOM     21  C   UNL     1      -8.760  16.446  66.445  0.00  0.00    +0.092 C 
ENDBRANCH  12  13
BRANCH   5  22
ATOM     22  C   UNL     1     -10.025   9.999  68.288  0.00  0.00    +0.392 C 
ATOM     23  O   UNL     1     -10.562   8.709  68.234  0.00  0.00    -0.240 OA
ATOM     24  O   UNL     1      -8.761  10.082  68.251  0.00  0.00    -0.240 OA
ENDBRANCH   5  22
BRANCH  11  25
ATOM     25  C   UNL     1     -11.130  12.829  64.362  0.00  0.00    +0.086 C 
ATOM     26  C   UNL     1     -12.438  12.188  63.813  0.00  0.00    +0.024 C 
ATOM     27  C   UNL     1     -11.123  11.540  63.500  0.00  0.00    +0.024 C 
ENDBRANCH  11  25
BRANCH   1  29
ATOM     28  C   UNL     1     -11.659  15.938  64.300  0.00  0.00    +0.253 C 
ATOM     29  O   UNL     1     -10.936  15.196  65.003  0.00  0.00    -0.469 OA
ENDBRANCH   1  29
TORSDOF 4
ENDMDL
MODEL 4
REMARK VINA RESULT:      -6.6      2.816      7.683
REMARK  Name = 
REMARK  4 active torsions:
REMARK  status: ('A' for Active; 'I' for Inactive)
REMARK    1  A    between atoms: O_2  and  C_3
REMARK    2  A    between atoms: C_4  and  N_5
REMARK    3  A    between atoms: C_20  and  C_21
REMARK    4  A    between atoms: N_25  and  C_26
REMARK                            x       y       z     vdW  Elec       q    Type
REMARK                         _______ _______ _______ _____ _____    ______ ____
ROOT
ATOM      1  C   UNL     1     -11.417  11.950  68.787  0.00  0.00    +0.170 A 
ATOM      2  C   UNL     1     -11.585  13.192  68.184  0.00  0.00    +0.099 A 
ATOM      3  C   UNL     1     -11.688  13.280  66.801  0.00  0.00    +0.060 A 
ATOM      4  C   UNL     1     -11.343  14.468  66.164  0.00  0.00    +0.205 A 
ATOM      5  C   UNL     1     -10.530  15.368  66.846  0.00  0.00    +0.136 A 
ATOM      6  C   UNL     1     -10.679  15.384  68.225  0.00  0.00    +0.086 A 
ATOM      7  O   UNL     1     -11.209  14.449  64.903  0.00  0.00    -0.286 OA
ATOM      8  C   UNL     1     -11.816  12.068  66.132  0.00  0.00    +0.036 A 
ATOM      9  C   UNL     1     -11.311  10.880  66.661  0.00  0.00    +0.157 A 
ATOM     10  F   UNL     1     -10.495  10.151  65.832  0.00  0.00    -0.203 F 
ATOM     11  N   UNL     1     -11.264  14.338  68.835  0.00  0.00    -0.325 N 
ATOM     12  C   UNL     1     -11.124  10.811  68.041  0.00  0.00    +0.112 A 
ENDROOT
BRANCH  12  13
ATOM     13  N   UNL     1     -10.243   9.851  68.645  0.00  0.00    -0.302 N 
ATOM     14  C   UNL     1      -9.532   9.950  69.882  0.00  0.00    +0.108 C 
ATOM     15  C   UNL     1     -10.018   8.612  70.669  0.00  0.00    +0.094 C 
ATOM     16  C   UNL     1      -9.532   7.653  69.350  0.00  0.00    +0.038 C 
ATOM     17  C   UNL     1     -10.723   6.561  69.489  0.00  0.00    +0.005 C 
ATOM     18  C   UNL     1     -11.222   6.550  70.888  0.00  0.00    +0.019 C 
ATOM     19  C   UNL     1     -12.185   7.730  71.003  0.00  0.00    +0.089 C 
ATOM     20  N   UNL     1     -11.511   8.773  70.237  0.00  0.00    -0.218 NA
ATOM     21  C   UNL     1     -10.337   8.497  68.246  0.00  0.00    +0.092 C 
ENDBRANCH  12  13
BRANCH   5  22
ATOM     22  C   UNL     1      -9.613  16.225  66.125  0.00  0.00    +0.392 C 
ATOM     23  O   UNL     1     -10.058  17.505  65.777  0.00  0.00    -0.240 OA
ATOM     24  O   UNL     1      -8.394  16.128  66.459  0.00  0.00    -0.240 OA
ENDBRANCH   5  22
BRANCH  11  25
ATOM     25  C   UNL     1     -11.697  14.364  70.229  0.00  0.00    +0.086 C 
ATOM     26  C   UNL     1     -12.791  15.457  70.408  0.00  0.00    +0.024 C 
ATOM     27  C   UNL     1     -11.401  15.731  70.898  0.00  0.00    +0.024 C 
ENDBRANCH  11  25
BRANCH   1  29
ATOM     28  C   UNL     1     -12.567  11.615  70.825  0.00  0.00    +0.253 C 
ATOM     29  O   UNL     1     -11.551  11.911  70.157  0.00  0.00    -0.469 OA
ENDBRANCH   1  29
TORSDOF 4
ENDMDL
MODEL 5
REMARK VINA RESULT:      -6.6      2.427      7.392
REMARK  Name = 
REMARK  4 active torsions:
REMARK  status: ('A' for Active; 'I' for Inactive)
REMARK    1  A    between atoms: O_2  and  C_3
REMARK    2  A    between atoms: C_4  and  N_5
REMARK    3  A    between atoms: C_20  and  C_21
REMARK    4  A    between atoms: N_25  and  C_26
REMARK                            x       y       z     vdW  Elec       q    Type
REMARK                         _______ _______ _______ _____ _____    ______ ____
ROOT
ATOM      1  C   UNL     1     -10.602  13.097  67.067  0.00  0.00    +0.170 A 
ATOM      2  C   UNL     1     -11.024  14.416  66.939  0.00  0.00    +0.099 A 
ATOM      3  C   UNL     1     -11.288  14.937  65.679  0.00  0.00    +0.060 A 
ATOM      4  C   UNL     1     -11.202  16.311  65.476  0.00  0.00    +0.205 A 
ATOM      5  C   UNL     1     -10.470  17.067  66.387  0.00  0.00    +0.136 A 
ATOM      6  C   UNL     1     -10.471  16.596  67.692  0.00  0.00    +0.086 A 
ATOM      7  O   UNL     1     -11.202  16.737  64.281  0.00  0.00    -0.286 OA
ATOM      8  C   UNL     1     -11.297  14.014  64.639  0.00  0.00    +0.036 A 
ATOM      9  C   UNL     1     -10.559  12.832  64.700  0.00  0.00    +0.157 A 
ATOM     10  F   UNL     1      -9.734  12.582  63.633  0.00  0.00    -0.203 F 
ATOM     11  N   UNL     1     -10.817  15.320  67.931  0.00  0.00    -0.325 N 
ATOM     12  C   UNL     1     -10.217  12.344  65.961  0.00  0.00    +0.112 A 
ENDROOT
BRANCH  12  13
ATOM     13  N   UNL     1      -9.138  11.416  66.153  0.00  0.00    -0.302 N 
ATOM     14  C   UNL     1      -8.477  11.061  67.370  0.00  0.00    +0.108 C 
ATOM     15  C   UNL     1      -8.638   9.442  67.392  0.00  0.00    +0.094 C 
ATOM     16  C   UNL     1      -7.933   9.345  65.845  0.00  0.00    +0.038 C 
ATOM     17  C   UNL     1      -8.836   8.100  65.328  0.00  0.00    +0.005 C 
ATOM     18  C   UNL     1      -9.324   7.325  66.497  0.00  0.00    +0.019 C 
ATOM     19  C   UNL     1     -10.538   8.084  67.029  0.00  0.00    +0.089 C 
ATOM     20  N   UNL     1     -10.125   9.479  66.913  0.00  0.00    -0.218 NA
ATOM     21  C   UNL     1      -8.909  10.427  65.168  0.00  0.00    +0.092 C 
ENDBRANCH  12  13
BRANCH   5  22
ATOM     22  C   UNL     1      -9.779  18.267  65.964  0.00  0.00    +0.392 C 
ATOM     23  O   UNL     1     -10.428  19.491  66.158  0.00  0.00    -0.240 OA
ATOM     24  O   UNL     1      -8.523  18.266  66.133  0.00  0.00    -0.240 OA
ENDBRANCH   5  22
BRANCH  11  25
ATOM     25  C   UNL     1     -11.097  14.802  69.266  0.00  0.00    +0.086 C 
ATOM     26  C   UNL     1     -12.393  15.467  69.816  0.00  0.00    +0.024 C 
ATOM     27  C   UNL     1     -11.064  15.924  70.336  0.00  0.00    +0.024 C 
ENDBRANCH  11  25
BRANCH   1  29
ATOM     28  C   UNL     1     -11.443  11.867  68.902  0.00  0.00    +0.253 C 
ATOM     29  O   UNL     1     -10.580  12.582  68.344  0.00  0.00    -0.469 OA
ENDBRANCH   1  29
TORSDOF 4
ENDMDL
MODEL 6
REMARK VINA RESULT:      -6.5      3.118      6.056
REMARK  Name = 
REMARK  4 active torsions:
REMARK  status: ('A' for Active; 'I' for Inactive)
REMARK    1  A    between atoms: O_2  and  C_3
REMARK    2  A    between atoms: C_4  and  N_5
REMARK    3  A    between atoms: C_20  and  C_21
REMARK    4  A    between atoms: N_25  and  C_26
REMARK                            x       y       z     vdW  Elec       q    Type
REMARK                         _______ _______ _______ _____ _____    ______ ____
ROOT
ATOM      1  C   UNL     1     -11.441  13.081  69.101  0.00  0.00    +0.170 A 
ATOM      2  C   UNL     1     -11.665  12.273  70.211  0.00  0.00    +0.099 A 
ATOM      3  C   UNL     1     -11.111  11.000  70.260  0.00  0.00    +0.060 A 
ATOM      4  C   UNL     1     -11.708  10.025  71.053  0.00  0.00    +0.205 A 
ATOM      5  C   UNL     1     -13.035  10.206  71.432  0.00  0.00    +0.136 A 
ATOM      6  C   UNL     1     -13.434  11.524  71.602  0.00  0.00    +0.086 A 
ATOM      7  O   UNL     1     -11.340   8.821  70.895  0.00  0.00    -0.286 OA
ATOM      8  C   UNL     1     -10.192  10.707  69.259  0.00  0.00    +0.036 A 
ATOM      9  C   UNL     1     -10.237  11.336  68.014  0.00  0.00    +0.157 A 
ATOM     10  F   UNL     1     -10.242  10.508  66.921  0.00  0.00    -0.203 F 
ATOM     11  N   UNL     1     -12.702  12.509  71.054  0.00  0.00    -0.325 N 
ATOM     12  C   UNL     1     -10.866  12.578  67.936  0.00  0.00    +0.112 A 
ENDROOT
BRANCH  12  13
ATOM     13  N   UNL     1     -11.346  13.114  66.694  0.00  0.00    -0.302 N 
ATOM     14  C   UNL     1     -10.817  14.202  65.930  0.00  0.00    +0.108 C 
ATOM     15  C   UNL     1     -10.582  13.518  64.473  0.00  0.00    +0.094 C 
ATOM     16  C   UNL     1     -12.208  13.016  64.440  0.00  0.00    +0.038 C 
ATOM     17  C   UNL     1     -11.935  11.618  63.665  0.00  0.00    +0.005 C 
ATOM     18  C   UNL     1     -10.675  11.722  62.887  0.00  0.00    +0.019 C 
ATOM     19  C   UNL     1      -9.543  11.480  63.883  0.00  0.00    +0.089 C 
ATOM     20  N   UNL     1      -9.996  12.199  65.069  0.00  0.00    -0.218 NA
ATOM     21  C   UNL     1     -12.175  12.307  65.881  0.00  0.00    +0.092 C 
ENDBRANCH  12  13
BRANCH   5  22
ATOM     22  C   UNL     1     -13.905   9.068  71.639  0.00  0.00    +0.392 C 
ATOM     23  O   UNL     1     -14.419   8.870  72.926  0.00  0.00    -0.240 OA
ATOM     24  O   UNL     1     -14.682   8.788  70.677  0.00  0.00    -0.240 OA
ENDBRANCH   5  22
BRANCH  11  25
ATOM     25  C   UNL     1     -12.882  13.919  71.383  0.00  0.00    +0.086 C 
ATOM     26  C   UNL     1     -12.998  14.079  72.927  0.00  0.00    +0.024 C 
ATOM     27  C   UNL     1     -14.238  14.176  72.091  0.00  0.00    +0.024 C 
ENDBRANCH  11  25
BRANCH   1  29
ATOM     28  C   UNL     1     -11.091  15.413  69.266  0.00  0.00    +0.253 C 
ATOM     29  O   UNL     1     -11.823  14.399  69.216  0.00  0.00    -0.469 OA
ENDBRANCH   1  29
TORSDOF 4
ENDMDL
MODEL 7
REMARK VINA RESULT:      -6.5      2.746      7.137
REMARK  Name = 
REMARK  4 active torsions:
REMARK  status: ('A' for Active; 'I' for Inactive)
REMARK    1  A    between atoms: O_2  and  C_3
REMARK    2  A    between atoms: C_4  and  N_5
REMARK    3  A    between atoms: C_20  and  C_21
REMARK    4  A    between atoms: N_25  and  C_26
REMARK                            x       y       z     vdW  Elec       q    Type
REMARK                         _______ _______ _______ _____ _____    ______ ____
ROOT
ATOM      1  C   UNL     1     -11.721  12.029  69.122  0.00  0.00    +0.170 A 
ATOM      2  C   UNL     1     -11.817  13.375  68.783  0.00  0.00    +0.099 A 
ATOM      3  C   UNL     1     -11.764  13.755  67.447  0.00  0.00    +0.060 A 
ATOM      4  C   UNL     1     -11.347  15.041  67.119  0.00  0.00    +0.205 A 
ATOM      5  C   UNL     1     -10.613  15.755  68.061  0.00  0.00    +0.136 A 
ATOM      6  C   UNL     1     -10.916  15.484  69.387  0.00  0.00    +0.086 A 
ATOM      7  O   UNL     1     -11.071  15.285  65.905  0.00  0.00    -0.286 OA
ATOM      8  C   UNL     1     -11.820  12.715  66.526  0.00  0.00    +0.036 A 
ATOM      9  C   UNL     1     -11.380  11.429  66.842  0.00  0.00    +0.157 A 
ATOM     10  F   UNL     1     -10.478  10.871  65.972  0.00  0.00    -0.203 F 
ATOM     11  N   UNL     1     -11.568  14.349  69.694  0.00  0.00    -0.325 N 
ATOM     12  C   UNL     1     -11.349  11.066  68.188  0.00  0.00    +0.112 A 
ENDROOT
BRANCH  12  13
ATOM     13  N   UNL     1     -10.545   9.977  68.667  0.00  0.00    -0.302 N 
ATOM     14  C   UNL     1     -10.321   8.702  68.059  0.00  0.00    +0.108 C 
ATOM     15  C   UNL     1      -8.697   8.641  67.973  0.00  0.00    +0.094 C 
ATOM     16  C   UNL     1      -8.592   8.946  69.645  0.00  0.00    +0.038 C 
ATOM     17  C   UNL     1      -7.238   9.836  69.566  0.00  0.00    +0.005 C 
ATOM     18  C   UNL     1      -6.479   9.475  68.341  0.00  0.00    +0.019 C 
ATOM     19  C   UNL     1      -7.140  10.239  67.195  0.00  0.00    +0.089 C 
ATOM     20  N   UNL     1      -8.561  10.126  67.507  0.00  0.00    -0.218 NA
ATOM     21  C   UNL     1      -9.534  10.247  69.619  0.00  0.00    +0.092 C 
ENDBRANCH  12  13
BRANCH   5  22
ATOM     22  C   UNL     1      -9.618  16.720  67.644  0.00  0.00    +0.392 C 
ATOM     23  O   UNL     1     -10.017  18.056  67.532  0.00  0.00    -0.240 OA
ATOM     24  O   UNL     1      -8.444  16.522  68.078  0.00  0.00    -0.240 OA
ENDBRANCH   5  22
BRANCH  11  25
ATOM     25  C   UNL     1     -12.156  14.092  71.005  0.00  0.00    +0.086 C 
ATOM     26  C   UNL     1     -13.335  15.079  71.244  0.00  0.00    +0.024 C 
ATOM     27  C   UNL     1     -12.032  15.321  71.942  0.00  0.00    +0.024 C 
ENDBRANCH  11  25
BRANCH   1  29
ATOM     28  C   UNL     1     -12.814  10.846  70.852  0.00  0.00    +0.253 C 
ATOM     29  O   UNL     1     -12.009  11.705  70.429  0.00  0.00    -0.469 OA
ENDBRANCH   1  29
TORSDOF 4
ENDMDL
MODEL 8
REMARK VINA RESULT:      -6.4      2.567      6.748
REMARK  Name = 
REMARK  4 active torsions:
REMARK  status: ('A' for Active; 'I' for Inactive)
REMARK    1  A    between atoms: O_2  and  C_3
REMARK    2  A    between atoms: C_4  and  N_5
REMARK    3  A    between atoms: C_20  and  C_21
REMARK    4  A    between atoms: N_25  and  C_26
REMARK                            x       y       z     vdW  Elec       q    Type
REMARK                         _______ _______ _______ _____ _____    ______ ____
ROOT
ATOM      1  C   UNL     1      -8.598  14.635  68.014  0.00  0.00    +0.170 A 
ATOM      2  C   UNL     1      -8.425  16.008  68.158  0.00  0.00    +0.099 A 
ATOM      3  C   UNL     1      -9.416  16.768  68.765  0.00  0.00    +0.060 A 
ATOM      4  C   UNL     1      -9.515  18.124  68.470  0.00  0.00    +0.205 A 
ATOM      5  C   UNL     1      -8.919  18.589  67.301  0.00  0.00    +0.136 A 
ATOM      6  C   UNL     1      -7.774  17.913  66.904  0.00  0.00    +0.086 A 
ATOM      7  O   UNL     1     -10.563  18.738  68.836  0.00  0.00    -0.286 OA
ATOM      8  C   UNL     1     -10.439  16.046  69.370  0.00  0.00    +0.036 A 
ATOM      9  C   UNL     1     -10.790  14.766  68.939  0.00  0.00    +0.157 A 
ATOM     10  F   UNL     1     -12.118  14.568  68.660  0.00  0.00    -0.203 F 
ATOM     11  N   UNL     1      -7.529  16.687  67.398  0.00  0.00    -0.325 N 
ATOM     12  C   UNL     1      -9.827  14.025  68.254  0.00  0.00    +0.112 A 
ENDROOT
BRANCH  12  13
ATOM     13  N   UNL     1     -10.174  12.917  67.411  0.00  0.00    -0.302 N 
ATOM     14  C   UNL     1     -11.313  12.056  67.497  0.00  0.00    +0.108 C 
ATOM     15  C   UNL     1     -11.960  12.188  66.010  0.00  0.00    +0.094 C 
ATOM     16  C   UNL     1     -10.468  11.750  65.316  0.00  0.00    +0.038 C 
ATOM     17  C   UNL     1     -10.603  12.707  64.014  0.00  0.00    +0.005 C 
ATOM     18  C   UNL     1     -12.038  12.982  63.749  0.00  0.00    +0.019 C 
ATOM     19  C   UNL     1     -12.437  14.101  64.709  0.00  0.00    +0.089 C 
ATOM     20  N   UNL     1     -11.747  13.734  65.940  0.00  0.00    -0.218 NA
ATOM     21  C   UNL     1      -9.604  12.840  66.119  0.00  0.00    +0.092 C 
ENDBRANCH  12  13
BRANCH   5  22
ATOM     22  C   UNL     1      -9.479  19.714  66.585  0.00  0.00    +0.392 C 
ATOM     23  O   UNL     1     -10.563  19.468  65.735  0.00  0.00    -0.240 OA
ATOM     24  O   UNL     1      -9.503  20.812  67.218  0.00  0.00    -0.240 OA
ENDBRANCH   5  22
BRANCH  11  25
ATOM     25  C   UNL     1      -6.247  16.005  67.251  0.00  0.00    +0.086 C 
ATOM     26  C   UNL     1      -5.244  16.560  68.304  0.00  0.00    +0.024 C 
ATOM     27  C   UNL     1      -5.111  16.992  66.875  0.00  0.00    +0.024 C 
ENDBRANCH  11  25
BRANCH   1  29
ATOM     28  C   UNL     1      -6.847  13.069  68.273  0.00  0.00    +0.253 C 
ATOM     29  O   UNL     1      -7.492  13.917  67.617  0.00  0.00    -0.469 OA
ENDBRANCH   1  29
TORSDOF 4
ENDMDL
MODEL 9
REMARK VINA RESULT:      -6.3      2.377      3.306
REMARK  Name = 
REMARK  4 active torsions:
REMARK  status: ('A' for Active; 'I' for Inactive)
REMARK    1  A    between atoms: O_2  and  C_3
REMARK    2  A    between atoms: C_4  and  N_5
REMARK    3  A    between atoms: C_20  and  C_21
REMARK    4  A    between atoms: N_25  and  C_26
REMARK                            x       y       z     vdW  Elec       q    Type
REMARK                         _______ _______ _______ _____ _____    ______ ____
ROOT
ATOM      1  C   UNL     1     -10.487  12.426  68.380  0.00  0.00    +0.170 A 
ATOM      2  C   UNL     1     -10.776  11.163  68.886  0.00  0.00    +0.099 A 
ATOM      3  C   UNL     1     -11.683  11.028  69.930  0.00  0.00    +0.060 A 
ATOM      4  C   UNL     1     -11.603   9.918  70.765  0.00  0.00    +0.205 A 
ATOM      5  C   UNL     1     -10.407   9.209  70.805  0.00  0.00    +0.136 A 
ATOM      6  C   UNL     1      -9.680   9.193  69.623  0.00  0.00    +0.086 A 
ATOM      7  O   UNL     1     -12.269   9.936  71.844  0.00  0.00    -0.286 OA
ATOM      8  C   UNL     1     -12.393  12.177  70.258  0.00  0.00    +0.036 A 
ATOM      9  C   UNL     1     -11.879  13.452  70.020  0.00  0.00    +0.157 A 
ATOM     10  F   UNL     1     -11.873  14.309  71.092  0.00  0.00    -0.203 F 
ATOM     11  N   UNL     1      -9.938  10.116  68.680  0.00  0.00    -0.325 N 
ATOM     12  C   UNL     1     -10.905  13.585  69.030  0.00  0.00    +0.112 A 
ENDROOT
BRANCH  12  13
ATOM     13  N   UNL     1     -10.016  14.711  68.980  0.00  0.00    -0.302 N 
ATOM     14  C   UNL     1      -8.714  14.792  68.396  0.00  0.00    +0.108 C 
ATOM     15  C   UNL     1      -8.868  16.051  67.378  0.00  0.00    +0.094 C 
ATOM     16  C   UNL     1      -9.413  17.028  68.662  0.00  0.00    +0.038 C 
ATOM     17  C   UNL     1     -10.464  17.893  67.779  0.00  0.00    +0.005 C 
ATOM     18  C   UNL     1     -10.048  17.871  66.353  0.00  0.00    +0.019 C 
ATOM     19  C   UNL     1     -10.546  16.543  65.788  0.00  0.00    +0.089 C 
ATOM     20  N   UNL     1     -10.280  15.607  66.876  0.00  0.00    -0.218 NA
ATOM     21  C   UNL     1     -10.553  16.009  69.153  0.00  0.00    +0.092 C 
ENDBRANCH  12  13
BRANCH   5  22
ATOM     22  C   UNL     1      -9.989   8.533  72.016  0.00  0.00    +0.392 C 
ATOM     23  O   UNL     1     -10.414   7.213  72.201  0.00  0.00    -0.240 OA
ATOM     24  O   UNL     1      -8.821   8.808  72.423  0.00  0.00    -0.240 OA
ENDBRANCH   5  22
BRANCH  11  25
ATOM     25  C   UNL     1      -9.422  10.034  67.318  0.00  0.00    +0.086 C 
ATOM     26  C   UNL     1     -10.147   8.885  66.559  0.00  0.00    +0.024 C 
ATOM     27  C   UNL     1      -8.745   8.667  67.040  0.00  0.00    +0.024 C 
ENDBRANCH  11  25
BRANCH   1  29
ATOM     28  C   UNL     1     -10.195  12.588  66.040  0.00  0.00    +0.253 C 
ATOM     29  O   UNL     1      -9.764  12.467  67.209  0.00  0.00    -0.469 OA
ENDBRANCH   1  29
TORSDOF 4
ENDMDL
