MODEL 1
REMARK VINA RESULT:      -8.1      0.000      0.000
REMARK  Name = 
REMARK  13 active torsions:
REMARK  status: ('A' for Active; 'I' for Inactive)
REMARK    1  A    between atoms: C_2  and  O_3
REMARK    2  A    between atoms: O_3  and  C_4
REMARK    3  A    between atoms: C_10  and  C_11
REMARK    4  A    between atoms: C_11  and  O_13
REMARK    5  A    between atoms: O_13  and  C_14
REMARK    6  A    between atoms: C_14  and  O_16
REMARK    7  A    between atoms: O_16  and  C_17
REMARK    8  A    between atoms: C_17  and  O_19
REMARK    9  A    between atoms: O_19  and  C_20
REMARK   10  A    between atoms: N_27  and  C_28
REMARK   11  A    between atoms: C_28  and  C_29
REMARK   12  A    between atoms: C_32  and  C_33
REMARK   13  A    between atoms: C_38  and  C_39
REMARK                            x       y       z     vdW  Elec       q    Type
REMARK                         _______ _______ _______ _____ _____    ______ ____
ROOT
ATOM      1  C   UNL     1     -11.931  13.586  70.011  0.00  0.00    +0.301 A 
ATOM      2  N   UNL     1     -11.596  12.697  69.044  0.00  0.00    -0.277 N 
ATOM      3  C   UNL     1     -10.359  13.016  68.580  0.00  0.00    +0.088 A 
ATOM      4  C   UNL     1     -10.108  14.291  69.075  0.00  0.00    +0.102 A 
ATOM      5  C   UNL     1      -8.873  14.822  68.739  0.00  0.00    +0.021 A 
ATOM      6  C   UNL     1      -8.157  14.294  67.672  0.00  0.00    +0.002 A 
ATOM      7  C   UNL     1      -8.676  13.217  66.962  0.00  0.00    +0.008 A 
ATOM      8  C   UNL     1      -9.845  12.579  67.361  0.00  0.00    +0.093 A 
ATOM      9  N   UNL     1     -11.032  14.600  70.019  0.00  0.00    -0.194 NA
ENDROOT
BRANCH   8  10
ATOM     10  C   UNL     1     -10.738  11.919  66.395  0.00  0.00    +0.345 C 
ATOM     11  O   UNL     1     -10.594  10.751  65.991  0.00  0.00    -0.245 OA
BRANCH  10  12
ATOM     12  O   UNL     1     -11.720  12.625  65.689  0.00  0.00    -0.410 OA
BRANCH  12  13
ATOM     13  C   UNL     1     -11.042  13.356  64.456  0.00  0.00    +0.348 C 
ATOM     14  C   UNL     1     -12.262  12.833  63.403  0.00  0.00    +0.100 C 
BRANCH  13  15
ATOM     15  O   UNL     1     -11.770  14.738  64.699  0.00  0.00    -0.382 OA
BRANCH  15  16
ATOM     16  C   UNL     1     -10.927  15.821  64.816  0.00  0.00    +0.514 C 
ATOM     17  O   UNL     1     -11.412  16.772  64.120  0.00  0.00    -0.203 OA
BRANCH  16  18
ATOM     18  O   UNL     1     -10.609  16.221  66.119  0.00  0.00    -0.422 OA
BRANCH  18  19
ATOM     19  C   UNL     1     -10.179  17.512  66.442  0.00  0.00    +0.172 C 
ATOM     20  C   UNL     1     -10.561  17.934  67.849  0.00  0.00    +0.044 C 
ATOM     21  C   UNL     1     -10.179  19.402  67.998  0.00  0.00    +0.004 C 
ATOM     22  C   UNL     1      -9.483  19.918  66.744  0.00  0.00    +0.000 C 
ATOM     23  C   UNL     1      -8.263  19.065  66.464  0.00  0.00    +0.004 C 
ATOM     24  C   UNL     1      -8.696  17.614  66.276  0.00  0.00    +0.044 C 
ENDBRANCH  18  19
ENDBRANCH  16  18
ENDBRANCH  15  16
ENDBRANCH  13  15
ENDBRANCH  12  13
ENDBRANCH  10  12
ENDBRANCH   8  10
BRANCH   1  25
ATOM     25  O   UNL     1     -13.224  13.573  70.547  0.00  0.00    -0.448 OA
BRANCH  25  27
ATOM     26  C   UNL     1     -13.342  14.230  72.708  0.00  0.00    +0.051 C 
ATOM     27  C   UNL     1     -13.466  13.361  71.914  0.00  0.00    +0.209 C 
ENDBRANCH  25  27
ENDBRANCH   1  25
BRANCH   2  28
ATOM     28  C   UNL     1     -11.986  11.286  69.104  0.00  0.00    +0.137 C 
BRANCH  28  29
ATOM     29  C   UNL     1     -11.188  10.615  70.180  0.00  0.00    +0.001 A 
ATOM     30  C   UNL     1      -9.957  10.028  69.909  0.00  0.00    -0.002 A 
ATOM     31  C   UNL     1      -9.538   8.870  70.555  0.00  0.00    -0.000 A 
ATOM     32  C   UNL     1     -10.315   8.327  71.567  0.00  0.00    -0.001 A 
ATOM     33  C   UNL     1     -11.509   8.917  71.896  0.00  0.00    -0.000 A 
ATOM     34  C   UNL     1     -11.791  10.155  71.346  0.00  0.00    -0.002 A 
BRANCH  32  35
ATOM     35  C   UNL     1     -10.126   6.957  72.060  0.00  0.00    -0.006 A 
ATOM     36  C   UNL     1      -9.380   6.855  73.228  0.00  0.00    -0.015 A 
ATOM     37  C   UNL     1      -9.553   5.768  74.077  0.00  0.00    -0.007 A 
ATOM     38  C   UNL     1     -10.737   5.043  74.034  0.00  0.00    -0.001 A 
ATOM     39  C   UNL     1     -11.380   5.027  72.802  0.00  0.00    -0.000 A 
ATOM     40  C   UNL     1     -11.221   6.105  71.969  0.00  0.00    -0.001 A 
BRANCH  36  41
ATOM     41  C   UNL     1      -8.235   7.733  73.484  0.00  0.00    +0.044 A 
ATOM     42  N   UNL     1      -7.112   7.810  72.730  0.00  0.00    -0.289 NA
ATOM     43  N   UNL     1      -6.322   8.717  73.299  0.00  0.00    -0.218 NA
ATOM     44  N   UNL     1      -6.941   9.262  74.344  0.00  0.00    -0.218 NA
ATOM     45  N   UNL     1      -7.933   8.433  74.603  0.00  0.00    -0.289 NA
ENDBRANCH  36  41
ENDBRANCH  32  35
ENDBRANCH  28  29
ENDBRANCH   2  28
TORSDOF 13
ENDMDL
MODEL 2
REMARK VINA RESULT:      -8.0      1.866      2.253
REMARK  Name = 
REMARK  13 active torsions:
REMARK  status: ('A' for Active; 'I' for Inactive)
REMARK    1  A    between atoms: C_2  and  O_3
REMARK    2  A    between atoms: O_3  and  C_4
REMARK    3  A    between atoms: C_10  and  C_11
REMARK    4  A    between atoms: C_11  and  O_13
REMARK    5  A    between atoms: O_13  and  C_14
REMARK    6  A    between atoms: C_14  and  O_16
REMARK    7  A    between atoms: O_16  and  C_17
REMARK    8  A    between atoms: C_17  and  O_19
REMARK    9  A    between atoms: O_19  and  C_20
REMARK   10  A    between atoms: N_27  and  C_28
REMARK   11  A    between atoms: C_28  and  C_29
REMARK   12  A    between atoms: C_32  and  C_33
REMARK   13  A    between atoms: C_38  and  C_39
REMARK                            x       y       z     vdW  Elec       q    Type
REMARK                         _______ _______ _______ _____ _____    ______ ____
ROOT
ATOM      1  C   UNL     1     -11.818  13.637  69.713  0.00  0.00    +0.301 A 
ATOM      2  N   UNL     1     -11.485  12.699  68.792  0.00  0.00    -0.277 N 
ATOM      3  C   UNL     1     -10.213  12.939  68.378  0.00  0.00    +0.088 A 
ATOM      4  C   UNL     1      -9.918  14.216  68.844  0.00  0.00    +0.102 A 
ATOM      5  C   UNL     1      -8.643  14.671  68.551  0.00  0.00    +0.021 A 
ATOM      6  C   UNL     1      -7.906  14.071  67.537  0.00  0.00    +0.002 A 
ATOM      7  C   UNL     1      -8.448  12.998  66.838  0.00  0.00    +0.008 A 
ATOM      8  C   UNL     1      -9.666  12.434  67.200  0.00  0.00    +0.093 A 
ATOM      9  N   UNL     1     -10.868  14.604  69.731  0.00  0.00    -0.194 NA
ENDROOT
BRANCH   8  10
ATOM     10  C   UNL     1     -10.547  11.787  66.215  0.00  0.00    +0.345 C 
ATOM     11  O   UNL     1     -10.350  10.657  65.732  0.00  0.00    -0.245 OA
BRANCH  10  12
ATOM     12  O   UNL     1     -11.584  12.480  65.578  0.00  0.00    -0.410 OA
BRANCH  12  13
ATOM     13  C   UNL     1     -10.991  13.265  64.333  0.00  0.00    +0.348 C 
ATOM     14  C   UNL     1     -12.259  12.750  63.334  0.00  0.00    +0.100 C 
BRANCH  13  15
ATOM     15  O   UNL     1     -11.731  14.623  64.662  0.00  0.00    -0.382 OA
BRANCH  15  16
ATOM     16  C   UNL     1     -10.905  15.720  64.763  0.00  0.00    +0.514 C 
ATOM     17  O   UNL     1     -11.431  16.669  64.096  0.00  0.00    -0.203 OA
BRANCH  16  18
ATOM     18  O   UNL     1     -10.548  16.111  66.059  0.00  0.00    -0.422 OA
BRANCH  18  19
ATOM     19  C   UNL     1     -10.154  17.413  66.387  0.00  0.00    +0.172 C 
ATOM     20  C   UNL     1     -10.578  17.831  67.782  0.00  0.00    +0.044 C 
ATOM     21  C   UNL     1     -10.232  19.308  67.935  0.00  0.00    +0.004 C 
ATOM     22  C   UNL     1      -9.518  19.834  66.695  0.00  0.00    +0.000 C 
ATOM     23  C   UNL     1      -8.274  19.008  66.447  0.00  0.00    +0.004 C 
ATOM     24  C   UNL     1      -8.671  17.546  66.255  0.00  0.00    +0.044 C 
ENDBRANCH  18  19
ENDBRANCH  16  18
ENDBRANCH  15  16
ENDBRANCH  13  15
ENDBRANCH  12  13
ENDBRANCH  10  12
ENDBRANCH   8  10
BRANCH   1  25
ATOM     25  O   UNL     1     -13.133  13.709  70.185  0.00  0.00    -0.448 OA
BRANCH  25  27
ATOM     26  C   UNL     1     -13.626  13.464  72.379  0.00  0.00    +0.051 C 
ATOM     27  C   UNL     1     -13.443  14.195  71.466  0.00  0.00    +0.209 C 
ENDBRANCH  25  27
ENDBRANCH   1  25
BRANCH   2  28
ATOM     28  C   UNL     1     -11.951  11.313  68.878  0.00  0.00    +0.137 C 
BRANCH  28  29
ATOM     29  C   UNL     1     -11.410  10.704  70.137  0.00  0.00    +0.001 A 
ATOM     30  C   UNL     1     -10.148  10.120  70.173  0.00  0.00    -0.002 A 
ATOM     31  C   UNL     1      -9.881   9.001  70.953  0.00  0.00    -0.000 A 
ATOM     32  C   UNL     1     -10.862   8.497  71.794  0.00  0.00    -0.001 A 
ATOM     33  C   UNL     1     -12.100   9.088  71.822  0.00  0.00    -0.000 A 
ATOM     34  C   UNL     1     -12.255  10.294  71.162  0.00  0.00    -0.002 A 
BRANCH  32  35
ATOM     35  C   UNL     1     -10.785   7.155  72.384  0.00  0.00    -0.006 A 
ATOM     36  C   UNL     1     -10.153   6.204  71.592  0.00  0.00    -0.015 A 
ATOM     37  C   UNL     1      -9.545   5.098  72.175  0.00  0.00    -0.007 A 
ATOM     38  C   UNL     1      -9.157   5.150  73.508  0.00  0.00    -0.001 A 
ATOM     39  C   UNL     1      -9.916   5.988  74.316  0.00  0.00    -0.000 A 
ATOM     40  C   UNL     1     -10.505   7.087  73.744  0.00  0.00    -0.001 A 
BRANCH  36  41
ATOM     41  C   UNL     1     -10.309   6.196  70.135  0.00  0.00    +0.044 A 
ATOM     42  N   UNL     1     -11.487   6.245  69.465  0.00  0.00    -0.289 NA
ATOM     43  N   UNL     1     -11.197   6.213  68.167  0.00  0.00    -0.218 NA
ATOM     44  N   UNL     1      -9.876   6.216  67.999  0.00  0.00    -0.218 NA
ATOM     45  N   UNL     1      -9.397   5.889  69.183  0.00  0.00    -0.289 NA
ENDBRANCH  36  41
ENDBRANCH  32  35
ENDBRANCH  28  29
ENDBRANCH   2  28
TORSDOF 13
ENDMDL
MODEL 3
REMARK VINA RESULT:      -7.8      3.704      8.648
REMARK  Name = 
REMARK  13 active torsions:
REMARK  status: ('A' for Active; 'I' for Inactive)
REMARK    1  A    between atoms: C_2  and  O_3
REMARK    2  A    between atoms: O_3  and  C_4
REMARK    3  A    between atoms: C_10  and  C_11
REMARK    4  A    between atoms: C_11  and  O_13
REMARK    5  A    between atoms: O_13  and  C_14
REMARK    6  A    between atoms: C_14  and  O_16
REMARK    7  A    between atoms: O_16  and  C_17
REMARK    8  A    between atoms: C_17  and  O_19
REMARK    9  A    between atoms: O_19  and  C_20
REMARK   10  A    between atoms: N_27  and  C_28
REMARK   11  A    between atoms: C_28  and  C_29
REMARK   12  A    between atoms: C_32  and  C_33
REMARK   13  A    between atoms: C_38  and  C_39
REMARK                            x       y       z     vdW  Elec       q    Type
REMARK                         _______ _______ _______ _____ _____    ______ ____
ROOT
ATOM      1  C   UNL     1     -11.589  13.381  64.844  0.00  0.00    +0.301 A 
ATOM      2  N   UNL     1     -11.264  12.886  66.063  0.00  0.00    -0.277 N 
ATOM      3  C   UNL     1     -10.440  11.819  65.886  0.00  0.00    +0.088 A 
ATOM      4  C   UNL     1     -10.538  11.510  64.534  0.00  0.00    +0.102 A 
ATOM      5  C   UNL     1      -9.755  10.448  64.113  0.00  0.00    +0.021 A 
ATOM      6  C   UNL     1      -9.260   9.539  65.040  0.00  0.00    +0.002 A 
ATOM      7  C   UNL     1      -9.535   9.718  66.391  0.00  0.00    +0.008 A 
ATOM      8  C   UNL     1     -10.203  10.846  66.854  0.00  0.00    +0.093 A 
ATOM      9  N   UNL     1     -11.173  12.518  63.885  0.00  0.00    -0.194 NA
ENDROOT
BRANCH   8  10
ATOM     10  C   UNL     1     -11.039  10.813  68.065  0.00  0.00    +0.345 C 
ATOM     11  O   UNL     1     -12.269  11.001  68.074  0.00  0.00    -0.245 OA
BRANCH  10  12
ATOM     12  O   UNL     1     -10.484  10.766  69.350  0.00  0.00    -0.410 OA
BRANCH  12  13
ATOM     13  C   UNL     1     -10.998   9.457  70.085  0.00  0.00    +0.348 C 
ATOM     14  C   UNL     1      -9.496   9.219  70.832  0.00  0.00    +0.100 C 
BRANCH  13  15
ATOM     15  O   UNL     1     -11.564  10.223  71.347  0.00  0.00    -0.382 OA
BRANCH  15  16
ATOM     16  C   UNL     1     -12.798  10.806  71.162  0.00  0.00    +0.514 C 
ATOM     17  O   UNL     1     -13.654   9.874  71.015  0.00  0.00    -0.203 OA
BRANCH  16  18
ATOM     18  O   UNL     1     -13.191  11.745  72.124  0.00  0.00    -0.422 OA
BRANCH  18  19
ATOM     19  C   UNL     1     -12.987  13.122  71.980  0.00  0.00    +0.172 C 
ATOM     20  C   UNL     1     -12.340  13.493  70.659  0.00  0.00    +0.044 C 
ATOM     21  C   UNL     1     -12.032  14.985  70.714  0.00  0.00    +0.004 C 
ATOM     22  C   UNL     1     -12.541  15.604  72.010  0.00  0.00    +0.000 C 
ATOM     23  C   UNL     1     -14.029  15.352  72.133  0.00  0.00    +0.004 C 
ATOM     24  C   UNL     1     -14.287  13.847  72.121  0.00  0.00    +0.044 C 
ENDBRANCH  18  19
ENDBRANCH  16  18
ENDBRANCH  15  16
ENDBRANCH  13  15
ENDBRANCH  12  13
ENDBRANCH  10  12
ENDBRANCH   8  10
BRANCH   1  25
ATOM     25  O   UNL     1     -12.553  14.389  64.739  0.00  0.00    -0.448 OA
BRANCH  25  27
ATOM     26  C   UNL     1     -11.334  16.285  64.551  0.00  0.00    +0.051 C 
ATOM     27  C   UNL     1     -12.263  15.649  64.188  0.00  0.00    +0.209 C 
ENDBRANCH  25  27
ENDBRANCH   1  25
BRANCH   2  28
ATOM     28  C   UNL     1     -11.066  13.745  67.233  0.00  0.00    +0.137 C 
BRANCH  28  29
ATOM     29  C   UNL     1      -9.613  14.098  67.327  0.00  0.00    +0.001 A 
ATOM     30  C   UNL     1      -8.959  14.152  68.553  0.00  0.00    -0.002 A 
ATOM     31  C   UNL     1      -7.959  15.082  68.811  0.00  0.00    -0.000 A 
ATOM     32  C   UNL     1      -7.524  15.924  67.798  0.00  0.00    -0.001 A 
ATOM     33  C   UNL     1      -8.112  15.856  66.560  0.00  0.00    -0.000 A 
ATOM     34  C   UNL     1      -8.974  14.802  66.312  0.00  0.00    -0.002 A 
BRANCH  32  35
ATOM     35  C   UNL     1      -6.733  17.133  68.060  0.00  0.00    -0.006 A 
ATOM     36  C   UNL     1      -7.468  18.227  68.502  0.00  0.00    -0.015 A 
ATOM     37  C   UNL     1      -6.861  19.215  69.269  0.00  0.00    -0.007 A 
ATOM     38  C   UNL     1      -5.702  18.922  69.976  0.00  0.00    -0.001 A 
ATOM     39  C   UNL     1      -4.900  17.934  69.420  0.00  0.00    -0.000 A 
ATOM     40  C   UNL     1      -5.500  16.950  68.674  0.00  0.00    -0.001 A 
BRANCH  36  41
ATOM     41  C   UNL     1      -8.811  18.505  67.985  0.00  0.00    +0.044 A 
ATOM     42  N   UNL     1      -9.105  19.319  66.942  0.00  0.00    -0.289 NA
ATOM     43  N   UNL     1     -10.427  19.304  66.796  0.00  0.00    -0.218 NA
ATOM     44  N   UNL     1     -10.967  18.454  67.668  0.00  0.00    -0.218 NA
ATOM     45  N   UNL     1     -10.012  18.246  68.554  0.00  0.00    -0.289 NA
ENDBRANCH  36  41
ENDBRANCH  32  35
ENDBRANCH  28  29
ENDBRANCH   2  28
TORSDOF 13
ENDMDL
MODEL 4
REMARK VINA RESULT:      -7.7      3.548      8.361
REMARK  Name = 
REMARK  13 active torsions:
REMARK  status: ('A' for Active; 'I' for Inactive)
REMARK    1  A    between atoms: C_2  and  O_3
REMARK    2  A    between atoms: O_3  and  C_4
REMARK    3  A    between atoms: C_10  and  C_11
REMARK    4  A    between atoms: C_11  and  O_13
REMARK    5  A    between atoms: O_13  and  C_14
REMARK    6  A    between atoms: C_14  and  O_16
REMARK    7  A    between atoms: O_16  and  C_17
REMARK    8  A    between atoms: C_17  and  O_19
REMARK    9  A    between atoms: O_19  and  C_20
REMARK   10  A    between atoms: N_27  and  C_28
REMARK   11  A    between atoms: C_28  and  C_29
REMARK   12  A    between atoms: C_32  and  C_33
REMARK   13  A    between atoms: C_38  and  C_39
REMARK                            x       y       z     vdW  Elec       q    Type
REMARK                         _______ _______ _______ _____ _____    ______ ____
ROOT
ATOM      1  C   UNL     1     -10.615  11.510  64.416  0.00  0.00    +0.301 A 
ATOM      2  N   UNL     1     -10.356  11.172  65.704  0.00  0.00    -0.277 N 
ATOM      3  C   UNL     1      -9.128  10.591  65.754  0.00  0.00    +0.088 A 
ATOM      4  C   UNL     1      -8.807  10.314  64.430  0.00  0.00    +0.102 A 
ATOM      5  C   UNL     1      -7.568   9.726  64.233  0.00  0.00    +0.021 A 
ATOM      6  C   UNL     1      -6.919   9.103  65.292  0.00  0.00    +0.002 A 
ATOM      7  C   UNL     1      -7.509   9.097  66.551  0.00  0.00    +0.008 A 
ATOM      8  C   UNL     1      -8.683   9.794  66.807  0.00  0.00    +0.093 A 
ATOM      9  N   UNL     1      -9.678  10.954  63.610  0.00  0.00    -0.194 NA
ENDROOT
BRANCH   8  10
ATOM     10  C   UNL     1      -9.642   9.353  67.833  0.00  0.00    +0.345 C 
ATOM     11  O   UNL     1     -10.642   8.649  67.603  0.00  0.00    -0.245 OA
BRANCH  10  12
ATOM     12  O   UNL     1      -9.620   9.861  69.138  0.00  0.00    -0.410 OA
BRANCH  12  13
ATOM     13  C   UNL     1     -10.880   9.308  69.928  0.00  0.00    +0.348 C 
ATOM     14  C   UNL     1      -9.900   8.673  71.156  0.00  0.00    +0.100 C 
BRANCH  13  15
ATOM     15  O   UNL     1     -11.127  10.640  70.741  0.00  0.00    -0.382 OA
BRANCH  15  16
ATOM     16  C   UNL     1     -12.094  11.467  70.213  0.00  0.00    +0.514 C 
ATOM     17  O   UNL     1     -12.813  10.774  69.422  0.00  0.00    -0.203 OA
BRANCH  16  18
ATOM     18  O   UNL     1     -12.860  12.192  71.134  0.00  0.00    -0.422 OA
BRANCH  18  19
ATOM     19  C   UNL     1     -12.673  13.556  71.383  0.00  0.00    +0.172 C 
ATOM     20  C   UNL     1     -12.437  14.365  70.121  0.00  0.00    +0.044 C 
ATOM     21  C   UNL     1     -12.087  15.784  70.554  0.00  0.00    +0.004 C 
ATOM     22  C   UNL     1     -12.171  15.930  72.069  0.00  0.00    +0.000 C 
ATOM     23  C   UNL     1     -13.562  15.549  72.531  0.00  0.00    +0.004 C 
ATOM     24  C   UNL     1     -13.852  14.109  72.117  0.00  0.00    +0.044 C 
ENDBRANCH  18  19
ENDBRANCH  16  18
ENDBRANCH  15  16
ENDBRANCH  13  15
ENDBRANCH  12  13
ENDBRANCH  10  12
ENDBRANCH   8  10
BRANCH   1  25
ATOM     25  O   UNL     1     -11.883  11.986  64.066  0.00  0.00    -0.448 OA
BRANCH  25  27
ATOM     26  C   UNL     1     -12.438  14.171  64.251  0.00  0.00    +0.051 C 
ATOM     27  C   UNL     1     -12.084  13.279  63.557  0.00  0.00    +0.209 C 
ENDBRANCH  25  27
ENDBRANCH   1  25
BRANCH   2  28
ATOM     28  C   UNL     1     -10.797  11.991  66.835  0.00  0.00    +0.137 C 
BRANCH  28  29
ATOM     29  C   UNL     1      -9.808  13.099  67.038  0.00  0.00    +0.001 A 
ATOM     30  C   UNL     1      -9.378  13.461  68.310  0.00  0.00    -0.002 A 
ATOM     31  C   UNL     1      -9.098  14.782  68.641  0.00  0.00    -0.000 A 
ATOM     32  C   UNL     1      -9.154  15.763  67.664  0.00  0.00    -0.001 A 
ATOM     33  C   UNL     1      -9.521  15.427  66.385  0.00  0.00    -0.000 A 
ATOM     34  C   UNL     1      -9.617  14.083  66.073  0.00  0.00    -0.002 A 
BRANCH  32  35
ATOM     35  C   UNL     1      -9.204  17.196  67.983  0.00  0.00    -0.006 A 
ATOM     36  C   UNL     1      -8.114  17.932  67.536  0.00  0.00    -0.015 A 
ATOM     37  C   UNL     1      -8.244  19.293  67.284  0.00  0.00    -0.007 A 
ATOM     38  C   UNL     1      -9.500  19.829  67.027  0.00  0.00    -0.001 A 
ATOM     39  C   UNL     1     -10.563  19.164  67.625  0.00  0.00    -0.000 A 
ATOM     40  C   UNL     1     -10.441  17.818  67.861  0.00  0.00    -0.001 A 
BRANCH  36  41
ATOM     41  C   UNL     1      -6.758  17.376  67.549  0.00  0.00    +0.044 A 
ATOM     42  N   UNL     1      -6.135  16.786  66.500  0.00  0.00    -0.289 NA
ATOM     43  N   UNL     1      -4.928  16.417  66.921  0.00  0.00    -0.218 NA
ATOM     44  N   UNL     1      -4.747  16.818  68.178  0.00  0.00    -0.218 NA
ATOM     45  N   UNL     1      -5.962  17.099  68.608  0.00  0.00    -0.289 NA
ENDBRANCH  36  41
ENDBRANCH  32  35
ENDBRANCH  28  29
ENDBRANCH   2  28
TORSDOF 13
ENDMDL
MODEL 5
REMARK VINA RESULT:      -7.6      3.734      6.841
REMARK  Name = 
REMARK  13 active torsions:
REMARK  status: ('A' for Active; 'I' for Inactive)
REMARK    1  A    between atoms: C_2  and  O_3
REMARK    2  A    between atoms: O_3  and  C_4
REMARK    3  A    between atoms: C_10  and  C_11
REMARK    4  A    between atoms: C_11  and  O_13
REMARK    5  A    between atoms: O_13  and  C_14
REMARK    6  A    between atoms: C_14  and  O_16
REMARK    7  A    between atoms: O_16  and  C_17
REMARK    8  A    between atoms: C_17  and  O_19
REMARK    9  A    between atoms: O_19  and  C_20
REMARK   10  A    between atoms: N_27  and  C_28
REMARK   11  A    between atoms: C_28  and  C_29
REMARK   12  A    between atoms: C_32  and  C_33
REMARK   13  A    between atoms: C_38  and  C_39
REMARK                            x       y       z     vdW  Elec       q    Type
REMARK                         _______ _______ _______ _____ _____    ______ ____
ROOT
ATOM      1  C   UNL     1     -10.660  15.953  65.160  0.00  0.00    +0.301 A 
ATOM      2  N   UNL     1      -9.691  16.126  66.092  0.00  0.00    -0.277 N 
ATOM      3  C   UNL     1      -9.770  17.400  66.560  0.00  0.00    +0.088 A 
ATOM      4  C   UNL     1     -10.602  18.061  65.663  0.00  0.00    +0.102 A 
ATOM      5  C   UNL     1     -10.845  19.393  65.957  0.00  0.00    +0.021 A 
ATOM      6  C   UNL     1     -10.001  20.081  66.819  0.00  0.00    +0.002 A 
ATOM      7  C   UNL     1      -8.927  19.417  67.403  0.00  0.00    +0.008 A 
ATOM      8  C   UNL     1      -8.738  18.050  67.233  0.00  0.00    +0.093 A 
ATOM      9  N   UNL     1     -11.212  17.154  64.859  0.00  0.00    -0.194 NA
ENDROOT
BRANCH   8  10
ATOM     10  C   UNL     1      -7.399  17.441  67.264  0.00  0.00    +0.345 C 
ATOM     11  O   UNL     1      -6.862  16.976  68.286  0.00  0.00    -0.245 OA
BRANCH  10  12
ATOM     12  O   UNL     1      -6.524  17.515  66.173  0.00  0.00    -0.410 OA
BRANCH  12  13
ATOM     13  C   UNL     1      -5.201  18.265  66.625  0.00  0.00    +0.348 C 
ATOM     14  C   UNL     1      -4.431  17.909  65.158  0.00  0.00    +0.100 C 
BRANCH  13  15
ATOM     15  O   UNL     1      -5.661  19.683  66.100  0.00  0.00    -0.382 OA
BRANCH  15  16
ATOM     16  C   UNL     1      -5.481  20.715  66.994  0.00  0.00    +0.514 C 
ATOM     17  O   UNL     1      -5.810  21.800  66.412  0.00  0.00    -0.203 OA
BRANCH  16  18
ATOM     18  O   UNL     1      -6.099  20.570  68.242  0.00  0.00    -0.422 OA
BRANCH  18  19
ATOM     19  C   UNL     1      -5.416  20.696  69.456  0.00  0.00    +0.172 C 
ATOM     20  C   UNL     1      -5.760  19.603  70.451  0.00  0.00    +0.044 C 
ATOM     21  C   UNL     1      -5.078  19.960  71.766  0.00  0.00    +0.004 C 
ATOM     22  C   UNL     1      -4.232  21.220  71.621  0.00  0.00    +0.000 C 
ATOM     23  C   UNL     1      -3.213  21.013  70.520  0.00  0.00    +0.004 C 
ATOM     24  C   UNL     1      -3.940  20.704  69.214  0.00  0.00    +0.044 C 
ENDBRANCH  18  19
ENDBRANCH  16  18
ENDBRANCH  15  16
ENDBRANCH  13  15
ENDBRANCH  12  13
ENDBRANCH  10  12
ENDBRANCH   8  10
BRANCH   1  25
ATOM     25  O   UNL     1     -10.698  14.774  64.408  0.00  0.00    -0.448 OA
BRANCH  25  27
ATOM     26  C   UNL     1     -11.889  13.013  63.635  0.00  0.00    +0.051 C 
ATOM     27  C   UNL     1     -11.878  14.030  64.239  0.00  0.00    +0.209 C 
ENDBRANCH  25  27
ENDBRANCH   1  25
BRANCH   2  28
ATOM     28  C   UNL     1      -9.285  15.059  67.010  0.00  0.00    +0.137 C 
BRANCH  28  29
ATOM     29  C   UNL     1     -10.473  14.655  67.829  0.00  0.00    +0.001 A 
ATOM     30  C   UNL     1     -10.662  15.141  69.119  0.00  0.00    -0.002 A 
ATOM     31  C   UNL     1     -11.227  14.360  70.121  0.00  0.00    -0.000 A 
ATOM     32  C   UNL     1     -11.705  13.094  69.820  0.00  0.00    -0.001 A 
ATOM     33  C   UNL     1     -11.584  12.609  68.542  0.00  0.00    -0.000 A 
ATOM     34  C   UNL     1     -11.177  13.488  67.554  0.00  0.00    -0.002 A 
BRANCH  32  35
ATOM     35  C   UNL     1     -12.001  12.094  70.853  0.00  0.00    -0.006 A 
ATOM     36  C   UNL     1     -13.156  12.336  71.587  0.00  0.00    -0.015 A 
ATOM     37  C   UNL     1     -13.837  11.284  72.190  0.00  0.00    -0.007 A 
ATOM     38  C   UNL     1     -13.668   9.991  71.710  0.00  0.00    -0.001 A 
ATOM     39  C   UNL     1     -12.435   9.730  71.126  0.00  0.00    -0.000 A 
ATOM     40  C   UNL     1     -11.768  10.765  70.519  0.00  0.00    -0.001 A 
BRANCH  36  41
ATOM     41  C   UNL     1     -13.556  13.697  71.957  0.00  0.00    +0.044 A 
ATOM     42  N   UNL     1     -13.141  14.373  73.055  0.00  0.00    -0.289 NA
ATOM     43  N   UNL     1     -13.733  15.564  73.026  0.00  0.00    -0.218 NA
ATOM     44  N   UNL     1     -14.451  15.684  71.910  0.00  0.00    -0.218 NA
ATOM     45  N   UNL     1     -14.570  14.448  71.466  0.00  0.00    -0.289 NA
ENDBRANCH  36  41
ENDBRANCH  32  35
ENDBRANCH  28  29
ENDBRANCH   2  28
TORSDOF 13
ENDMDL
MODEL 6
REMARK VINA RESULT:      -7.6      3.440      9.072
REMARK  Name = 
REMARK  13 active torsions:
REMARK  status: ('A' for Active; 'I' for Inactive)
REMARK    1  A    between atoms: C_2  and  O_3
REMARK    2  A    between atoms: O_3  and  C_4
REMARK    3  A    between atoms: C_10  and  C_11
REMARK    4  A    between atoms: C_11  and  O_13
REMARK    5  A    between atoms: O_13  and  C_14
REMARK    6  A    between atoms: C_14  and  O_16
REMARK    7  A    between atoms: O_16  and  C_17
REMARK    8  A    between atoms: C_17  and  O_19
REMARK    9  A    between atoms: O_19  and  C_20
REMARK   10  A    between atoms: N_27  and  C_28
REMARK   11  A    between atoms: C_28  and  C_29
REMARK   12  A    between atoms: C_32  and  C_33
REMARK   13  A    between atoms: C_38  and  C_39
REMARK                            x       y       z     vdW  Elec       q    Type
REMARK                         _______ _______ _______ _____ _____    ______ ____
ROOT
ATOM      1  C   UNL     1     -11.668  13.762  67.659  0.00  0.00    +0.301 A 
ATOM      2  N   UNL     1     -10.822  12.727  67.432  0.00  0.00    -0.277 N 
ATOM      3  C   UNL     1     -10.849  12.436  66.105  0.00  0.00    +0.088 A 
ATOM      4  C   UNL     1     -11.957  13.114  65.610  0.00  0.00    +0.102 A 
ATOM      5  C   UNL     1     -12.175  12.975  64.249  0.00  0.00    +0.021 A 
ATOM      6  C   UNL     1     -11.585  11.927  63.554  0.00  0.00    +0.002 A 
ATOM      7  C   UNL     1     -10.757  11.036  64.228  0.00  0.00    +0.008 A 
ATOM      8  C   UNL     1     -10.414  11.229  65.561  0.00  0.00    +0.093 A 
ATOM      9  N   UNL     1     -12.404  13.991  66.544  0.00  0.00    -0.194 NA
ENDROOT
BRANCH   8  10
ATOM     10  C   UNL     1     -10.110  10.101  66.457  0.00  0.00    +0.345 C 
ATOM     11  O   UNL     1     -10.949   9.534  67.180  0.00  0.00    -0.245 OA
BRANCH  10  12
ATOM     12  O   UNL     1      -8.796   9.698  66.724  0.00  0.00    -0.410 OA
BRANCH  12  13
ATOM     13  C   UNL     1      -8.829   8.451  67.705  0.00  0.00    +0.348 C 
ATOM     14  C   UNL     1      -7.445   7.783  66.992  0.00  0.00    +0.100 C 
BRANCH  13  15
ATOM     15  O   UNL     1      -7.975   9.147  68.839  0.00  0.00    -0.382 OA
BRANCH  15  16
ATOM     16  C   UNL     1      -8.576   9.176  70.077  0.00  0.00    +0.514 C 
ATOM     17  O   UNL     1      -7.694   9.510  70.934  0.00  0.00    -0.203 OA
BRANCH  16  18
ATOM     18  O   UNL     1      -9.741   9.947  70.183  0.00  0.00    -0.422 OA
BRANCH  18  19
ATOM     19  C   UNL     1     -10.873   9.533  70.894  0.00  0.00    +0.172 C 
ATOM     20  C   UNL     1     -12.057  10.466  70.724  0.00  0.00    +0.044 C 
ATOM     21  C   UNL     1     -13.148   9.986  71.675  0.00  0.00    +0.004 C 
ATOM     22  C   UNL     1     -12.724   8.712  72.397  0.00  0.00    +0.000 C 
ATOM     23  C   UNL     1     -12.387   7.647  71.375  0.00  0.00    +0.004 C 
ATOM     24  C   UNL     1     -11.262   8.151  70.476  0.00  0.00    +0.044 C 
ENDBRANCH  18  19
ENDBRANCH  16  18
ENDBRANCH  15  16
ENDBRANCH  13  15
ENDBRANCH  12  13
ENDBRANCH  10  12
ENDBRANCH   8  10
BRANCH   1  25
ATOM     25  O   UNL     1     -11.944  14.158  68.972  0.00  0.00    -0.448 OA
BRANCH  25  27
ATOM     26  C   UNL     1     -11.593  15.864  70.415  0.00  0.00    +0.051 C 
ATOM     27  C   UNL     1     -11.982  15.509  69.355  0.00  0.00    +0.209 C 
ENDBRANCH  25  27
ENDBRANCH   1  25
BRANCH   2  28
ATOM     28  C   UNL     1      -9.565  12.565  68.166  0.00  0.00    +0.137 C 
BRANCH  28  29
ATOM     29  C   UNL     1      -8.746  13.808  67.992  0.00  0.00    +0.001 A 
ATOM     30  C   UNL     1      -8.281  14.527  69.088  0.00  0.00    -0.002 A 
ATOM     31  C   UNL     1      -8.183  15.914  69.067  0.00  0.00    -0.000 A 
ATOM     32  C   UNL     1      -8.463  16.606  67.899  0.00  0.00    -0.001 A 
ATOM     33  C   UNL     1      -8.870  15.918  66.784  0.00  0.00    -0.000 A 
ATOM     34  C   UNL     1      -8.783  14.538  66.809  0.00  0.00    -0.002 A 
BRANCH  32  35
ATOM     35  C   UNL     1      -8.709  18.054  67.877  0.00  0.00    -0.006 A 
ATOM     36  C   UNL     1      -7.969  18.757  66.934  0.00  0.00    -0.015 A 
ATOM     37  C   UNL     1      -8.441  19.965  66.433  0.00  0.00    -0.007 A 
ATOM     38  C   UNL     1      -9.799  20.252  66.495  0.00  0.00    -0.001 A 
ATOM     39  C   UNL     1     -10.484  19.664  67.551  0.00  0.00    -0.000 A 
ATOM     40  C   UNL     1     -10.027  18.464  68.036  0.00  0.00    -0.001 A 
BRANCH  36  41
ATOM     41  C   UNL     1      -6.585  18.393  66.620  0.00  0.00    +0.044 A 
ATOM     42  N   UNL     1      -5.491  18.751  67.334  0.00  0.00    -0.289 NA
ATOM     43  N   UNL     1      -4.435  18.225  66.719  0.00  0.00    -0.218 NA
ATOM     44  N   UNL     1      -4.836  17.491  65.683  0.00  0.00    -0.218 NA
ATOM     45  N   UNL     1      -6.081  17.873  65.476  0.00  0.00    -0.289 NA
ENDBRANCH  36  41
ENDBRANCH  32  35
ENDBRANCH  28  29
ENDBRANCH   2  28
TORSDOF 13
ENDMDL
MODEL 7
REMARK VINA RESULT:      -7.5      3.468      9.457
REMARK  Name = 
REMARK  13 active torsions:
REMARK  status: ('A' for Active; 'I' for Inactive)
REMARK    1  A    between atoms: C_2  and  O_3
REMARK    2  A    between atoms: O_3  and  C_4
REMARK    3  A    between atoms: C_10  and  C_11
REMARK    4  A    between atoms: C_11  and  O_13
REMARK    5  A    between atoms: O_13  and  C_14
REMARK    6  A    between atoms: C_14  and  O_16
REMARK    7  A    between atoms: O_16  and  C_17
REMARK    8  A    between atoms: C_17  and  O_19
REMARK    9  A    between atoms: O_19  and  C_20
REMARK   10  A    between atoms: N_27  and  C_28
REMARK   11  A    between atoms: C_28  and  C_29
REMARK   12  A    between atoms: C_32  and  C_33
REMARK   13  A    between atoms: C_38  and  C_39
REMARK                            x       y       z     vdW  Elec       q    Type
REMARK                         _______ _______ _______ _____ _____    ______ ____
ROOT
ATOM      1  C   UNL     1     -10.970  15.178  69.566  0.00  0.00    +0.301 A 
ATOM      2  N   UNL     1      -9.865  14.696  68.945  0.00  0.00    -0.277 N 
ATOM      3  C   UNL     1     -10.198  14.374  67.668  0.00  0.00    +0.088 A 
ATOM      4  C   UNL     1     -11.588  14.385  67.645  0.00  0.00    +0.102 A 
ATOM      5  C   UNL     1     -12.161  14.098  66.416  0.00  0.00    +0.021 A 
ATOM      6  C   UNL     1     -11.416  13.457  65.435  0.00  0.00    +0.002 A 
ATOM      7  C   UNL     1     -10.088  13.128  65.686  0.00  0.00    +0.008 A 
ATOM      8  C   UNL     1      -9.450  13.524  66.856  0.00  0.00    +0.093 A 
ATOM      9  N   UNL     1     -12.054  14.961  68.782  0.00  0.00    -0.194 NA
ENDROOT
BRANCH   8  10
ATOM     10  C   UNL     1      -8.355  12.738  67.448  0.00  0.00    +0.345 C 
ATOM     11  O   UNL     1      -7.165  12.815  67.093  0.00  0.00    -0.245 OA
BRANCH  10  12
ATOM     12  O   UNL     1      -8.594  11.679  68.333  0.00  0.00    -0.410 OA
BRANCH  12  13
ATOM     13  C   UNL     1      -9.055  10.409  67.502  0.00  0.00    +0.348 C 
ATOM     14  C   UNL     1      -7.865   9.439  68.221  0.00  0.00    +0.100 C 
BRANCH  13  15
ATOM     15  O   UNL     1     -10.142   9.945  68.552  0.00  0.00    -0.382 OA
BRANCH  15  16
ATOM     16  C   UNL     1     -11.017  10.932  68.949  0.00  0.00    +0.514 C 
ATOM     17  O   UNL     1     -12.003  10.928  68.142  0.00  0.00    -0.203 OA
BRANCH  16  18
ATOM     18  O   UNL     1     -11.423  10.899  70.289  0.00  0.00    -0.422 OA
BRANCH  18  19
ATOM     19  C   UNL     1     -11.978   9.766  70.894  0.00  0.00    +0.172 C 
ATOM     20  C   UNL     1     -10.985   8.999  71.747  0.00  0.00    +0.044 C 
ATOM     21  C   UNL     1     -11.676   7.718  72.200  0.00  0.00    +0.004 C 
ATOM     22  C   UNL     1     -13.124   7.679  71.726  0.00  0.00    +0.000 C 
ATOM     23  C   UNL     1     -13.852   8.901  72.244  0.00  0.00    +0.004 C 
ATOM     24  C   UNL     1     -13.155  10.158  71.729  0.00  0.00    +0.044 C 
ENDBRANCH  18  19
ENDBRANCH  16  18
ENDBRANCH  15  16
ENDBRANCH  13  15
ENDBRANCH  12  13
ENDBRANCH  10  12
ENDBRANCH   8  10
BRANCH   1  25
ATOM     25  O   UNL     1     -10.937  15.439  70.940  0.00  0.00    -0.448 OA
BRANCH  25  27
ATOM     26  C   UNL     1     -12.287  15.734  72.730  0.00  0.00    +0.051 C 
ATOM     27  C   UNL     1     -12.016  16.030  71.617  0.00  0.00    +0.209 C 
ENDBRANCH  25  27
ENDBRANCH   1  25
BRANCH   2  28
ATOM     28  C   UNL     1      -8.523  15.216  69.216  0.00  0.00    +0.137 C 
BRANCH  28  29
ATOM     29  C   UNL     1      -8.279  16.397  68.327  0.00  0.00    +0.001 A 
ATOM     30  C   UNL     1      -7.233  16.408  67.409  0.00  0.00    -0.002 A 
ATOM     31  C   UNL     1      -6.529  17.570  67.114  0.00  0.00    -0.000 A 
ATOM     32  C   UNL     1      -6.928  18.776  67.669  0.00  0.00    -0.001 A 
ATOM     33  C   UNL     1      -7.992  18.806  68.534  0.00  0.00    -0.000 A 
ATOM     34  C   UNL     1      -8.758  17.661  68.655  0.00  0.00    -0.002 A 
BRANCH  32  35
ATOM     35  C   UNL     1      -6.064  19.964  67.682  0.00  0.00    -0.006 A 
ATOM     36  C   UNL     1      -4.945  19.863  68.500  0.00  0.00    -0.015 A 
ATOM     37  C   UNL     1      -3.811  20.620  68.232  0.00  0.00    -0.007 A 
ATOM     38  C   UNL     1      -3.598  21.110  66.950  0.00  0.00    -0.001 A 
ATOM     39  C   UNL     1      -4.747  21.359  66.210  0.00  0.00    -0.000 A 
ATOM     40  C   UNL     1      -5.863  20.602  66.464  0.00  0.00    -0.001 A 
BRANCH  36  41
ATOM     41  C   UNL     1      -4.998  19.161  69.786  0.00  0.00    +0.044 A 
ATOM     42  N   UNL     1      -5.268  19.729  70.987  0.00  0.00    -0.289 NA
ATOM     43  N   UNL     1      -5.216  18.759  71.896  0.00  0.00    -0.218 NA
ATOM     44  N   UNL     1      -4.992  17.591  71.298  0.00  0.00    -0.218 NA
ATOM     45  N   UNL     1      -4.558  17.919  70.096  0.00  0.00    -0.289 NA
ENDBRANCH  36  41
ENDBRANCH  32  35
ENDBRANCH  28  29
ENDBRANCH   2  28
TORSDOF 13
ENDMDL
MODEL 8
REMARK VINA RESULT:      -7.5      2.832      5.399
REMARK  Name = 
REMARK  13 active torsions:
REMARK  status: ('A' for Active; 'I' for Inactive)
REMARK    1  A    between atoms: C_2  and  O_3
REMARK    2  A    between atoms: O_3  and  C_4
REMARK    3  A    between atoms: C_10  and  C_11
REMARK    4  A    between atoms: C_11  and  O_13
REMARK    5  A    between atoms: O_13  and  C_14
REMARK    6  A    between atoms: C_14  and  O_16
REMARK    7  A    between atoms: O_16  and  C_17
REMARK    8  A    between atoms: C_17  and  O_19
REMARK    9  A    between atoms: O_19  and  C_20
REMARK   10  A    between atoms: N_27  and  C_28
REMARK   11  A    between atoms: C_28  and  C_29
REMARK   12  A    between atoms: C_32  and  C_33
REMARK   13  A    between atoms: C_38  and  C_39
REMARK                            x       y       z     vdW  Elec       q    Type
REMARK                         _______ _______ _______ _____ _____    ______ ____
ROOT
ATOM      1  C   UNL     1      -9.448  10.389  64.801  0.00  0.00    +0.301 A 
ATOM      2  N   UNL     1      -9.362  11.209  65.877  0.00  0.00    -0.277 N 
ATOM      3  C   UNL     1     -10.523  11.909  65.976  0.00  0.00    +0.088 A 
ATOM      4  C   UNL     1     -11.168  11.708  64.760  0.00  0.00    +0.102 A 
ATOM      5  C   UNL     1     -12.403  12.324  64.639  0.00  0.00    +0.021 A 
ATOM      6  C   UNL     1     -12.746  13.368  65.489  0.00  0.00    +0.002 A 
ATOM      7  C   UNL     1     -11.852  13.772  66.475  0.00  0.00    +0.008 A 
ATOM      8  C   UNL     1     -10.666  13.086  66.706  0.00  0.00    +0.093 A 
ATOM      9  N   UNL     1     -10.550  10.711  64.079  0.00  0.00    -0.194 NA
ENDROOT
BRANCH   8  10
ATOM     10  C   UNL     1      -9.467  13.761  67.230  0.00  0.00    +0.345 C 
ATOM     11  O   UNL     1      -9.011  13.593  68.376  0.00  0.00    -0.245 OA
BRANCH  10  12
ATOM     12  O   UNL     1      -8.848  14.814  66.544  0.00  0.00    -0.410 OA
BRANCH  12  13
ATOM     13  C   UNL     1      -8.614  16.017  67.551  0.00  0.00    +0.348 C 
ATOM     14  C   UNL     1      -8.245  17.079  66.283  0.00  0.00    +0.100 C 
BRANCH  13  15
ATOM     15  O   UNL     1     -10.126  16.477  67.568  0.00  0.00    -0.382 OA
BRANCH  15  16
ATOM     16  C   UNL     1     -10.631  16.749  68.820  0.00  0.00    +0.514 C 
ATOM     17  O   UNL     1     -10.448  17.988  69.057  0.00  0.00    -0.203 OA
BRANCH  16  18
ATOM     18  O   UNL     1     -11.953  16.350  69.055  0.00  0.00    -0.422 OA
BRANCH  18  19
ATOM     19  C   UNL     1     -12.344  15.615  70.180  0.00  0.00    +0.172 C 
ATOM     20  C   UNL     1     -12.127  14.122  70.022  0.00  0.00    +0.044 C 
ATOM     21  C   UNL     1     -12.744  13.446  71.241  0.00  0.00    +0.004 C 
ATOM     22  C   UNL     1     -13.284  14.477  72.225  0.00  0.00    +0.000 C 
ATOM     23  C   UNL     1     -12.166  15.412  72.632  0.00  0.00    +0.004 C 
ATOM     24  C   UNL     1     -11.609  16.101  71.388  0.00  0.00    +0.044 C 
ENDBRANCH  18  19
ENDBRANCH  16  18
ENDBRANCH  15  16
ENDBRANCH  13  15
ENDBRANCH  12  13
ENDBRANCH  10  12
ENDBRANCH   8  10
BRANCH   1  25
ATOM     25  O   UNL     1      -8.323   9.670  64.384  0.00  0.00    -0.448 OA
BRANCH  25  27
ATOM     26  C   UNL     1      -7.951   7.539  63.722  0.00  0.00    +0.051 C 
ATOM     27  C   UNL     1      -8.192   8.289  64.605  0.00  0.00    +0.209 C 
ENDBRANCH  25  27
ENDBRANCH   1  25
BRANCH   2  28
ATOM     28  C   UNL     1      -8.662  10.824  67.104  0.00  0.00    +0.137 C 
BRANCH  28  29
ATOM     29  C   UNL     1      -9.596  10.017  67.954  0.00  0.00    +0.001 A 
ATOM     30  C   UNL     1      -9.998  10.461  69.209  0.00  0.00    -0.002 A 
ATOM     31  C   UNL     1     -10.213   9.582  70.264  0.00  0.00    -0.000 A 
ATOM     32  C   UNL     1     -10.119   8.215  70.052  0.00  0.00    -0.001 A 
ATOM     33  C   UNL     1      -9.778   7.744  68.809  0.00  0.00    -0.000 A 
ATOM     34  C   UNL     1      -9.747   8.648  67.762  0.00  0.00    -0.002 A 
BRANCH  32  35
ATOM     35  C   UNL     1      -9.998   7.251  71.152  0.00  0.00    -0.006 A 
ATOM     36  C   UNL     1     -11.205   6.742  71.617  0.00  0.00    -0.015 A 
ATOM     37  C   UNL     1     -11.249   5.498  72.235  0.00  0.00    -0.007 A 
ATOM     38  C   UNL     1     -10.241   4.574  71.994  0.00  0.00    -0.001 A 
ATOM     39  C   UNL     1      -8.998   5.115  71.691  0.00  0.00    -0.000 A 
ATOM     40  C   UNL     1      -8.953   6.337  71.069  0.00  0.00    -0.001 A 
BRANCH  36  41
ATOM     41  C   UNL     1     -12.406   7.578  71.699  0.00  0.00    +0.044 A 
ATOM     42  N   UNL     1     -12.571   8.651  72.510  0.00  0.00    -0.289 NA
ATOM     43  N   UNL     1     -13.793   9.126  72.285  0.00  0.00    -0.218 NA
ATOM     44  N   UNL     1     -14.375   8.429  71.311  0.00  0.00    -0.218 NA
ATOM     45  N   UNL     1     -13.647   7.334  71.214  0.00  0.00    -0.289 NA
ENDBRANCH  36  41
ENDBRANCH  32  35
ENDBRANCH  28  29
ENDBRANCH   2  28
TORSDOF 13
ENDMDL
MODEL 9
REMARK VINA RESULT:      -7.4      3.460      9.076
REMARK  Name = 
REMARK  13 active torsions:
REMARK  status: ('A' for Active; 'I' for Inactive)
REMARK    1  A    between atoms: C_2  and  O_3
REMARK    2  A    between atoms: O_3  and  C_4
REMARK    3  A    between atoms: C_10  and  C_11
REMARK    4  A    between atoms: C_11  and  O_13
REMARK    5  A    between atoms: O_13  and  C_14
REMARK    6  A    between atoms: C_14  and  O_16
REMARK    7  A    between atoms: O_16  and  C_17
REMARK    8  A    between atoms: C_17  and  O_19
REMARK    9  A    between atoms: O_19  and  C_20
REMARK   10  A    between atoms: N_27  and  C_28
REMARK   11  A    between atoms: C_28  and  C_29
REMARK   12  A    between atoms: C_32  and  C_33
REMARK   13  A    between atoms: C_38  and  C_39
REMARK                            x       y       z     vdW  Elec       q    Type
REMARK                         _______ _______ _______ _____ _____    ______ ____
ROOT
ATOM      1  C   UNL     1     -11.425  13.080  67.776  0.00  0.00    +0.301 A 
ATOM      2  N   UNL     1     -10.328  12.532  67.198  0.00  0.00    -0.277 N 
ATOM      3  C   UNL     1     -10.581  12.364  65.873  0.00  0.00    +0.088 A 
ATOM      4  C   UNL     1     -11.955  12.537  65.746  0.00  0.00    +0.102 A 
ATOM      5  C   UNL     1     -12.447  12.427  64.455  0.00  0.00    +0.021 A 
ATOM      6  C   UNL     1     -11.692  11.794  63.475  0.00  0.00    +0.002 A 
ATOM      7  C   UNL     1     -10.434  11.295  63.794  0.00  0.00    +0.008 A 
ATOM      8  C   UNL     1      -9.861  11.510  65.041  0.00  0.00    +0.093 A 
ATOM      9  N   UNL     1     -12.454  13.058  66.895  0.00  0.00    -0.194 NA
ENDROOT
BRANCH   8  10
ATOM     10  C   UNL     1      -8.911  10.555  65.636  0.00  0.00    +0.345 C 
ATOM     11  O   UNL     1      -7.701  10.785  65.811  0.00  0.00    -0.245 OA
BRANCH  10  12
ATOM     12  O   UNL     1      -9.252   9.217  65.871  0.00  0.00    -0.410 OA
BRANCH  12  13
ATOM     13  C   UNL     1     -10.159   9.137  67.170  0.00  0.00    +0.348 C 
ATOM     14  C   UNL     1     -10.490   7.496  66.906  0.00  0.00    +0.100 C 
BRANCH  13  15
ATOM     15  O   UNL     1      -8.966   8.793  68.149  0.00  0.00    -0.382 OA
BRANCH  15  16
ATOM     16  C   UNL     1      -9.041   9.399  69.383  0.00  0.00    +0.514 C 
ATOM     17  O   UNL     1      -8.058  10.204  69.484  0.00  0.00    -0.203 OA
BRANCH  16  18
ATOM     18  O   UNL     1     -10.262  10.004  69.704  0.00  0.00    -0.422 OA
BRANCH  18  19
ATOM     19  C   UNL     1     -11.191   9.438  70.583  0.00  0.00    +0.172 C 
ATOM     20  C   UNL     1     -10.545   8.765  71.780  0.00  0.00    +0.044 C 
ATOM     21  C   UNL     1     -11.654   8.058  72.551  0.00  0.00    +0.004 C 
ATOM     22  C   UNL     1     -13.017   8.328  71.923  0.00  0.00    +0.000 C 
ATOM     23  C   UNL     1     -13.257   9.822  71.875  0.00  0.00    +0.004 C 
ATOM     24  C   UNL     1     -12.151  10.482  71.056  0.00  0.00    +0.044 C 
ENDBRANCH  18  19
ENDBRANCH  16  18
ENDBRANCH  15  16
ENDBRANCH  13  15
ENDBRANCH  12  13
ENDBRANCH  10  12
ENDBRANCH   8  10
BRANCH   1  25
ATOM     25  O   UNL     1     -11.482  13.212  69.168  0.00  0.00    -0.448 OA
BRANCH  25  27
ATOM     26  C   UNL     1     -12.025  15.384  69.491  0.00  0.00    +0.051 C 
ATOM     27  C   UNL     1     -12.191  14.252  69.793  0.00  0.00    +0.209 C 
ENDBRANCH  25  27
ENDBRANCH   1  25
BRANCH   2  28
ATOM     28  C   UNL     1      -8.966  12.868  67.620  0.00  0.00    +0.137 C 
BRANCH  28  29
ATOM     29  C   UNL     1      -8.866  14.356  67.772  0.00  0.00    +0.001 A 
ATOM     30  C   UNL     1      -8.660  15.183  66.673  0.00  0.00    -0.002 A 
ATOM     31  C   UNL     1      -7.890  16.338  66.759  0.00  0.00    -0.000 A 
ATOM     32  C   UNL     1      -7.385  16.739  67.986  0.00  0.00    -0.001 A 
ATOM     33  C   UNL     1      -7.620  15.973  69.099  0.00  0.00    -0.000 A 
ATOM     34  C   UNL     1      -8.531  14.937  68.990  0.00  0.00    -0.002 A 
BRANCH  32  35
ATOM     35  C   UNL     1      -6.310  17.731  68.113  0.00  0.00    -0.006 A 
ATOM     36  C   UNL     1      -6.711  18.967  68.604  0.00  0.00    -0.015 A 
ATOM     37  C   UNL     1      -5.802  19.789  69.261  0.00  0.00    -0.007 A 
ATOM     38  C   UNL     1      -4.663  19.235  69.833  0.00  0.00    -0.001 A 
ATOM     39  C   UNL     1      -4.187  18.085  69.217  0.00  0.00    -0.000 A 
ATOM     40  C   UNL     1      -5.086  17.266  68.580  0.00  0.00    -0.001 A 
BRANCH  36  41
ATOM     41  C   UNL     1      -8.006  19.550  68.243  0.00  0.00    +0.044 A 
ATOM     42  N   UNL     1      -8.232  20.401  67.213  0.00  0.00    -0.289 NA
ATOM     43  N   UNL     1      -9.529  20.697  67.229  0.00  0.00    -0.218 NA
ATOM     44  N   UNL     1     -10.137  20.007  68.192  0.00  0.00    -0.218 NA
ATOM     45  N   UNL     1      -9.153  19.587  68.962  0.00  0.00    -0.289 NA
ENDBRANCH  36  41
ENDBRANCH  32  35
ENDBRANCH  28  29
ENDBRANCH   2  28
TORSDOF 13
ENDMDL
