MODEL 1
REMARK VINA RESULT:      -3.8      0.000      0.000
REMARK  Name = 
REMARK  4 active torsions:
REMARK  status: ('A' for Active; 'I' for Inactive)
REMARK    1  A    between atoms: SD_2  and  CG_3
REMARK    2  A    between atoms: CG_3  and  CB_4
REMARK    3  A    between atoms: CB_4  and  CA_5
REMARK    4  A    between atoms: CA_5  and  C_7
REMARK                            x       y       z     vdW  Elec       q    Type
REMARK                         _______ _______ _______ _____ _____    ______ ____
ROOT
ATOM      1  CA  MET A   1     -12.235  14.862  72.545  0.00  0.00    +0.195 C 
ATOM      2  N   MET A   1     -13.600  14.049  72.772  0.00  0.00    -0.121 NA
ENDROOT
BRANCH   1   3
ATOM      3  C   MET A   1     -12.788  16.122  73.446  0.00  0.00    +0.382 C 
ATOM      4  OXT MET A   1     -14.136  16.296  73.110  0.00  0.00    -0.244 OA
ATOM      5  O   MET A   1     -12.606  15.927  74.685  0.00  0.00    -0.244 OA
ENDBRANCH   1   3
BRANCH   1   6
ATOM      6  CB  MET A   1     -12.833  15.540  71.133  0.00  0.00    +0.042 C 
BRANCH   6   7
ATOM      7  CG  MET A   1     -11.511  16.042  70.564  0.00  0.00    +0.060 C 
BRANCH   7   9
ATOM      8  CE  MET A   1     -10.527  17.268  68.089  0.00  0.00    +0.069 C 
ATOM      9  SD  MET A   1     -11.462  15.895  68.774  0.00  0.00    -0.139 S 
ENDBRANCH   7   9
ENDBRANCH   6   7
ENDBRANCH   1   6
TORSDOF 4
ENDMDL
MODEL 2
REMARK VINA RESULT:      -3.8      1.866      2.227
REMARK  Name = 
REMARK  4 active torsions:
REMARK  status: ('A' for Active; 'I' for Inactive)
REMARK    1  A    between atoms: SD_2  and  CG_3
REMARK    2  A    between atoms: CG_3  and  CB_4
REMARK    3  A    between atoms: CB_4  and  CA_5
REMARK    4  A    between atoms: CA_5  and  C_7
REMARK                            x       y       z     vdW  Elec       q    Type
REMARK                         _______ _______ _______ _____ _____    ______ ____
ROOT
ATOM      1  CA  MET A   1     -13.519  15.159  71.328  0.00  0.00    +0.195 C 
ATOM      2  N   MET A   1     -14.369  16.029  72.376  0.00  0.00    -0.121 NA
ENDROOT
BRANCH   1   3
ATOM      3  C   MET A   1     -13.239  13.997  72.459  0.00  0.00    +0.382 C 
ATOM      4  OXT MET A   1     -12.992  14.662  73.666  0.00  0.00    -0.244 OA
ATOM      5  O   MET A   1     -14.200  13.175  72.533  0.00  0.00    -0.244 OA
ENDBRANCH   1   3
BRANCH   1   6
ATOM      6  CB  MET A   1     -12.113  15.974  71.740  0.00  0.00    +0.042 C 
BRANCH   6   7
ATOM      7  CG  MET A   1     -11.195  15.347  70.698  0.00  0.00    +0.060 C 
BRANCH   7   9
ATOM      8  CE  MET A   1     -11.727  14.305  68.009  0.00  0.00    +0.069 C 
ATOM      9  SD  MET A   1     -11.693  15.785  69.027  0.00  0.00    -0.139 S 
ENDBRANCH   7   9
ENDBRANCH   6   7
ENDBRANCH   1   6
TORSDOF 4
ENDMDL
MODEL 3
REMARK VINA RESULT:      -3.7      6.321      7.103
REMARK  Name = 
REMARK  4 active torsions:
REMARK  status: ('A' for Active; 'I' for Inactive)
REMARK    1  A    between atoms: SD_2  and  CG_3
REMARK    2  A    between atoms: CG_3  and  CB_4
REMARK    3  A    between atoms: CB_4  and  CA_5
REMARK    4  A    between atoms: CA_5  and  C_7
REMARK                            x       y       z     vdW  Elec       q    Type
REMARK                         _______ _______ _______ _____ _____    ______ ____
ROOT
ATOM      1  CA  MET A   1     -10.477  15.272  64.929  0.00  0.00    +0.195 C 
ATOM      2  N   MET A   1     -11.214  16.580  64.361  0.00  0.00    -0.121 NA
ENDROOT
BRANCH   1   3
ATOM      3  C   MET A   1     -11.864  14.393  64.818  0.00  0.00    +0.382 C 
ATOM      4  OXT MET A   1     -12.386  14.300  66.114  0.00  0.00    -0.244 OA
ATOM      5  O   MET A   1     -12.676  14.904  63.991  0.00  0.00    -0.244 OA
ENDBRANCH   1   3
BRANCH   1   6
ATOM      6  CB  MET A   1     -10.825  15.719  66.507  0.00  0.00    +0.042 C 
BRANCH   6   7
ATOM      7  CG  MET A   1      -9.742  16.779  66.669  0.00  0.00    +0.060 C 
BRANCH   7   9
ATOM      8  CE  MET A   1     -10.497  19.608  66.503  0.00  0.00    +0.069 C 
ATOM      9  SD  MET A   1     -10.336  18.196  67.602  0.00  0.00    -0.139 S 
ENDBRANCH   7   9
ENDBRANCH   6   7
ENDBRANCH   1   6
TORSDOF 4
ENDMDL
MODEL 4
REMARK VINA RESULT:      -3.7      7.029      7.842
REMARK  Name = 
REMARK  4 active torsions:
REMARK  status: ('A' for Active; 'I' for Inactive)
REMARK    1  A    between atoms: SD_2  and  CG_3
REMARK    2  A    between atoms: CG_3  and  CB_4
REMARK    3  A    between atoms: CB_4  and  CA_5
REMARK    4  A    between atoms: CA_5  and  C_7
REMARK                            x       y       z     vdW  Elec       q    Type
REMARK                         _______ _______ _______ _____ _____    ______ ____
ROOT
ATOM      1  CA  MET A   1     -10.768  14.616  65.017  0.00  0.00    +0.195 C 
ATOM      2  N   MET A   1     -10.495  16.193  65.132  0.00  0.00    -0.121 NA
ENDROOT
BRANCH   1   3
ATOM      3  C   MET A   1     -12.256  14.880  64.368  0.00  0.00    +0.382 C 
ATOM      4  OXT MET A   1     -12.224  16.158  63.795  0.00  0.00    -0.244 OA
ATOM      5  O   MET A   1     -12.574  13.974  63.541  0.00  0.00    -0.244 OA
ENDBRANCH   1   3
BRANCH   1   6
ATOM      6  CB  MET A   1     -11.394  14.575  66.571  0.00  0.00    +0.042 C 
BRANCH   6   7
ATOM      7  CG  MET A   1     -11.388  13.063  66.761  0.00  0.00    +0.060 C 
BRANCH   7   9
ATOM      8  CE  MET A   1     -10.384  10.950  64.994  0.00  0.00    +0.069 C 
ATOM      9  SD  MET A   1      -9.911  12.314  66.062  0.00  0.00    -0.139 S 
ENDBRANCH   7   9
ENDBRANCH   6   7
ENDBRANCH   1   6
TORSDOF 4
ENDMDL
MODEL 5
REMARK VINA RESULT:      -3.6      7.243      8.051
REMARK  Name = 
REMARK  4 active torsions:
REMARK  status: ('A' for Active; 'I' for Inactive)
REMARK    1  A    between atoms: SD_2  and  CG_3
REMARK    2  A    between atoms: CG_3  and  CB_4
REMARK    3  A    between atoms: CB_4  and  CA_5
REMARK    4  A    between atoms: CA_5  and  C_7
REMARK                            x       y       z     vdW  Elec       q    Type
REMARK                         _______ _______ _______ _____ _____    ______ ____
ROOT
ATOM      1  CA  MET A   1     -11.750  14.705  65.640  0.00  0.00    +0.195 C 
ATOM      2  N   MET A   1     -12.585  14.253  64.346  0.00  0.00    -0.121 NA
ENDROOT
BRANCH   1   3
ATOM      3  C   MET A   1     -10.811  15.707  64.734  0.00  0.00    +0.382 C 
ATOM      4  OXT MET A   1     -11.684  16.508  63.986  0.00  0.00    -0.244 OA
ATOM      5  O   MET A   1     -10.015  16.380  65.454  0.00  0.00    -0.244 OA
ENDBRANCH   1   3
BRANCH   1   6
ATOM      6  CB  MET A   1     -10.679  13.431  65.436  0.00  0.00    +0.042 C 
BRANCH   6   7
ATOM      7  CG  MET A   1     -11.192  12.939  64.088  0.00  0.00    +0.060 C 
BRANCH   7   9
ATOM      8  CE  MET A   1     -10.030  10.312  64.674  0.00  0.00    +0.069 C 
ATOM      9  SD  MET A   1     -10.174  11.608  63.439  0.00  0.00    -0.139 S 
ENDBRANCH   7   9
ENDBRANCH   6   7
ENDBRANCH   1   6
TORSDOF 4
ENDMDL
MODEL 6
REMARK VINA RESULT:      -3.6      6.942      8.131
REMARK  Name = 
REMARK  4 active torsions:
REMARK  status: ('A' for Active; 'I' for Inactive)
REMARK    1  A    between atoms: SD_2  and  CG_3
REMARK    2  A    between atoms: CG_3  and  CB_4
REMARK    3  A    between atoms: CB_4  and  CA_5
REMARK    4  A    between atoms: CA_5  and  C_7
REMARK                            x       y       z     vdW  Elec       q    Type
REMARK                         _______ _______ _______ _____ _____    ______ ____
ROOT
ATOM      1  CA  MET A   1     -11.405  13.726  64.499  0.00  0.00    +0.195 C 
ATOM      2  N   MET A   1     -12.549  14.758  64.048  0.00  0.00    -0.121 NA
ENDROOT
BRANCH   1   3
ATOM      3  C   MET A   1     -11.941  12.600  63.427  0.00  0.00    +0.382 C 
ATOM      4  OXT MET A   1     -11.014  11.550  63.449  0.00  0.00    -0.244 OA
ATOM      5  O   MET A   1     -13.121  12.224  63.693  0.00  0.00    -0.244 OA
ENDBRANCH   1   3
BRANCH   1   6
ATOM      6  CB  MET A   1     -12.387  13.115  65.713  0.00  0.00    +0.042 C 
BRANCH   6   7
ATOM      7  CG  MET A   1     -11.937  14.044  66.834  0.00  0.00    +0.060 C 
BRANCH   7   9
ATOM      8  CE  MET A   1     -12.186  14.130  69.755  0.00  0.00    +0.069 C 
ATOM      9  SD  MET A   1     -11.634  13.142  68.360  0.00  0.00    -0.139 S 
ENDBRANCH   7   9
ENDBRANCH   6   7
ENDBRANCH   1   6
TORSDOF 4
ENDMDL
MODEL 7
REMARK VINA RESULT:      -3.6      1.862      2.009
REMARK  Name = 
REMARK  4 active torsions:
REMARK  status: ('A' for Active; 'I' for Inactive)
REMARK    1  A    between atoms: SD_2  and  CG_3
REMARK    2  A    between atoms: CG_3  and  CB_4
REMARK    3  A    between atoms: CB_4  and  CA_5
REMARK    4  A    between atoms: CA_5  and  C_7
REMARK                            x       y       z     vdW  Elec       q    Type
REMARK                         _______ _______ _______ _____ _____    ______ ____
ROOT
ATOM      1  CA  MET A   1     -12.701  15.598  71.438  0.00  0.00    +0.195 C 
ATOM      2  N   MET A   1     -11.842  15.511  72.791  0.00  0.00    -0.121 NA
ENDROOT
BRANCH   1   3
ATOM      3  C   MET A   1     -14.082  15.209  72.242  0.00  0.00    +0.382 C 
ATOM      4  OXT MET A   1     -15.145  15.493  71.375  0.00  0.00    -0.244 OA
ATOM      5  O   MET A   1     -14.071  14.004  72.635  0.00  0.00    -0.244 OA
ENDBRANCH   1   3
BRANCH   1   6
ATOM      6  CB  MET A   1     -12.385  13.988  71.093  0.00  0.00    +0.042 C 
BRANCH   6   7
ATOM      7  CG  MET A   1     -12.156  14.136  69.593  0.00  0.00    +0.060 C 
BRANCH   7   9
ATOM      8  CE  MET A   1     -10.837  15.769  67.546  0.00  0.00    +0.069 C 
ATOM      9  SD  MET A   1     -11.612  15.795  69.167  0.00  0.00    -0.139 S 
ENDBRANCH   7   9
ENDBRANCH   6   7
ENDBRANCH   1   6
TORSDOF 4
ENDMDL
MODEL 8
REMARK VINA RESULT:      -3.6      5.903      7.097
REMARK  Name = 
REMARK  4 active torsions:
REMARK  status: ('A' for Active; 'I' for Inactive)
REMARK    1  A    between atoms: SD_2  and  CG_3
REMARK    2  A    between atoms: CG_3  and  CB_4
REMARK    3  A    between atoms: CB_4  and  CA_5
REMARK    4  A    between atoms: CA_5  and  C_7
REMARK                            x       y       z     vdW  Elec       q    Type
REMARK                         _______ _______ _______ _____ _____    ______ ____
ROOT
ATOM      1  CA  MET A   1     -11.355  13.898  65.046  0.00  0.00    +0.195 C 
ATOM      2  N   MET A   1     -12.539  14.526  64.163  0.00  0.00    -0.121 NA
ENDROOT
BRANCH   1   3
ATOM      3  C   MET A   1     -12.076  12.420  65.034  0.00  0.00    +0.382 C 
ATOM      4  OXT MET A   1     -12.040  11.944  66.351  0.00  0.00    -0.244 OA
ATOM      5  O   MET A   1     -13.249  12.475  64.558  0.00  0.00    -0.244 OA
ENDBRANCH   1   3
BRANCH   1   6
ATOM      6  CB  MET A   1     -12.139  14.328  66.465  0.00  0.00    +0.042 C 
BRANCH   6   7
ATOM      7  CG  MET A   1     -11.062  15.246  67.030  0.00  0.00    +0.060 C 
BRANCH   7   9
ATOM      8  CE  MET A   1     -12.081  14.217  69.579  0.00  0.00    +0.069 C 
ATOM      9  SD  MET A   1     -11.372  15.647  68.754  0.00  0.00    -0.139 S 
ENDBRANCH   7   9
ENDBRANCH   6   7
ENDBRANCH   1   6
TORSDOF 4
ENDMDL
MODEL 9
REMARK VINA RESULT:      -3.6      6.503      7.184
REMARK  Name = 
REMARK  4 active torsions:
REMARK  status: ('A' for Active; 'I' for Inactive)
REMARK    1  A    between atoms: SD_2  and  CG_3
REMARK    2  A    between atoms: CG_3  and  CB_4
REMARK    3  A    between atoms: CB_4  and  CA_5
REMARK    4  A    between atoms: CA_5  and  C_7
REMARK                            x       y       z     vdW  Elec       q    Type
REMARK                         _______ _______ _______ _____ _____    ______ ____
ROOT
ATOM      1  CA  MET A   1     -11.211  13.742  64.580  0.00  0.00    +0.195 C 
ATOM      2  N   MET A   1     -12.519  14.508  64.051  0.00  0.00    -0.121 NA
ENDROOT
BRANCH   1   3
ATOM      3  C   MET A   1     -12.115  12.467  65.092  0.00  0.00    +0.382 C 
ATOM      4  OXT MET A   1     -12.113  12.509  66.492  0.00  0.00    -0.244 OA
ATOM      5  O   MET A   1     -13.281  12.490  64.597  0.00  0.00    -0.244 OA
ENDBRANCH   1   3
BRANCH   1   6
ATOM      6  CB  MET A   1     -11.332  14.495  66.073  0.00  0.00    +0.042 C 
BRANCH   6   7
ATOM      7  CG  MET A   1     -10.323  15.611  65.829  0.00  0.00    +0.060 C 
BRANCH   7   9
ATOM      8  CE  MET A   1     -10.319  18.452  66.552  0.00  0.00    +0.069 C 
ATOM      9  SD  MET A   1     -10.278  16.776  67.196  0.00  0.00    -0.139 S 
ENDBRANCH   7   9
ENDBRANCH   6   7
ENDBRANCH   1   6
TORSDOF 4
ENDMDL
