MODEL 1
REMARK VINA RESULT:      -6.7      0.000      0.000
REMARK  Name = 
REMARK  15 active torsions:
REMARK  status: ('A' for Active; 'I' for Inactive)
REMARK    1  A    between atoms: C_2  and  C_3
REMARK    2  A    between atoms: C_3  and  O_5
REMARK    3  A    between atoms: O_5  and  C_6
REMARK    4  A    between atoms: C_6  and  O_7
REMARK    5  A    between atoms: C_6  and  C_37
REMARK    6  A    between atoms: O_7  and  P_8
REMARK    7  A    between atoms: P_8  and  C_10
REMARK    8  A    between atoms: P_8  and  C_20
REMARK    9  A    between atoms: C_10  and  C_11
REMARK   10  A    between atoms: C_11  and  C_12
REMARK   11  A    between atoms: C_12  and  C_13
REMARK   12  A    between atoms: C_13  and  C_14
REMARK   13  A    between atoms: C_20  and  C_21
REMARK   14  A    between atoms: C_25  and  C_26
REMARK   15  A    between atoms: C_33  and  C_34
REMARK                            x       y       z     vdW  Elec       q    Type
REMARK                         _______ _______ _______ _____ _____    ______ ____
ROOT
ATOM      1  P   UNL     1     -11.303  13.039  67.498  0.00  0.00    +0.234 P 
ATOM      2  O   UNL     1     -12.059  11.738  67.270  0.00  0.00    -0.289 OA
ENDROOT
BRANCH   1   3
ATOM      3  C   UNL     1      -9.901  12.587  68.577  0.00  0.00    +0.172 C 
BRANCH   3   4
ATOM      4  C   UNL     1      -9.043  11.561  67.892  0.00  0.00    +0.236 C 
ATOM      5  N   UNL     1      -9.373  10.218  68.276  0.00  0.00    -0.271 N 
ATOM      6  C   UNL     1      -8.305   9.119  67.792  0.00  0.00    +0.179 C 
ATOM      7  C   UNL     1      -9.251   7.843  68.296  0.00  0.00    +0.033 C 
ATOM      8  C   UNL     1     -10.124   8.606  69.466  0.00  0.00    +0.022 C 
ATOM      9  C   UNL     1      -9.034   9.841  69.653  0.00  0.00    +0.094 C 
ATOM     10  O   UNL     1      -7.830  11.936  67.822  0.00  0.00    -0.274 OA
BRANCH   8  11
ATOM     11  C   UNL     1      -9.502   7.672  70.680  0.00  0.00    +0.002 C 
ATOM     12  C   UNL     1     -10.279   6.472  70.877  0.00  0.00    +0.000 C 
ATOM     13  C   UNL     1     -11.403   6.603  71.870  0.00  0.00    +0.000 C 
ATOM     14  C   UNL     1     -10.998   7.383  73.097  0.00  0.00    +0.000 C 
ATOM     15  C   UNL     1      -9.545   7.773  73.088  0.00  0.00    +0.000 C 
ATOM     16  C   UNL     1      -9.203   8.554  71.825  0.00  0.00    +0.000 C 
ENDBRANCH   8  11
BRANCH   6  17
ATOM     17  C   UNL     1      -8.901   9.156  66.262  0.00  0.00    +0.382 C 
ATOM     18  O   UNL     1     -10.128   8.686  66.018  0.00  0.00    -0.244 OA
ATOM     19  O   UNL     1      -7.944   8.906  65.467  0.00  0.00    -0.244 OA
ENDBRANCH   6  17
ENDBRANCH   3   4
ENDBRANCH   1   3
BRANCH   1  20
ATOM     20  O   UNL     1     -12.184  14.155  68.349  0.00  0.00    -0.276 OA
BRANCH  20  21
ATOM     21  C   UNL     1     -11.611  14.138  69.806  0.00  0.00    +0.295 C 
BRANCH  21  22
ATOM     22  C   UNL     1     -12.139  15.730  70.113  0.00  0.00    +0.071 C 
ATOM     23  C   UNL     1     -10.968  16.450  69.435  0.00  0.00    +0.006 C 
ATOM     24  C   UNL     1     -11.818  15.937  71.573  0.00  0.00    +0.006 C 
ENDBRANCH  21  22
BRANCH  21  25
ATOM     25  O   UNL     1     -12.926  13.483  70.419  0.00  0.00    -0.424 OA
BRANCH  25  26
ATOM     26  C   UNL     1     -12.697  12.483  71.321  0.00  0.00    +0.319 C 
ATOM     27  O   UNL     1     -13.509  12.546  72.294  0.00  0.00    -0.250 OA
BRANCH  26  29
ATOM     28  C   UNL     1     -12.836  10.138  71.550  0.00  0.00    +0.012 C 
ATOM     29  C   UNL     1     -12.528  11.096  70.793  0.00  0.00    +0.110 C 
ENDBRANCH  26  29
ENDBRANCH  25  26
ENDBRANCH  21  25
ENDBRANCH  20  21
ENDBRANCH   1  20
BRANCH   1  30
ATOM     30  C   UNL     1     -10.555  13.684  65.995  0.00  0.00    +0.088 C 
BRANCH  30  31
ATOM     31  C   UNL     1     -11.518  14.671  65.370  0.00  0.00    +0.011 C 
BRANCH  31  32
ATOM     32  C   UNL     1     -10.749  15.945  65.043  0.00  0.00    +0.005 C 
BRANCH  32  33
ATOM     33  C   UNL     1      -9.575  16.141  65.959  0.00  0.00    +0.026 C 
BRANCH  33  34
ATOM     34  C   UNL     1      -9.346  17.580  66.295  0.00  0.00    -0.022 A 
ATOM     35  C   UNL     1      -8.328  17.979  67.153  0.00  0.00    -0.004 A 
ATOM     36  C   UNL     1      -8.541  18.893  68.177  0.00  0.00    -0.000 A 
ATOM     37  C   UNL     1      -9.644  19.718  68.093  0.00  0.00    -0.000 A 
ATOM     38  C   UNL     1     -10.556  19.522  67.085  0.00  0.00    -0.000 A 
ATOM     39  C   UNL     1     -10.415  18.462  66.197  0.00  0.00    -0.004 A 
ENDBRANCH  33  34
ENDBRANCH  32  33
ENDBRANCH  31  32
ENDBRANCH  30  31
ENDBRANCH   1  30
TORSDOF 15
ENDMDL
MODEL 2
REMARK VINA RESULT:      -6.6      2.370      8.002
REMARK  Name = 
REMARK  15 active torsions:
REMARK  status: ('A' for Active; 'I' for Inactive)
REMARK    1  A    between atoms: C_2  and  C_3
REMARK    2  A    between atoms: C_3  and  O_5
REMARK    3  A    between atoms: O_5  and  C_6
REMARK    4  A    between atoms: C_6  and  O_7
REMARK    5  A    between atoms: C_6  and  C_37
REMARK    6  A    between atoms: O_7  and  P_8
REMARK    7  A    between atoms: P_8  and  C_10
REMARK    8  A    between atoms: P_8  and  C_20
REMARK    9  A    between atoms: C_10  and  C_11
REMARK   10  A    between atoms: C_11  and  C_12
REMARK   11  A    between atoms: C_12  and  C_13
REMARK   12  A    between atoms: C_13  and  C_14
REMARK   13  A    between atoms: C_20  and  C_21
REMARK   14  A    between atoms: C_25  and  C_26
REMARK   15  A    between atoms: C_33  and  C_34
REMARK                            x       y       z     vdW  Elec       q    Type
REMARK                         _______ _______ _______ _____ _____    ______ ____
ROOT
ATOM      1  P   UNL     1      -9.906  10.752  67.176  0.00  0.00    +0.234 P 
ATOM      2  O   UNL     1      -8.856  11.306  66.224  0.00  0.00    -0.289 OA
ENDROOT
BRANCH   1   3
ATOM      3  C   UNL     1     -11.335  11.878  67.008  0.00  0.00    +0.172 C 
BRANCH   3   4
ATOM      4  C   UNL     1     -10.852  13.275  66.739  0.00  0.00    +0.236 C 
ATOM      5  N   UNL     1     -10.736  14.061  67.934  0.00  0.00    -0.271 N 
ATOM      6  C   UNL     1     -10.501  15.628  67.666  0.00  0.00    +0.179 C 
ATOM      7  C   UNL     1     -10.249  15.961  69.280  0.00  0.00    +0.033 C 
ATOM      8  C   UNL     1     -11.090  14.709  69.944  0.00  0.00    +0.022 C 
ATOM      9  C   UNL     1     -11.999  14.432  68.584  0.00  0.00    +0.094 C 
ATOM     10  O   UNL     1     -11.385  13.761  65.692  0.00  0.00    -0.274 OA
BRANCH   8  11
ATOM     11  C   UNL     1     -12.197  15.703  70.663  0.00  0.00    +0.002 C 
ATOM     12  C   UNL     1     -11.686  16.265  71.891  0.00  0.00    +0.000 C 
ATOM     13  C   UNL     1     -11.965  15.447  73.124  0.00  0.00    +0.000 C 
ATOM     14  C   UNL     1     -13.368  14.892  73.140  0.00  0.00    +0.000 C 
ATOM     15  C   UNL     1     -14.193  15.353  71.970  0.00  0.00    +0.000 C 
ATOM     16  C   UNL     1     -13.502  15.013  70.655  0.00  0.00    +0.000 C 
ENDBRANCH   8  11
BRANCH   6  17
ATOM     17  C   UNL     1      -8.917  15.370  67.315  0.00  0.00    +0.382 C 
ATOM     18  O   UNL     1      -8.014  15.363  68.299  0.00  0.00    -0.244 OA
ATOM     19  O   UNL     1      -8.667  15.945  66.212  0.00  0.00    -0.244 OA
ENDBRANCH   6  17
ENDBRANCH   3   4
ENDBRANCH   1   3
BRANCH   1  20
ATOM     20  O   UNL     1      -9.447  10.844  68.766  0.00  0.00    -0.276 OA
BRANCH  20  21
ATOM     21  C   UNL     1      -9.670   9.414  69.364  0.00  0.00    +0.295 C 
BRANCH  21  22
ATOM     22  C   UNL     1      -8.148   9.417  70.134  0.00  0.00    +0.071 C 
ATOM     23  C   UNL     1      -7.508   8.308  69.291  0.00  0.00    +0.006 C 
ATOM     24  C   UNL     1      -8.406   8.698  71.435  0.00  0.00    +0.006 C 
ENDBRANCH  21  22
BRANCH  21  25
ATOM     25  O   UNL     1     -10.427   9.965  70.650  0.00  0.00    -0.424 OA
BRANCH  25  26
ATOM     26  C   UNL     1     -11.785  10.038  70.523  0.00  0.00    +0.319 C 
ATOM     27  O   UNL     1     -12.357   9.090  71.144  0.00  0.00    -0.250 OA
BRANCH  26  29
ATOM     28  C   UNL     1     -13.154  11.490  71.784  0.00  0.00    +0.012 C 
ATOM     29  C   UNL     1     -12.436  11.362  70.758  0.00  0.00    +0.110 C 
ENDBRANCH  26  29
ENDBRANCH  25  26
ENDBRANCH  21  25
ENDBRANCH  20  21
ENDBRANCH   1  20
BRANCH   1  30
ATOM     30  C   UNL     1     -10.516   9.136  66.678  0.00  0.00    +0.088 C 
BRANCH  30  31
ATOM     31  C   UNL     1      -9.366   8.360  66.072  0.00  0.00    +0.011 C 
BRANCH  31  32
ATOM     32  C   UNL     1      -9.528   6.893  66.450  0.00  0.00    +0.005 C 
BRANCH  32  33
ATOM     33  C   UNL     1     -10.846   6.632  67.123  0.00  0.00    +0.026 C 
BRANCH  33  34
ATOM     34  C   UNL     1     -10.708   5.759  68.330  0.00  0.00    -0.022 A 
ATOM     35  C   UNL     1     -11.314   6.080  69.539  0.00  0.00    -0.004 A 
ATOM     36  C   UNL     1     -10.632   6.014  70.747  0.00  0.00    -0.000 A 
ATOM     37  C   UNL     1      -9.491   5.240  70.809  0.00  0.00    -0.000 A 
ATOM     38  C   UNL     1      -8.998   4.677  69.658  0.00  0.00    -0.000 A 
ATOM     39  C   UNL     1      -9.593   4.936  68.429  0.00  0.00    -0.004 A 
ENDBRANCH  33  34
ENDBRANCH  32  33
ENDBRANCH  31  32
ENDBRANCH  30  31
ENDBRANCH   1  30
TORSDOF 15
ENDMDL
MODEL 3
REMARK VINA RESULT:      -6.5      2.738      4.650
REMARK  Name = 
REMARK  15 active torsions:
REMARK  status: ('A' for Active; 'I' for Inactive)
REMARK    1  A    between atoms: C_2  and  C_3
REMARK    2  A    between atoms: C_3  and  O_5
REMARK    3  A    between atoms: O_5  and  C_6
REMARK    4  A    between atoms: C_6  and  O_7
REMARK    5  A    between atoms: C_6  and  C_37
REMARK    6  A    between atoms: O_7  and  P_8
REMARK    7  A    between atoms: P_8  and  C_10
REMARK    8  A    between atoms: P_8  and  C_20
REMARK    9  A    between atoms: C_10  and  C_11
REMARK   10  A    between atoms: C_11  and  C_12
REMARK   11  A    between atoms: C_12  and  C_13
REMARK   12  A    between atoms: C_13  and  C_14
REMARK   13  A    between atoms: C_20  and  C_21
REMARK   14  A    between atoms: C_25  and  C_26
REMARK   15  A    between atoms: C_33  and  C_34
REMARK                            x       y       z     vdW  Elec       q    Type
REMARK                         _______ _______ _______ _____ _____    ______ ____
ROOT
ATOM      1  P   UNL     1     -11.177  14.706  68.630  0.00  0.00    +0.234 P 
ATOM      2  O   UNL     1     -12.392  14.461  67.746  0.00  0.00    -0.289 OA
ENDROOT
BRANCH   1   3
ATOM      3  C   UNL     1      -9.738  14.468  67.530  0.00  0.00    +0.172 C 
BRANCH   3   4
ATOM      4  C   UNL     1     -10.205  14.298  66.112  0.00  0.00    +0.236 C 
ATOM      5  N   UNL     1     -10.431  12.923  65.764  0.00  0.00    -0.271 N 
ATOM      6  C   UNL     1     -10.653  12.675  64.192  0.00  0.00    +0.179 C 
ATOM      7  C   UNL     1     -11.048  11.070  64.407  0.00  0.00    +0.033 C 
ATOM      8  C   UNL     1     -10.259  10.791  65.827  0.00  0.00    +0.022 C 
ATOM      9  C   UNL     1      -9.233  12.082  65.658  0.00  0.00    +0.094 C 
ATOM     10  O   UNL     1      -9.586  15.074  65.319  0.00  0.00    -0.274 OA
BRANCH   8  11
ATOM     11  C   UNL     1      -9.227   9.690  65.153  0.00  0.00    +0.002 C 
ATOM     12  C   UNL     1      -9.342   8.398  65.785  0.00  0.00    +0.000 C 
ATOM     13  C   UNL     1      -8.428   8.186  66.962  0.00  0.00    +0.000 C 
ATOM     14  C   UNL     1      -7.039   8.721  66.714  0.00  0.00    +0.000 C 
ATOM     15  C   UNL     1      -6.860   9.261  65.321  0.00  0.00    +0.000 C 
ATOM     16  C   UNL     1      -7.903  10.330  65.019  0.00  0.00    +0.000 C 
ENDBRANCH   8  11
BRANCH   6  17
ATOM     17  C   UNL     1     -12.199  13.225  64.284  0.00  0.00    +0.382 C 
ATOM     18  O   UNL     1     -13.153  12.437  64.786  0.00  0.00    -0.244 OA
ATOM     19  O   UNL     1     -12.420  13.931  63.253  0.00  0.00    -0.244 OA
ENDBRANCH   6  17
ENDBRANCH   3   4
ENDBRANCH   1   3
BRANCH   1  20
ATOM     20  O   UNL     1     -11.016  13.575  69.831  0.00  0.00    -0.276 OA
BRANCH  20  21
ATOM     21  C   UNL     1     -12.420  12.898  69.978  0.00  0.00    +0.295 C 
BRANCH  21  22
ATOM     22  C   UNL     1     -11.734  11.384  70.361  0.00  0.00    +0.071 C 
ATOM     23  C   UNL     1     -11.761  10.801  68.944  0.00  0.00    +0.006 C 
ATOM     24  C   UNL     1     -12.866  10.635  71.019  0.00  0.00    +0.006 C 
ENDBRANCH  21  22
BRANCH  21  25
ATOM     25  O   UNL     1     -12.572  13.322  71.504  0.00  0.00    -0.424 OA
BRANCH  25  26
ATOM     26  C   UNL     1     -13.582  14.207  71.751  0.00  0.00    +0.319 C 
ATOM     27  O   UNL     1     -14.452  13.708  72.529  0.00  0.00    -0.250 OA
BRANCH  26  29
ATOM     28  C   UNL     1     -12.099  15.785  72.689  0.00  0.00    +0.012 C 
ATOM     29  C   UNL     1     -13.207  15.605  72.120  0.00  0.00    +0.110 C 
ENDBRANCH  26  29
ENDBRANCH  25  26
ENDBRANCH  21  25
ENDBRANCH  20  21
ENDBRANCH   1  20
BRANCH   1  30
ATOM     30  C   UNL     1     -11.060  16.407  69.200  0.00  0.00    +0.088 C 
BRANCH  30  31
ATOM     31  C   UNL     1      -9.787  17.008  68.643  0.00  0.00    +0.011 C 
BRANCH  31  32
ATOM     32  C   UNL     1     -10.146  18.302  67.922  0.00  0.00    +0.005 C 
BRANCH  32  33
ATOM     33  C   UNL     1      -9.469  19.492  68.539  0.00  0.00    +0.026 C 
BRANCH  33  34
ATOM     34  C   UNL     1      -8.017  19.569  68.189  0.00  0.00    -0.022 A 
ATOM     35  C   UNL     1      -7.024  19.472  69.155  0.00  0.00    -0.004 A 
ATOM     36  C   UNL     1      -5.950  20.352  69.203  0.00  0.00    -0.000 A 
ATOM     37  C   UNL     1      -5.639  21.060  68.061  0.00  0.00    -0.000 A 
ATOM     38  C   UNL     1      -6.470  20.976  66.970  0.00  0.00    -0.000 A 
ATOM     39  C   UNL     1      -7.650  20.245  67.031  0.00  0.00    -0.004 A 
ENDBRANCH  33  34
ENDBRANCH  32  33
ENDBRANCH  31  32
ENDBRANCH  30  31
ENDBRANCH   1  30
TORSDOF 15
ENDMDL
MODEL 4
REMARK VINA RESULT:      -6.5      3.447      7.211
REMARK  Name = 
REMARK  15 active torsions:
REMARK  status: ('A' for Active; 'I' for Inactive)
REMARK    1  A    between atoms: C_2  and  C_3
REMARK    2  A    between atoms: C_3  and  O_5
REMARK    3  A    between atoms: O_5  and  C_6
REMARK    4  A    between atoms: C_6  and  O_7
REMARK    5  A    between atoms: C_6  and  C_37
REMARK    6  A    between atoms: O_7  and  P_8
REMARK    7  A    between atoms: P_8  and  C_10
REMARK    8  A    between atoms: P_8  and  C_20
REMARK    9  A    between atoms: C_10  and  C_11
REMARK   10  A    between atoms: C_11  and  C_12
REMARK   11  A    between atoms: C_12  and  C_13
REMARK   12  A    between atoms: C_13  and  C_14
REMARK   13  A    between atoms: C_20  and  C_21
REMARK   14  A    between atoms: C_25  and  C_26
REMARK   15  A    between atoms: C_33  and  C_34
REMARK                            x       y       z     vdW  Elec       q    Type
REMARK                         _______ _______ _______ _____ _____    ______ ____
ROOT
ATOM      1  P   UNL     1      -8.903  15.941  66.548  0.00  0.00    +0.234 P 
ATOM      2  O   UNL     1      -8.074  14.759  67.029  0.00  0.00    -0.289 OA
ENDROOT
BRANCH   1   3
ATOM      3  C   UNL     1     -10.034  15.244  65.294  0.00  0.00    +0.172 C 
BRANCH   3   4
ATOM      4  C   UNL     1     -10.896  14.184  65.921  0.00  0.00    +0.236 C 
ATOM      5  N   UNL     1     -10.349  12.866  65.773  0.00  0.00    -0.271 N 
ATOM      6  C   UNL     1     -11.366  11.688  66.172  0.00  0.00    +0.179 C 
ATOM      7  C   UNL     1     -10.203  10.504  66.017  0.00  0.00    +0.033 C 
ATOM      8  C   UNL     1      -9.197  11.259  64.952  0.00  0.00    +0.022 C 
ATOM      9  C   UNL     1     -10.356  12.316  64.412  0.00  0.00    +0.094 C 
ATOM     10  O   UNL     1     -12.131  14.401  65.712  0.00  0.00    -0.274 OA
BRANCH   8  11
ATOM     11  C   UNL     1      -9.452  10.140  63.763  0.00  0.00    +0.002 C 
ATOM     12  C   UNL     1      -8.629   8.968  63.953  0.00  0.00    +0.000 C 
ATOM     13  C   UNL     1      -7.281   9.028  63.285  0.00  0.00    +0.000 C 
ATOM     14  C   UNL     1      -7.353   9.614  61.897  0.00  0.00    +0.000 C 
ATOM     15  C   UNL     1      -8.761   9.921  61.464  0.00  0.00    +0.000 C 
ATOM     16  C   UNL     1      -9.445  10.843  62.466  0.00  0.00    +0.000 C 
ENDBRANCH   8  11
BRANCH   6  17
ATOM     17  C   UNL     1     -11.103  11.950  67.773  0.00  0.00    +0.382 C 
ATOM     18  O   UNL     1      -9.879  11.777  68.280  0.00  0.00    -0.244 OA
ATOM     19  O   UNL     1     -12.126  11.546  68.405  0.00  0.00    -0.244 OA
ENDBRANCH   6  17
ENDBRANCH   3   4
ENDBRANCH   1   3
BRANCH   1  20
ATOM     20  O   UNL     1      -7.999  17.080  65.753  0.00  0.00    -0.276 OA
BRANCH  20  21
ATOM     21  C   UNL     1      -7.245  17.886  66.864  0.00  0.00    +0.295 C 
BRANCH  21  22
ATOM     22  C   UNL     1      -5.794  17.910  65.968  0.00  0.00    +0.071 C 
ATOM     23  C   UNL     1      -5.089  16.777  66.722  0.00  0.00    +0.006 C 
ATOM     24  C   UNL     1      -5.069  19.123  66.496  0.00  0.00    +0.006 C 
ENDBRANCH  21  22
BRANCH  21  25
ATOM     25  O   UNL     1      -7.726  19.295  66.302  0.00  0.00    -0.424 OA
BRANCH  25  26
ATOM     26  C   UNL     1      -8.359  20.087  67.218  0.00  0.00    +0.319 C 
ATOM     27  O   UNL     1      -7.745  21.186  67.379  0.00  0.00    -0.250 OA
BRANCH  26  29
ATOM     28  C   UNL     1     -10.392  19.787  66.057  0.00  0.00    +0.012 C 
ATOM     29  C   UNL     1      -9.836  20.261  67.083  0.00  0.00    +0.110 C 
ENDBRANCH  26  29
ENDBRANCH  25  26
ENDBRANCH  21  25
ENDBRANCH  20  21
ENDBRANCH   1  20
BRANCH   1  30
ATOM     30  C   UNL     1      -9.971  16.611  67.829  0.00  0.00    +0.088 C 
BRANCH  30  31
ATOM     31  C   UNL     1      -9.524  16.050  69.162  0.00  0.00    +0.011 C 
BRANCH  31  32
ATOM     32  C   UNL     1     -10.538  15.001  69.603  0.00  0.00    +0.005 C 
BRANCH  32  33
ATOM     33  C   UNL     1     -11.949  15.505  69.488  0.00  0.00    +0.026 C 
BRANCH  33  34
ATOM     34  C   UNL     1     -12.610  15.661  70.821  0.00  0.00    -0.022 A 
ATOM     35  C   UNL     1     -11.956  16.241  71.900  0.00  0.00    -0.004 A 
ATOM     36  C   UNL     1     -11.971  15.672  73.167  0.00  0.00    -0.000 A 
ATOM     37  C   UNL     1     -12.968  14.763  73.459  0.00  0.00    -0.000 A 
ATOM     38  C   UNL     1     -13.819  14.354  72.462  0.00  0.00    -0.000 A 
ATOM     39  C   UNL     1     -13.641  14.791  71.154  0.00  0.00    -0.004 A 
ENDBRANCH  33  34
ENDBRANCH  32  33
ENDBRANCH  31  32
ENDBRANCH  30  31
ENDBRANCH   1  30
TORSDOF 15
ENDMDL
MODEL 5
REMARK VINA RESULT:      -6.4      2.654      7.156
REMARK  Name = 
REMARK  15 active torsions:
REMARK  status: ('A' for Active; 'I' for Inactive)
REMARK    1  A    between atoms: C_2  and  C_3
REMARK    2  A    between atoms: C_3  and  O_5
REMARK    3  A    between atoms: O_5  and  C_6
REMARK    4  A    between atoms: C_6  and  O_7
REMARK    5  A    between atoms: C_6  and  C_37
REMARK    6  A    between atoms: O_7  and  P_8
REMARK    7  A    between atoms: P_8  and  C_10
REMARK    8  A    between atoms: P_8  and  C_20
REMARK    9  A    between atoms: C_10  and  C_11
REMARK   10  A    between atoms: C_11  and  C_12
REMARK   11  A    between atoms: C_12  and  C_13
REMARK   12  A    between atoms: C_13  and  C_14
REMARK   13  A    between atoms: C_20  and  C_21
REMARK   14  A    between atoms: C_25  and  C_26
REMARK   15  A    between atoms: C_33  and  C_34
REMARK                            x       y       z     vdW  Elec       q    Type
REMARK                         _______ _______ _______ _____ _____    ______ ____
ROOT
ATOM      1  P   UNL     1     -10.260  15.979  68.702  0.00  0.00    +0.234 P 
ATOM      2  O   UNL     1      -9.590  15.543  69.997  0.00  0.00    -0.289 OA
ENDROOT
BRANCH   1   3
ATOM      3  C   UNL     1      -9.157  15.377  67.376  0.00  0.00    +0.172 C 
BRANCH   3   4
ATOM      4  C   UNL     1      -9.947  15.163  66.116  0.00  0.00    +0.236 C 
ATOM      5  N   UNL     1     -10.520  13.849  66.038  0.00  0.00    -0.271 N 
ATOM      6  C   UNL     1     -11.126  13.485  64.595  0.00  0.00    +0.179 C 
ATOM      7  C   UNL     1     -11.784  12.050  65.131  0.00  0.00    +0.033 C 
ATOM      8  C   UNL     1     -10.779  11.756  66.403  0.00  0.00    +0.022 C 
ATOM      9  C   UNL     1      -9.572  12.745  65.842  0.00  0.00    +0.094 C 
ATOM     10  O   UNL     1      -9.371  15.680  65.108  0.00  0.00    -0.274 OA
BRANCH   8  11
ATOM     11  C   UNL     1     -10.166  10.377  65.729  0.00  0.00    +0.002 C 
ATOM     12  C   UNL     1     -10.285   9.250  66.624  0.00  0.00    +0.000 C 
ATOM     13  C   UNL     1      -9.109   9.047  67.541  0.00  0.00    +0.000 C 
ATOM     14  C   UNL     1      -7.789   9.243  66.837  0.00  0.00    +0.000 C 
ATOM     15  C   UNL     1      -7.947   9.509  65.364  0.00  0.00    +0.000 C 
ATOM     16  C   UNL     1      -8.860  10.706  65.126  0.00  0.00    +0.000 C 
ENDBRANCH   8  11
BRANCH   6  17
ATOM     17  C   UNL     1     -12.468  14.387  64.888  0.00  0.00    +0.382 C 
ATOM     18  O   UNL     1     -13.515  13.834  65.507  0.00  0.00    -0.244 OA
ATOM     19  O   UNL     1     -12.639  15.160  63.897  0.00  0.00    -0.244 OA
ENDBRANCH   6  17
ENDBRANCH   3   4
ENDBRANCH   1   3
BRANCH   1  20
ATOM     20  O   UNL     1     -10.314  17.626  68.529  0.00  0.00    -0.276 OA
BRANCH  20  21
ATOM     21  C   UNL     1      -9.044  18.016  67.699  0.00  0.00    +0.295 C 
BRANCH  21  22
ATOM     22  C   UNL     1      -9.620  19.596  67.419  0.00  0.00    +0.071 C 
ATOM     23  C   UNL     1     -10.376  19.294  66.120  0.00  0.00    +0.006 C 
ATOM     24  C   UNL     1      -8.408  20.331  66.901  0.00  0.00    +0.006 C 
ENDBRANCH  21  22
BRANCH  21  25
ATOM     25  O   UNL     1      -8.215  18.444  68.987  0.00  0.00    -0.424 OA
BRANCH  25  26
ATOM     26  C   UNL     1      -6.943  17.948  69.036  0.00  0.00    +0.319 C 
ATOM     27  O   UNL     1      -6.576  17.510  67.903  0.00  0.00    -0.250 OA
BRANCH  26  29
ATOM     28  C   UNL     1      -6.189  19.972  69.990  0.00  0.00    +0.012 C 
ATOM     29  C   UNL     1      -5.898  18.781  69.704  0.00  0.00    +0.110 C 
ENDBRANCH  26  29
ENDBRANCH  25  26
ENDBRANCH  21  25
ENDBRANCH  20  21
ENDBRANCH   1  20
BRANCH   1  30
ATOM     30  C   UNL     1     -11.833  15.157  68.419  0.00  0.00    +0.088 C 
BRANCH  30  31
ATOM     31  C   UNL     1     -12.289  14.540  69.724  0.00  0.00    +0.011 C 
BRANCH  31  32
ATOM     32  C   UNL     1     -11.963  13.052  69.689  0.00  0.00    +0.005 C 
BRANCH  32  33
ATOM     33  C   UNL     1     -12.449  12.344  70.921  0.00  0.00    +0.026 C 
BRANCH  33  34
ATOM     34  C   UNL     1     -12.355  10.856  70.801  0.00  0.00    -0.022 A 
ATOM     35  C   UNL     1     -13.168  10.008  71.541  0.00  0.00    -0.004 A 
ATOM     36  C   UNL     1     -12.665   8.903  72.216  0.00  0.00    -0.000 A 
ATOM     37  C   UNL     1     -11.441   8.403  71.822  0.00  0.00    -0.000 A 
ATOM     38  C   UNL     1     -10.708   9.084  70.880  0.00  0.00    -0.000 A 
ATOM     39  C   UNL     1     -11.154  10.301  70.377  0.00  0.00    -0.004 A 
ENDBRANCH  33  34
ENDBRANCH  32  33
ENDBRANCH  31  32
ENDBRANCH  30  31
ENDBRANCH   1  30
TORSDOF 15
ENDMDL
MODEL 6
REMARK VINA RESULT:      -6.4      2.250      5.267
REMARK  Name = 
REMARK  15 active torsions:
REMARK  status: ('A' for Active; 'I' for Inactive)
REMARK    1  A    between atoms: C_2  and  C_3
REMARK    2  A    between atoms: C_3  and  O_5
REMARK    3  A    between atoms: O_5  and  C_6
REMARK    4  A    between atoms: C_6  and  O_7
REMARK    5  A    between atoms: C_6  and  C_37
REMARK    6  A    between atoms: O_7  and  P_8
REMARK    7  A    between atoms: P_8  and  C_10
REMARK    8  A    between atoms: P_8  and  C_20
REMARK    9  A    between atoms: C_10  and  C_11
REMARK   10  A    between atoms: C_11  and  C_12
REMARK   11  A    between atoms: C_12  and  C_13
REMARK   12  A    between atoms: C_13  and  C_14
REMARK   13  A    between atoms: C_20  and  C_21
REMARK   14  A    between atoms: C_25  and  C_26
REMARK   15  A    between atoms: C_33  and  C_34
REMARK                            x       y       z     vdW  Elec       q    Type
REMARK                         _______ _______ _______ _____ _____    ______ ____
ROOT
ATOM      1  P   UNL     1      -8.681  15.125  67.898  0.00  0.00    +0.234 P 
ATOM      2  O   UNL     1      -8.826  15.886  69.208  0.00  0.00    -0.289 OA
ENDROOT
BRANCH   1   3
ATOM      3  C   UNL     1      -8.096  13.463  68.381  0.00  0.00    +0.172 C 
BRANCH   3   4
ATOM      4  C   UNL     1      -8.445  12.470  67.309  0.00  0.00    +0.236 C 
ATOM      5  N   UNL     1      -9.363  11.465  67.763  0.00  0.00    -0.271 N 
ATOM      6  C   UNL     1      -9.539  10.233  66.746  0.00  0.00    +0.179 C 
ATOM      7  C   UNL     1     -10.777   9.556  67.633  0.00  0.00    +0.033 C 
ATOM      8  C   UNL     1     -10.413  10.179  69.115  0.00  0.00    +0.022 C 
ATOM      9  C   UNL     1      -8.831  10.499  68.732  0.00  0.00    +0.094 C 
ATOM     10  O   UNL     1      -7.428  12.154  66.614  0.00  0.00    -0.274 OA
BRANCH   8  11
ATOM     11  C   UNL     1     -10.109   8.695  69.775  0.00  0.00    +0.002 C 
ATOM     12  C   UNL     1     -11.233   8.216  70.545  0.00  0.00    +0.000 C 
ATOM     13  C   UNL     1     -11.215   8.608  71.998  0.00  0.00    +0.000 C 
ATOM     14  C   UNL     1      -9.843   8.479  72.611  0.00  0.00    +0.000 C 
ATOM     15  C   UNL     1      -8.828   7.907  71.659  0.00  0.00    +0.000 C 
ATOM     16  C   UNL     1      -8.763   8.732  70.379  0.00  0.00    +0.000 C 
ENDBRANCH   8  11
BRANCH   6  17
ATOM     17  C   UNL     1     -10.519  11.125  65.774  0.00  0.00    +0.382 C 
ATOM     18  O   UNL     1     -11.700  11.547  66.233  0.00  0.00    -0.244 OA
ATOM     19  O   UNL     1     -10.409  10.672  64.594  0.00  0.00    -0.244 OA
ENDBRANCH   6  17
ENDBRANCH   3   4
ENDBRANCH   1   3
BRANCH   1  20
ATOM     20  O   UNL     1      -7.501  15.750  66.917  0.00  0.00    -0.276 OA
BRANCH  20  21
ATOM     21  C   UNL     1      -7.484  17.292  67.188  0.00  0.00    +0.295 C 
BRANCH  21  22
ATOM     22  C   UNL     1      -6.049  17.510  66.293  0.00  0.00    +0.071 C 
ATOM     23  C   UNL     1      -5.069  17.204  67.432  0.00  0.00    +0.006 C 
ATOM     24  C   UNL     1      -5.924  19.010  66.180  0.00  0.00    +0.006 C 
ENDBRANCH  21  22
BRANCH  21  25
ATOM     25  O   UNL     1      -8.421  17.618  65.945  0.00  0.00    -0.424 OA
BRANCH  25  26
ATOM     26  C   UNL     1      -9.455  18.469  66.218  0.00  0.00    +0.319 C 
ATOM     27  O   UNL     1     -10.518  18.105  65.629  0.00  0.00    -0.250 OA
BRANCH  26  29
ATOM     28  C   UNL     1     -10.085  20.020  67.882  0.00  0.00    +0.012 C 
ATOM     29  C   UNL     1      -9.682  18.851  67.644  0.00  0.00    +0.110 C 
ENDBRANCH  26  29
ENDBRANCH  25  26
ENDBRANCH  21  25
ENDBRANCH  20  21
ENDBRANCH   1  20
BRANCH   1  30
ATOM     30  C   UNL     1     -10.255  14.851  67.073  0.00  0.00    +0.088 C 
BRANCH  30  31
ATOM     31  C   UNL     1     -11.365  15.228  68.030  0.00  0.00    +0.011 C 
BRANCH  31  32
ATOM     32  C   UNL     1     -12.024  13.947  68.527  0.00  0.00    +0.005 C 
BRANCH  32  33
ATOM     33  C   UNL     1     -11.822  13.751  70.003  0.00  0.00    +0.026 C 
BRANCH  33  34
ATOM     34  C   UNL     1     -12.358  14.890  70.810  0.00  0.00    -0.022 A 
ATOM     35  C   UNL     1     -11.568  15.576  71.724  0.00  0.00    -0.004 A 
ATOM     36  C   UNL     1     -12.010  15.872  73.007  0.00  0.00    -0.000 A 
ATOM     37  C   UNL     1     -13.370  15.860  73.245  0.00  0.00    -0.000 A 
ATOM     38  C   UNL     1     -14.222  15.430  72.257  0.00  0.00    -0.000 A 
ATOM     39  C   UNL     1     -13.725  14.944  71.053  0.00  0.00    -0.004 A 
ENDBRANCH  33  34
ENDBRANCH  32  33
ENDBRANCH  31  32
ENDBRANCH  30  31
ENDBRANCH   1  30
TORSDOF 15
ENDMDL
MODEL 7
REMARK VINA RESULT:      -6.3      4.560      9.222
REMARK  Name = 
REMARK  15 active torsions:
REMARK  status: ('A' for Active; 'I' for Inactive)
REMARK    1  A    between atoms: C_2  and  C_3
REMARK    2  A    between atoms: C_3  and  O_5
REMARK    3  A    between atoms: O_5  and  C_6
REMARK    4  A    between atoms: C_6  and  O_7
REMARK    5  A    between atoms: C_6  and  C_37
REMARK    6  A    between atoms: O_7  and  P_8
REMARK    7  A    between atoms: P_8  and  C_10
REMARK    8  A    between atoms: P_8  and  C_20
REMARK    9  A    between atoms: C_10  and  C_11
REMARK   10  A    between atoms: C_11  and  C_12
REMARK   11  A    between atoms: C_12  and  C_13
REMARK   12  A    between atoms: C_13  and  C_14
REMARK   13  A    between atoms: C_20  and  C_21
REMARK   14  A    between atoms: C_25  and  C_26
REMARK   15  A    between atoms: C_33  and  C_34
REMARK                            x       y       z     vdW  Elec       q    Type
REMARK                         _______ _______ _______ _____ _____    ______ ____
ROOT
ATOM      1  P   UNL     1      -8.147  15.562  67.888  0.00  0.00    +0.234 P 
ATOM      2  O   UNL     1      -8.384  16.069  69.303  0.00  0.00    -0.289 OA
ENDROOT
BRANCH   1   3
ATOM      3  C   UNL     1      -6.374  15.122  67.835  0.00  0.00    +0.172 C 
BRANCH   3   4
ATOM      4  C   UNL     1      -5.585  16.095  68.665  0.00  0.00    +0.236 C 
ATOM      5  N   UNL     1      -5.547  17.410  68.090  0.00  0.00    -0.271 N 
ATOM      6  C   UNL     1      -4.489  18.397  68.788  0.00  0.00    +0.179 C 
ATOM      7  C   UNL     1      -5.007  19.720  67.915  0.00  0.00    +0.033 C 
ATOM      8  C   UNL     1      -5.624  18.944  66.599  0.00  0.00    +0.022 C 
ATOM      9  C   UNL     1      -4.762  17.551  66.858  0.00  0.00    +0.094 C 
ATOM     10  O   UNL     1      -4.531  15.562  69.135  0.00  0.00    -0.274 OA
BRANCH   8  11
ATOM     11  C   UNL     1      -4.522  19.611  65.564  0.00  0.00    +0.002 C 
ATOM     12  C   UNL     1      -5.135  20.584  64.691  0.00  0.00    +0.000 C 
ATOM     13  C   UNL     1      -5.664  20.026  63.397  0.00  0.00    +0.000 C 
ATOM     14  C   UNL     1      -4.724  19.024  62.775  0.00  0.00    +0.000 C 
ATOM     15  C   UNL     1      -3.436  18.877  63.540  0.00  0.00    +0.000 C 
ATOM     16  C   UNL     1      -3.711  18.517  64.995  0.00  0.00    +0.000 C 
ENDBRANCH   8  11
BRANCH   6  17
ATOM     17  C   UNL     1      -5.501  18.648  70.058  0.00  0.00    +0.382 C 
ATOM     18  O   UNL     1      -6.386  19.647  70.012  0.00  0.00    -0.244 OA
ATOM     19  O   UNL     1      -4.852  18.408  71.122  0.00  0.00    -0.244 OA
ENDBRANCH   6  17
ENDBRANCH   3   4
ENDBRANCH   1   3
BRANCH   1  20
ATOM     20  O   UNL     1      -8.353  16.738  66.740  0.00  0.00    -0.276 OA
BRANCH  20  21
ATOM     21  C   UNL     1      -9.833  17.228  66.882  0.00  0.00    +0.295 C 
BRANCH  21  22
ATOM     22  C   UNL     1      -9.375  18.869  66.826  0.00  0.00    +0.071 C 
ATOM     23  C   UNL     1      -9.519  19.156  68.325  0.00  0.00    +0.006 C 
ATOM     24  C   UNL     1     -10.594  19.561  66.266  0.00  0.00    +0.006 C 
ENDBRANCH  21  22
BRANCH  21  25
ATOM     25  O   UNL     1     -10.110  17.154  65.317  0.00  0.00    -0.424 OA
BRANCH  25  26
ATOM     26  C   UNL     1     -11.093  16.278  64.954  0.00  0.00    +0.319 C 
ATOM     27  O   UNL     1     -11.675  16.654  63.891  0.00  0.00    -0.250 OA
BRANCH  26  29
ATOM     28  C   UNL     1     -11.692  14.007  64.719  0.00  0.00    +0.012 C 
ATOM     29  C   UNL     1     -10.761  14.822  64.950  0.00  0.00    +0.110 C 
ENDBRANCH  26  29
ENDBRANCH  25  26
ENDBRANCH  21  25
ENDBRANCH  20  21
ENDBRANCH   1  20
BRANCH   1  30
ATOM     30  C   UNL     1      -9.024  14.031  67.540  0.00  0.00    +0.088 C 
BRANCH  30  31
ATOM     31  C   UNL     1      -9.767  13.614  68.791  0.00  0.00    +0.011 C 
BRANCH  31  32
ATOM     32  C   UNL     1     -11.247  13.492  68.449  0.00  0.00    +0.005 C 
BRANCH  32  33
ATOM     33  C   UNL     1     -12.062  14.574  69.098  0.00  0.00    +0.026 C 
BRANCH  33  34
ATOM     34  C   UNL     1     -12.008  14.512  70.591  0.00  0.00    -0.022 A 
ATOM     35  C   UNL     1     -12.825  13.656  71.319  0.00  0.00    -0.004 A 
ATOM     36  C   UNL     1     -13.528  14.080  72.439  0.00  0.00    -0.000 A 
ATOM     37  C   UNL     1     -13.102  15.225  73.079  0.00  0.00    -0.000 A 
ATOM     38  C   UNL     1     -12.096  15.974  72.518  0.00  0.00    -0.000 A 
ATOM     39  C   UNL     1     -11.556  15.628  71.285  0.00  0.00    -0.004 A 
ENDBRANCH  33  34
ENDBRANCH  32  33
ENDBRANCH  31  32
ENDBRANCH  30  31
ENDBRANCH   1  30
TORSDOF 15
ENDMDL
MODEL 8
REMARK VINA RESULT:      -6.3      2.746      9.012
REMARK  Name = 
REMARK  15 active torsions:
REMARK  status: ('A' for Active; 'I' for Inactive)
REMARK    1  A    between atoms: C_2  and  C_3
REMARK    2  A    between atoms: C_3  and  O_5
REMARK    3  A    between atoms: O_5  and  C_6
REMARK    4  A    between atoms: C_6  and  O_7
REMARK    5  A    between atoms: C_6  and  C_37
REMARK    6  A    between atoms: O_7  and  P_8
REMARK    7  A    between atoms: P_8  and  C_10
REMARK    8  A    between atoms: P_8  and  C_20
REMARK    9  A    between atoms: C_10  and  C_11
REMARK   10  A    between atoms: C_11  and  C_12
REMARK   11  A    between atoms: C_12  and  C_13
REMARK   12  A    between atoms: C_13  and  C_14
REMARK   13  A    between atoms: C_20  and  C_21
REMARK   14  A    between atoms: C_25  and  C_26
REMARK   15  A    between atoms: C_33  and  C_34
REMARK                            x       y       z     vdW  Elec       q    Type
REMARK                         _______ _______ _______ _____ _____    ______ ____
ROOT
ATOM      1  P   UNL     1     -11.275  13.556  67.030  0.00  0.00    +0.234 P 
ATOM      2  O   UNL     1     -12.395  14.436  66.493  0.00  0.00    -0.289 OA
ENDROOT
BRANCH   1   3
ATOM      3  C   UNL     1     -10.387  14.605  68.233  0.00  0.00    +0.172 C 
BRANCH   3   4
ATOM      4  C   UNL     1     -10.712  16.050  67.984  0.00  0.00    +0.236 C 
ATOM      5  N   UNL     1      -9.547  16.837  67.691  0.00  0.00    -0.271 N 
ATOM      6  C   UNL     1      -9.811  18.422  67.701  0.00  0.00    +0.179 C 
ATOM      7  C   UNL     1      -8.284  18.773  67.131  0.00  0.00    +0.033 C 
ATOM      8  C   UNL     1      -7.490  17.427  67.654  0.00  0.00    +0.022 C 
ATOM      9  C   UNL     1      -8.621  17.054  68.809  0.00  0.00    +0.094 C 
ATOM     10  O   UNL     1     -11.597  16.477  68.791  0.00  0.00    -0.274 OA
BRANCH   8  11
ATOM     11  C   UNL     1      -6.510  18.280  68.675  0.00  0.00    +0.002 C 
ATOM     12  C   UNL     1      -5.883  19.393  68.003  0.00  0.00    +0.000 C 
ATOM     13  C   UNL     1      -4.556  19.080  67.366  0.00  0.00    +0.000 C 
ATOM     14  C   UNL     1      -3.686  18.215  68.244  0.00  0.00    +0.000 C 
ATOM     15  C   UNL     1      -4.304  17.938  69.588  0.00  0.00    +0.000 C 
ATOM     16  C   UNL     1      -5.685  17.314  69.428  0.00  0.00    +0.000 C 
ENDBRANCH   8  11
BRANCH   6  17
ATOM     17  C   UNL     1     -10.514  18.353  66.217  0.00  0.00    +0.382 C 
ATOM     18  O   UNL     1     -10.195  17.364  65.379  0.00  0.00    -0.244 OA
ATOM     19  O   UNL     1     -10.642  19.543  65.795  0.00  0.00    -0.244 OA
ENDBRANCH   6  17
ENDBRANCH   3   4
ENDBRANCH   1   3
BRANCH   1  20
ATOM     20  O   UNL     1     -10.159  13.157  65.872  0.00  0.00    -0.276 OA
BRANCH  20  21
ATOM     21  C   UNL     1     -10.524  11.709  65.400  0.00  0.00    +0.295 C 
BRANCH  21  22
ATOM     22  C   UNL     1     -10.159  12.066  63.773  0.00  0.00    +0.071 C 
ATOM     23  C   UNL     1     -11.585  12.413  63.332  0.00  0.00    +0.006 C 
ATOM     24  C   UNL     1      -9.969  10.708  63.143  0.00  0.00    +0.006 C 
ENDBRANCH  21  22
BRANCH  21  25
ATOM     25  O   UNL     1      -9.068  11.141  65.700  0.00  0.00    -0.424 OA
BRANCH  25  26
ATOM     26  C   UNL     1      -9.020  10.186  66.676  0.00  0.00    +0.319 C 
ATOM     27  O   UNL     1      -8.735  10.694  67.803  0.00  0.00    -0.250 OA
BRANCH  26  29
ATOM     28  C   UNL     1     -10.327   8.598  67.834  0.00  0.00    +0.012 C 
ATOM     29  C   UNL     1     -10.146   9.208  66.747  0.00  0.00    +0.110 C 
ENDBRANCH  26  29
ENDBRANCH  25  26
ENDBRANCH  21  25
ENDBRANCH  20  21
ENDBRANCH   1  20
BRANCH   1  30
ATOM     30  C   UNL     1     -11.882  12.156  67.980  0.00  0.00    +0.088 C 
BRANCH  30  31
ATOM     31  C   UNL     1     -11.828  12.519  69.449  0.00  0.00    +0.011 C 
BRANCH  31  32
ATOM     32  C   UNL     1     -11.613  11.241  70.250  0.00  0.00    +0.005 C 
BRANCH  32  33
ATOM     33  C   UNL     1     -12.759  10.965  71.181  0.00  0.00    +0.026 C 
BRANCH  33  34
ATOM     34  C   UNL     1     -12.715   9.581  71.747  0.00  0.00    -0.022 A 
ATOM     35  C   UNL     1     -11.556   8.815  71.721  0.00  0.00    -0.004 A 
ATOM     36  C   UNL     1     -11.556   7.486  71.316  0.00  0.00    -0.000 A 
ATOM     37  C   UNL     1     -12.754   6.802  71.337  0.00  0.00    -0.000 A 
ATOM     38  C   UNL     1     -13.913   7.481  71.622  0.00  0.00    -0.000 A 
ATOM     39  C   UNL     1     -13.898   8.857  71.820  0.00  0.00    -0.004 A 
ENDBRANCH  33  34
ENDBRANCH  32  33
ENDBRANCH  31  32
ENDBRANCH  30  31
ENDBRANCH   1  30
TORSDOF 15
ENDMDL
MODEL 9
REMARK VINA RESULT:      -6.2      2.444      8.326
REMARK  Name = 
REMARK  15 active torsions:
REMARK  status: ('A' for Active; 'I' for Inactive)
REMARK    1  A    between atoms: C_2  and  C_3
REMARK    2  A    between atoms: C_3  and  O_5
REMARK    3  A    between atoms: O_5  and  C_6
REMARK    4  A    between atoms: C_6  and  O_7
REMARK    5  A    between atoms: C_6  and  C_37
REMARK    6  A    between atoms: O_7  and  P_8
REMARK    7  A    between atoms: P_8  and  C_10
REMARK    8  A    between atoms: P_8  and  C_20
REMARK    9  A    between atoms: C_10  and  C_11
REMARK   10  A    between atoms: C_11  and  C_12
REMARK   11  A    between atoms: C_12  and  C_13
REMARK   12  A    between atoms: C_13  and  C_14
REMARK   13  A    between atoms: C_20  and  C_21
REMARK   14  A    between atoms: C_25  and  C_26
REMARK   15  A    between atoms: C_33  and  C_34
REMARK                            x       y       z     vdW  Elec       q    Type
REMARK                         _______ _______ _______ _____ _____    ______ ____
ROOT
ATOM      1  P   UNL     1      -9.720   9.964  67.166  0.00  0.00    +0.234 P 
ATOM      2  O   UNL     1     -10.594   8.761  66.841  0.00  0.00    -0.289 OA
ENDROOT
BRANCH   1   3
ATOM      3  C   UNL     1     -10.799  11.083  68.127  0.00  0.00    +0.172 C 
BRANCH   3   4
ATOM      4  C   UNL     1     -11.153  12.284  67.297  0.00  0.00    +0.236 C 
ATOM      5  N   UNL     1     -11.091  13.510  68.042  0.00  0.00    -0.271 N 
ATOM      6  C   UNL     1     -11.731  14.771  67.279  0.00  0.00    +0.179 C 
ATOM      7  C   UNL     1     -11.217  15.851  68.440  0.00  0.00    +0.033 C 
ATOM      8  C   UNL     1     -11.116  14.829  69.728  0.00  0.00    +0.022 C 
ATOM      9  C   UNL     1     -12.126  13.692  69.067  0.00  0.00    +0.094 C 
ATOM     10  O   UNL     1     -12.130  12.045  66.521  0.00  0.00    -0.274 OA
BRANCH   8  11
ATOM     11  C   UNL     1     -12.302  15.611  70.571  0.00  0.00    +0.002 C 
ATOM     12  C   UNL     1     -11.785  16.225  71.770  0.00  0.00    +0.000 C 
ATOM     13  C   UNL     1     -11.818  15.347  72.993  0.00  0.00    +0.000 C 
ATOM     14  C   UNL     1     -13.104  14.567  73.106  0.00  0.00    +0.000 C 
ATOM     15  C   UNL     1     -14.093  14.910  72.025  0.00  0.00    +0.000 C 
ATOM     16  C   UNL     1     -13.473  14.715  70.646  0.00  0.00    +0.000 C 
ENDBRANCH   8  11
BRANCH   6  17
ATOM     17  C   UNL     1     -10.398  14.922  66.330  0.00  0.00    +0.382 C 
ATOM     18  O   UNL     1      -9.285  15.464  66.833  0.00  0.00    -0.244 OA
ATOM     19  O   UNL     1     -10.789  15.219  65.160  0.00  0.00    -0.244 OA
ENDBRANCH   6  17
ENDBRANCH   3   4
ENDBRANCH   1   3
BRANCH   1  20
ATOM     20  O   UNL     1      -9.273  10.818  65.819  0.00  0.00    -0.276 OA
BRANCH  20  21
ATOM     21  C   UNL     1      -9.312   9.801  64.629  0.00  0.00    +0.295 C 
BRANCH  21  22
ATOM     22  C   UNL     1      -9.321  11.047  63.465  0.00  0.00    +0.071 C 
ATOM     23  C   UNL     1     -10.834  11.296  63.468  0.00  0.00    +0.006 C 
ATOM     24  C   UNL     1      -9.137  10.316  62.158  0.00  0.00    +0.006 C 
ENDBRANCH  21  22
BRANCH  21  25
ATOM     25  O   UNL     1      -7.729   9.643  64.585  0.00  0.00    -0.424 OA
BRANCH  25  26
ATOM     26  C   UNL     1      -7.287   8.352  64.540  0.00  0.00    +0.319 C 
ATOM     27  O   UNL     1      -8.215   7.537  64.830  0.00  0.00    -0.250 OA
BRANCH  26  29
ATOM     28  C   UNL     1      -5.681   8.757  62.858  0.00  0.00    +0.012 C 
ATOM     29  C   UNL     1      -6.496   7.930  63.345  0.00  0.00    +0.110 C 
ENDBRANCH  26  29
ENDBRANCH  25  26
ENDBRANCH  21  25
ENDBRANCH  20  21
ENDBRANCH   1  20
BRANCH   1  30
ATOM     30  C   UNL     1      -8.358   9.559  68.267  0.00  0.00    +0.088 C 
BRANCH  30  31
ATOM     31  C   UNL     1      -8.842   8.525  69.262  0.00  0.00    +0.011 C 
BRANCH  31  32
ATOM     32  C   UNL     1      -8.947   9.191  70.629  0.00  0.00    +0.005 C 
BRANCH  32  33
ATOM     33  C   UNL     1      -9.866   8.436  71.548  0.00  0.00    +0.026 C 
BRANCH  33  34
ATOM     34  C   UNL     1     -11.306   8.603  71.180  0.00  0.00    -0.022 A 
ATOM     35  C   UNL     1     -11.946   9.833  71.267  0.00  0.00    -0.004 A 
ATOM     36  C   UNL     1     -13.197   9.975  71.854  0.00  0.00    -0.000 A 
ATOM     37  C   UNL     1     -13.989   8.851  71.977  0.00  0.00    -0.000 A 
ATOM     38  C   UNL     1     -13.470   7.624  71.645  0.00  0.00    -0.000 A 
ATOM     39  C   UNL     1     -12.142   7.496  71.256  0.00  0.00    -0.004 A 
ENDBRANCH  33  34
ENDBRANCH  32  33
ENDBRANCH  31  32
ENDBRANCH  30  31
ENDBRANCH   1  30
TORSDOF 15
ENDMDL
