MODEL 1
REMARK VINA RESULT:      -6.6      0.000      0.000
REMARK  Name = 
REMARK  10 active torsions:
REMARK  status: ('A' for Active; 'I' for Inactive)
REMARK    1  A    between atoms: C_2  and  C_3
REMARK    2  A    between atoms: C_3  and  C_4
REMARK    3  A    between atoms: C_4  and  C_5
REMARK    4  A    between atoms: C_5  and  C_6
REMARK    5  A    between atoms: C_6  and  C_8
REMARK    6  A    between atoms: C_9  and  C_10
REMARK    7  A    between atoms: C_17  and  C_18
REMARK    8  A    between atoms: C_18  and  C_19
REMARK    9  A    between atoms: C_19  and  C_20
REMARK   10  A    between atoms: C_20  and  C_21
REMARK                            x       y       z     vdW  Elec       q    Type
REMARK                         _______ _______ _______ _____ _____    ______ ____
ROOT
ATOM      1  C   UNL     1      -9.859  16.132  67.572  0.00  0.00    +0.056 C 
ATOM      2  C   UNL     1      -8.850  16.985  68.559  0.00  0.00    +0.054 C 
ATOM      3  C   UNL     1      -9.453  18.555  68.455  0.00  0.00    +0.169 C 
ATOM      4  O   UNL     1      -8.238  19.117  67.668  0.00  0.00    -0.484 OA
ATOM      5  C   UNL     1      -7.242  18.467  68.404  0.00  0.00    +0.112 C 
ATOM      6  C   UNL     1      -6.120  18.834  68.914  0.00  0.00    +0.006 C 
ATOM      7  C   UNL     1     -10.450  18.498  67.239  0.00  0.00    +0.077 C 
ATOM      8  C   UNL     1      -7.528  17.187  67.665  0.00  0.00    +0.068 C 
ATOM      9  C   UNL     1     -10.209  17.223  66.332  0.00  0.00    +0.160 C 
ATOM     10  O   UNL     1      -8.794  17.563  65.910  0.00  0.00    -0.223 OA
ENDROOT
BRANCH   1  12
ATOM     11  C   UNL     1     -11.693  15.866  69.355  0.00  0.00    +0.002 C 
ATOM     12  C   UNL     1     -11.120  16.484  68.484  0.00  0.00    -0.026 C 
BRANCH  11  13
ATOM     13  C   UNL     1     -12.281  14.369  69.483  0.00  0.00    +0.174 C 
ATOM     14  O   UNL     1     -10.876  13.777  69.430  0.00  0.00    -0.218 OA
BRANCH  13  15
ATOM     15  C   UNL     1     -12.247  14.381  71.132  0.00  0.00    +0.037 C 
BRANCH  15  16
ATOM     16  C   UNL     1     -13.714  14.763  71.264  0.00  0.00    +0.003 C 
BRANCH  16  17
ATOM     17  C   UNL     1     -13.723  15.575  72.556  0.00  0.00    +0.000 C 
BRANCH  17  19
ATOM     18  C   UNL     1     -12.451  15.780  74.560  0.00  0.00    +0.000 C 
ATOM     19  C   UNL     1     -12.628  14.886  73.369  0.00  0.00    +0.000 C 
ENDBRANCH  17  19
ENDBRANCH  16  17
ENDBRANCH  15  16
ENDBRANCH  13  15
ENDBRANCH  11  13
ENDBRANCH   1  12
BRANCH   6  20
ATOM     20  C   UNL     1      -5.571  20.173  68.566  0.00  0.00    +0.029 C 
BRANCH  20  21
ATOM     21  C   UNL     1      -5.349  20.877  69.881  0.00  0.00    +0.017 C 
BRANCH  21  22
ATOM     22  C   UNL     1      -4.040  20.354  70.453  0.00  0.00    +0.114 C 
BRANCH  22  23
ATOM     23  C   UNL     1      -3.896  20.926  71.812  0.00  0.00    +0.365 C 
ATOM     24  O   UNL     1      -4.430  22.098  72.186  0.00  0.00    -0.246 OA
ATOM     25  O   UNL     1      -3.305  20.234  72.678  0.00  0.00    -0.246 OA
ENDBRANCH  22  23
ENDBRANCH  21  22
ENDBRANCH  20  21
ENDBRANCH   6  20
TORSDOF 10
ENDMDL
MODEL 2
REMARK VINA RESULT:      -6.5      2.452      3.816
REMARK  Name = 
REMARK  10 active torsions:
REMARK  status: ('A' for Active; 'I' for Inactive)
REMARK    1  A    between atoms: C_2  and  C_3
REMARK    2  A    between atoms: C_3  and  C_4
REMARK    3  A    between atoms: C_4  and  C_5
REMARK    4  A    between atoms: C_5  and  C_6
REMARK    5  A    between atoms: C_6  and  C_8
REMARK    6  A    between atoms: C_9  and  C_10
REMARK    7  A    between atoms: C_17  and  C_18
REMARK    8  A    between atoms: C_18  and  C_19
REMARK    9  A    between atoms: C_19  and  C_20
REMARK   10  A    between atoms: C_20  and  C_21
REMARK                            x       y       z     vdW  Elec       q    Type
REMARK                         _______ _______ _______ _____ _____    ______ ____
ROOT
ATOM      1  C   UNL     1     -10.241  16.587  67.257  0.00  0.00    +0.056 C 
ATOM      2  C   UNL     1      -9.429  17.961  66.843  0.00  0.00    +0.054 C 
ATOM      3  C   UNL     1      -7.930  17.382  66.340  0.00  0.00    +0.169 C 
ATOM      4  O   UNL     1      -7.146  17.958  67.550  0.00  0.00    -0.484 OA
ATOM      5  C   UNL     1      -7.783  19.203  67.589  0.00  0.00    +0.112 C 
ATOM      6  C   UNL     1      -7.375  20.416  67.712  0.00  0.00    +0.006 C 
ATOM      7  C   UNL     1      -7.925  15.882  66.815  0.00  0.00    +0.077 C 
ATOM      8  C   UNL     1      -8.976  18.574  68.261  0.00  0.00    +0.068 C 
ATOM      9  C   UNL     1      -9.036  15.601  67.908  0.00  0.00    +0.160 C 
ATOM     10  O   UNL     1      -8.498  16.547  68.962  0.00  0.00    -0.223 OA
ENDROOT
BRANCH   1  12
ATOM     11  C   UNL     1     -10.971  15.538  65.026  0.00  0.00    +0.002 C 
ATOM     12  C   UNL     1     -10.146  16.029  65.765  0.00  0.00    -0.026 C 
BRANCH  11  13
ATOM     13  C   UNL     1     -12.068  14.365  65.172  0.00  0.00    +0.174 C 
ATOM     14  O   UNL     1     -12.508  14.551  63.724  0.00  0.00    -0.218 OA
BRANCH  13  15
ATOM     15  C   UNL     1     -11.013  13.176  64.731  0.00  0.00    +0.037 C 
BRANCH  15  16
ATOM     16  C   UNL     1     -11.573  12.166  65.722  0.00  0.00    +0.003 C 
BRANCH  16  17
ATOM     17  C   UNL     1     -10.711  12.412  66.958  0.00  0.00    +0.000 C 
BRANCH  17  19
ATOM     18  C   UNL     1     -11.848  13.412  68.797  0.00  0.00    +0.000 C 
ATOM     19  C   UNL     1     -11.688  12.099  68.090  0.00  0.00    +0.000 C 
ENDBRANCH  17  19
ENDBRANCH  16  17
ENDBRANCH  15  16
ENDBRANCH  13  15
ENDBRANCH  11  13
ENDBRANCH   1  12
BRANCH   6  20
ATOM     20  C   UNL     1      -5.952  20.668  68.070  0.00  0.00    +0.029 C 
BRANCH  20  21
ATOM     21  C   UNL     1      -5.865  20.459  69.560  0.00  0.00    +0.017 C 
BRANCH  21  22
ATOM     22  C   UNL     1      -4.391  20.507  69.934  0.00  0.00    +0.114 C 
BRANCH  22  23
ATOM     23  C   UNL     1      -4.307  21.001  71.328  0.00  0.00    +0.365 C 
ATOM     24  O   UNL     1      -3.912  20.244  72.362  0.00  0.00    -0.246 OA
ATOM     25  O   UNL     1      -4.547  22.217  71.534  0.00  0.00    -0.246 OA
ENDBRANCH  22  23
ENDBRANCH  21  22
ENDBRANCH  20  21
ENDBRANCH   6  20
TORSDOF 10
ENDMDL
MODEL 3
REMARK VINA RESULT:      -6.5      1.021      1.174
REMARK  Name = 
REMARK  10 active torsions:
REMARK  status: ('A' for Active; 'I' for Inactive)
REMARK    1  A    between atoms: C_2  and  C_3
REMARK    2  A    between atoms: C_3  and  C_4
REMARK    3  A    between atoms: C_4  and  C_5
REMARK    4  A    between atoms: C_5  and  C_6
REMARK    5  A    between atoms: C_6  and  C_8
REMARK    6  A    between atoms: C_9  and  C_10
REMARK    7  A    between atoms: C_17  and  C_18
REMARK    8  A    between atoms: C_18  and  C_19
REMARK    9  A    between atoms: C_19  and  C_20
REMARK   10  A    between atoms: C_20  and  C_21
REMARK                            x       y       z     vdW  Elec       q    Type
REMARK                         _______ _______ _______ _____ _____    ______ ____
ROOT
ATOM      1  C   UNL     1      -9.790  17.387  66.814  0.00  0.00    +0.056 C 
ATOM      2  C   UNL     1      -8.529  17.814  67.786  0.00  0.00    +0.054 C 
ATOM      3  C   UNL     1      -9.059  19.249  68.490  0.00  0.00    +0.169 C 
ATOM      4  O   UNL     1      -8.049  20.156  67.735  0.00  0.00    -0.484 OA
ATOM      5  C   UNL     1      -6.936  19.319  67.870  0.00  0.00    +0.112 C 
ATOM      6  C   UNL     1      -5.707  19.508  68.196  0.00  0.00    +0.006 C 
ATOM      7  C   UNL     1     -10.326  19.641  67.642  0.00  0.00    +0.077 C 
ATOM      8  C   UNL     1      -7.458  18.442  66.762  0.00  0.00    +0.068 C 
ATOM      9  C   UNL     1     -10.379  18.868  66.261  0.00  0.00    +0.160 C 
ATOM     10  O   UNL     1      -9.096  19.434  65.686  0.00  0.00    -0.223 OA
ENDROOT
BRANCH   1  12
ATOM     11  C   UNL     1     -11.128  16.306  68.725  0.00  0.00    +0.002 C 
ATOM     12  C   UNL     1     -10.770  17.258  68.067  0.00  0.00    -0.026 C 
BRANCH  11  13
ATOM     13  C   UNL     1     -11.719  14.845  68.378  0.00  0.00    +0.174 C 
ATOM     14  O   UNL     1     -10.312  14.278  68.221  0.00  0.00    -0.218 OA
BRANCH  13  15
ATOM     15  C   UNL     1     -11.767  14.371  69.957  0.00  0.00    +0.037 C 
BRANCH  15  16
ATOM     16  C   UNL     1     -12.499  15.623  70.420  0.00  0.00    +0.003 C 
BRANCH  16  17
ATOM     17  C   UNL     1     -13.460  15.068  71.468  0.00  0.00    +0.000 C 
BRANCH  17  19
ATOM     18  C   UNL     1     -12.870  15.923  73.612  0.00  0.00    +0.000 C 
ATOM     19  C   UNL     1     -12.526  14.823  72.652  0.00  0.00    +0.000 C 
ENDBRANCH  17  19
ENDBRANCH  16  17
ENDBRANCH  15  16
ENDBRANCH  13  15
ENDBRANCH  11  13
ENDBRANCH   1  12
BRANCH   6  20
ATOM     20  C   UNL     1      -5.194  20.901  68.310  0.00  0.00    +0.029 C 
BRANCH  20  21
ATOM     21  C   UNL     1      -4.211  20.881  69.452  0.00  0.00    +0.017 C 
BRANCH  21  22
ATOM     22  C   UNL     1      -4.970  20.424  70.689  0.00  0.00    +0.114 C 
BRANCH  22  23
ATOM     23  C   UNL     1      -4.268  20.983  71.867  0.00  0.00    +0.365 C 
ATOM     24  O   UNL     1      -4.418  22.247  72.292  0.00  0.00    -0.246 OA
ATOM     25  O   UNL     1      -3.552  20.205  72.545  0.00  0.00    -0.246 OA
ENDBRANCH  22  23
ENDBRANCH  21  22
ENDBRANCH  20  21
ENDBRANCH   6  20
TORSDOF 10
ENDMDL
MODEL 4
REMARK VINA RESULT:      -6.5      3.146      4.803
REMARK  Name = 
REMARK  10 active torsions:
REMARK  status: ('A' for Active; 'I' for Inactive)
REMARK    1  A    between atoms: C_2  and  C_3
REMARK    2  A    between atoms: C_3  and  C_4
REMARK    3  A    between atoms: C_4  and  C_5
REMARK    4  A    between atoms: C_5  and  C_6
REMARK    5  A    between atoms: C_6  and  C_8
REMARK    6  A    between atoms: C_9  and  C_10
REMARK    7  A    between atoms: C_17  and  C_18
REMARK    8  A    between atoms: C_18  and  C_19
REMARK    9  A    between atoms: C_19  and  C_20
REMARK   10  A    between atoms: C_20  and  C_21
REMARK                            x       y       z     vdW  Elec       q    Type
REMARK                         _______ _______ _______ _____ _____    ______ ____
ROOT
ATOM      1  C   UNL     1     -10.414  17.076  66.425  0.00  0.00    +0.056 C 
ATOM      2  C   UNL     1      -8.797  17.394  66.464  0.00  0.00    +0.054 C 
ATOM      3  C   UNL     1      -8.211  16.258  67.560  0.00  0.00    +0.169 C 
ATOM      4  O   UNL     1      -7.869  17.294  68.665  0.00  0.00    -0.484 OA
ATOM      5  C   UNL     1      -7.311  18.262  67.823  0.00  0.00    +0.112 C 
ATOM      6  C   UNL     1      -6.251  18.988  67.871  0.00  0.00    +0.006 C 
ATOM      7  C   UNL     1      -9.509  15.684  68.241  0.00  0.00    +0.077 C 
ATOM      8  C   UNL     1      -8.691  18.696  67.404  0.00  0.00    +0.068 C 
ATOM      9  C   UNL     1     -10.764  16.622  68.012  0.00  0.00    +0.160 C 
ATOM     10  O   UNL     1     -10.217  17.839  68.732  0.00  0.00    -0.223 OA
ENDROOT
BRANCH   1  12
ATOM     11  C   UNL     1     -10.844  14.844  65.222  0.00  0.00    +0.002 C 
ATOM     12  C   UNL     1     -10.155  15.602  65.868  0.00  0.00    -0.026 C 
BRANCH  11  13
ATOM     13  C   UNL     1     -12.360  14.305  65.345  0.00  0.00    +0.174 C 
ATOM     14  O   UNL     1     -12.547  14.390  63.834  0.00  0.00    -0.218 OA
BRANCH  13  15
ATOM     15  C   UNL     1     -11.919  12.719  65.232  0.00  0.00    +0.037 C 
BRANCH  15  16
ATOM     16  C   UNL     1     -11.646  12.793  63.737  0.00  0.00    +0.003 C 
BRANCH  16  17
ATOM     17  C   UNL     1     -10.950  11.461  63.469  0.00  0.00    +0.000 C 
BRANCH  17  19
ATOM     18  C   UNL     1      -9.573   9.897  64.623  0.00  0.00    +0.000 C 
ATOM     19  C   UNL     1     -10.489  11.059  64.869  0.00  0.00    +0.000 C 
ENDBRANCH  17  19
ENDBRANCH  16  17
ENDBRANCH  15  16
ENDBRANCH  13  15
ENDBRANCH  11  13
ENDBRANCH   1  12
BRANCH   6  20
ATOM     20  C   UNL     1      -5.452  19.020  69.126  0.00  0.00    +0.029 C 
BRANCH  20  21
ATOM     21  C   UNL     1      -5.925  20.239  69.877  0.00  0.00    +0.017 C 
BRANCH  21  22
ATOM     22  C   UNL     1      -5.707  19.965  71.358  0.00  0.00    +0.114 C 
BRANCH  22  23
ATOM     23  C   UNL     1      -4.526  20.753  71.781  0.00  0.00    +0.365 C 
ATOM     24  O   UNL     1      -4.378  22.063  71.530  0.00  0.00    -0.246 OA
ATOM     25  O   UNL     1      -3.656  20.175  72.479  0.00  0.00    -0.246 OA
ENDBRANCH  22  23
ENDBRANCH  21  22
ENDBRANCH  20  21
ENDBRANCH   6  20
TORSDOF 10
ENDMDL
MODEL 5
REMARK VINA RESULT:      -6.4      2.796      4.068
REMARK  Name = 
REMARK  10 active torsions:
REMARK  status: ('A' for Active; 'I' for Inactive)
REMARK    1  A    between atoms: C_2  and  C_3
REMARK    2  A    between atoms: C_3  and  C_4
REMARK    3  A    between atoms: C_4  and  C_5
REMARK    4  A    between atoms: C_5  and  C_6
REMARK    5  A    between atoms: C_6  and  C_8
REMARK    6  A    between atoms: C_9  and  C_10
REMARK    7  A    between atoms: C_17  and  C_18
REMARK    8  A    between atoms: C_18  and  C_19
REMARK    9  A    between atoms: C_19  and  C_20
REMARK   10  A    between atoms: C_20  and  C_21
REMARK                            x       y       z     vdW  Elec       q    Type
REMARK                         _______ _______ _______ _____ _____    ______ ____
ROOT
ATOM      1  C   UNL     1      -9.578  17.202  66.298  0.00  0.00    +0.056 C 
ATOM      2  C   UNL     1      -8.208  17.559  67.144  0.00  0.00    +0.054 C 
ATOM      3  C   UNL     1      -8.785  18.464  68.441  0.00  0.00    +0.169 C 
ATOM      4  O   UNL     1      -8.161  19.804  67.964  0.00  0.00    -0.484 OA
ATOM      5  C   UNL     1      -6.924  19.285  67.569  0.00  0.00    +0.112 C 
ATOM      6  C   UNL     1      -5.703  19.649  67.740  0.00  0.00    +0.006 C 
ATOM      7  C   UNL     1     -10.269  18.798  68.040  0.00  0.00    +0.077 C 
ATOM      8  C   UNL     1      -7.546  18.760  66.301  0.00  0.00    +0.068 C 
ATOM      9  C   UNL     1     -10.529  18.583  66.493  0.00  0.00    +0.160 C 
ATOM     10  O   UNL     1      -9.543  19.622  65.995  0.00  0.00    -0.223 OA
ENDROOT
BRANCH   1  12
ATOM     11  C   UNL     1     -10.181  15.212  67.811  0.00  0.00    +0.002 C 
ATOM     12  C   UNL     1     -10.181  16.392  67.534  0.00  0.00    -0.026 C 
BRANCH  11  13
ATOM     13  C   UNL     1     -10.549  13.860  67.012  0.00  0.00    +0.174 C 
ATOM     14  O   UNL     1     -11.096  13.219  68.283  0.00  0.00    -0.218 OA
BRANCH  13  15
ATOM     15  C   UNL     1     -12.055  14.389  66.594  0.00  0.00    +0.037 C 
BRANCH  15  16
ATOM     16  C   UNL     1     -11.885  14.038  65.123  0.00  0.00    +0.003 C 
BRANCH  16  17
ATOM     17  C   UNL     1     -12.366  12.590  65.078  0.00  0.00    +0.000 C 
BRANCH  17  19
ATOM     18  C   UNL     1     -10.732  11.981  63.455  0.00  0.00    +0.000 C 
ATOM     19  C   UNL     1     -12.200  12.249  63.598  0.00  0.00    +0.000 C 
ENDBRANCH  17  19
ENDBRANCH  16  17
ENDBRANCH  15  16
ENDBRANCH  13  15
ENDBRANCH  11  13
ENDBRANCH   1  12
BRANCH   6  20
ATOM     20  C   UNL     1      -5.423  20.991  68.320  0.00  0.00    +0.029 C 
BRANCH  20  21
ATOM     21  C   UNL     1      -5.421  20.795  69.815  0.00  0.00    +0.017 C 
BRANCH  21  22
ATOM     22  C   UNL     1      -3.980  20.933  70.283  0.00  0.00    +0.114 C 
BRANCH  22  23
ATOM     23  C   UNL     1      -4.011  21.124  71.751  0.00  0.00    +0.365 C 
ATOM     24  O   UNL     1      -4.476  22.232  72.348  0.00  0.00    -0.246 OA
ATOM     25  O   UNL     1      -3.652  20.161  72.474  0.00  0.00    -0.246 OA
ENDBRANCH  22  23
ENDBRANCH  21  22
ENDBRANCH  20  21
ENDBRANCH   6  20
TORSDOF 10
ENDMDL
MODEL 6
REMARK VINA RESULT:      -6.2      3.200      7.353
REMARK  Name = 
REMARK  10 active torsions:
REMARK  status: ('A' for Active; 'I' for Inactive)
REMARK    1  A    between atoms: C_2  and  C_3
REMARK    2  A    between atoms: C_3  and  C_4
REMARK    3  A    between atoms: C_4  and  C_5
REMARK    4  A    between atoms: C_5  and  C_6
REMARK    5  A    between atoms: C_6  and  C_8
REMARK    6  A    between atoms: C_9  and  C_10
REMARK    7  A    between atoms: C_17  and  C_18
REMARK    8  A    between atoms: C_18  and  C_19
REMARK    9  A    between atoms: C_19  and  C_20
REMARK   10  A    between atoms: C_20  and  C_21
REMARK                            x       y       z     vdW  Elec       q    Type
REMARK                         _______ _______ _______ _____ _____    ______ ____
ROOT
ATOM      1  C   UNL     1      -9.616  16.026  66.623  0.00  0.00    +0.056 C 
ATOM      2  C   UNL     1      -9.958  15.855  68.228  0.00  0.00    +0.054 C 
ATOM      3  C   UNL     1      -9.594  14.238  68.525  0.00  0.00    +0.169 C 
ATOM      4  O   UNL     1     -11.068  13.802  68.744  0.00  0.00    -0.484 OA
ATOM      5  C   UNL     1     -11.459  14.904  69.511  0.00  0.00    +0.112 C 
ATOM      6  C   UNL     1     -12.133  15.046  70.597  0.00  0.00    +0.006 C 
ATOM      7  C   UNL     1      -9.428  13.617  67.089  0.00  0.00    +0.077 C 
ATOM      8  C   UNL     1     -11.562  15.740  68.263  0.00  0.00    +0.068 C 
ATOM      9  C   UNL     1     -10.063  14.537  65.967  0.00  0.00    +0.160 C 
ATOM     10  O   UNL     1     -11.492  14.476  66.467  0.00  0.00    -0.223 OA
ENDROOT
BRANCH   1  12
ATOM     11  C   UNL     1      -7.098  16.354  67.025  0.00  0.00    +0.002 C 
ATOM     12  C   UNL     1      -8.081  15.664  66.867  0.00  0.00    -0.026 C 
BRANCH  11  13
ATOM     13  C   UNL     1      -6.461  17.616  66.248  0.00  0.00    +0.174 C 
ATOM     14  O   UNL     1      -7.749  17.821  65.458  0.00  0.00    -0.218 OA
BRANCH  13  15
ATOM     15  C   UNL     1      -6.952  18.702  67.388  0.00  0.00    +0.037 C 
BRANCH  15  16
ATOM     16  C   UNL     1      -8.007  19.329  66.488  0.00  0.00    +0.003 C 
BRANCH  16  17
ATOM     17  C   UNL     1      -8.753  20.247  67.454  0.00  0.00    +0.000 C 
BRANCH  17  19
ATOM     18  C   UNL     1     -10.558  19.691  66.003  0.00  0.00    +0.000 C 
ATOM     19  C   UNL     1     -10.154  19.638  67.446  0.00  0.00    +0.000 C 
ENDBRANCH  17  19
ENDBRANCH  16  17
ENDBRANCH  15  16
ENDBRANCH  13  15
ENDBRANCH  11  13
ENDBRANCH   1  12
BRANCH   6  20
ATOM     20  C   UNL     1     -12.851  13.871  71.163  0.00  0.00    +0.029 C 
BRANCH  20  21
ATOM     21  C   UNL     1     -13.543  14.376  72.403  0.00  0.00    +0.017 C 
BRANCH  21  22
ATOM     22  C   UNL     1     -13.049  15.794  72.647  0.00  0.00    +0.114 C 
BRANCH  22  23
ATOM     23  C   UNL     1     -12.530  15.846  74.033  0.00  0.00    +0.365 C 
ATOM     24  O   UNL     1     -12.459  16.972  74.759  0.00  0.00    -0.246 OA
ATOM     25  O   UNL     1     -12.212  14.761  74.581  0.00  0.00    -0.246 OA
ENDBRANCH  22  23
ENDBRANCH  21  22
ENDBRANCH  20  21
ENDBRANCH   6  20
TORSDOF 10
ENDMDL
MODEL 7
REMARK VINA RESULT:      -6.1      2.446      7.625
REMARK  Name = 
REMARK  10 active torsions:
REMARK  status: ('A' for Active; 'I' for Inactive)
REMARK    1  A    between atoms: C_2  and  C_3
REMARK    2  A    between atoms: C_3  and  C_4
REMARK    3  A    between atoms: C_4  and  C_5
REMARK    4  A    between atoms: C_5  and  C_6
REMARK    5  A    between atoms: C_6  and  C_8
REMARK    6  A    between atoms: C_9  and  C_10
REMARK    7  A    between atoms: C_17  and  C_18
REMARK    8  A    between atoms: C_18  and  C_19
REMARK    9  A    between atoms: C_19  and  C_20
REMARK   10  A    between atoms: C_20  and  C_21
REMARK                            x       y       z     vdW  Elec       q    Type
REMARK                         _______ _______ _______ _____ _____    ______ ____
ROOT
ATOM      1  C   UNL     1      -8.851  19.631  67.400  0.00  0.00    +0.056 C 
ATOM      2  C   UNL     1      -8.870  18.133  68.088  0.00  0.00    +0.054 C 
ATOM      3  C   UNL     1      -9.612  17.182  66.913  0.00  0.00    +0.169 C 
ATOM      4  O   UNL     1     -10.916  16.952  67.724  0.00  0.00    -0.484 OA
ATOM      5  C   UNL     1     -10.308  16.728  68.963  0.00  0.00    +0.112 C 
ATOM      6  C   UNL     1     -10.469  15.859  69.897  0.00  0.00    +0.006 C 
ATOM      7  C   UNL     1     -10.208  18.229  65.900  0.00  0.00    +0.077 C 
ATOM      8  C   UNL     1     -10.095  18.210  69.129  0.00  0.00    +0.068 C 
ATOM      9  C   UNL     1     -10.295  19.680  66.528  0.00  0.00    +0.160 C 
ATOM     10  O   UNL     1     -11.259  19.338  67.646  0.00  0.00    -0.223 OA
ENDROOT
BRANCH   1  12
ATOM     11  C   UNL     1      -6.780  19.343  65.903  0.00  0.00    +0.002 C 
ATOM     12  C   UNL     1      -7.932  19.117  66.200  0.00  0.00    -0.026 C 
BRANCH  11  13
ATOM     13  C   UNL     1      -5.895  20.681  65.730  0.00  0.00    +0.174 C 
ATOM     14  O   UNL     1      -6.758  21.422  66.746  0.00  0.00    -0.218 OA
BRANCH  13  15
ATOM     15  C   UNL     1      -4.822  20.253  66.908  0.00  0.00    +0.037 C 
BRANCH  15  16
ATOM     16  C   UNL     1      -5.460  21.148  67.960  0.00  0.00    +0.003 C 
BRANCH  16  17
ATOM     17  C   UNL     1      -4.863  20.601  69.255  0.00  0.00    +0.000 C 
BRANCH  17  19
ATOM     18  C   UNL     1      -5.716  18.529  70.063  0.00  0.00    +0.000 C 
ATOM     19  C   UNL     1      -6.086  19.976  69.926  0.00  0.00    +0.000 C 
ENDBRANCH  17  19
ENDBRANCH  16  17
ENDBRANCH  15  16
ENDBRANCH  13  15
ENDBRANCH  11  13
ENDBRANCH   1  12
BRANCH   6  20
ATOM     20  C   UNL     1     -11.643  14.945  69.841  0.00  0.00    +0.029 C 
BRANCH  20  21
ATOM     21  C   UNL     1     -12.656  15.525  70.794  0.00  0.00    +0.017 C 
BRANCH  21  22
ATOM     22  C   UNL     1     -11.941  15.769  72.114  0.00  0.00    +0.114 C 
BRANCH  22  23
ATOM     23  C   UNL     1     -12.689  15.036  73.162  0.00  0.00    +0.365 C 
ATOM     24  O   UNL     1     -13.588  14.076  72.898  0.00  0.00    -0.246 OA
ATOM     25  O   UNL     1     -12.406  15.278  74.362  0.00  0.00    -0.246 OA
ENDBRANCH  22  23
ENDBRANCH  21  22
ENDBRANCH  20  21
ENDBRANCH   6  20
TORSDOF 10
ENDMDL
MODEL 8
REMARK VINA RESULT:      -6.1      3.027      8.988
REMARK  Name = 
REMARK  10 active torsions:
REMARK  status: ('A' for Active; 'I' for Inactive)
REMARK    1  A    between atoms: C_2  and  C_3
REMARK    2  A    between atoms: C_3  and  C_4
REMARK    3  A    between atoms: C_4  and  C_5
REMARK    4  A    between atoms: C_5  and  C_6
REMARK    5  A    between atoms: C_6  and  C_8
REMARK    6  A    between atoms: C_9  and  C_10
REMARK    7  A    between atoms: C_17  and  C_18
REMARK    8  A    between atoms: C_18  and  C_19
REMARK    9  A    between atoms: C_19  and  C_20
REMARK   10  A    between atoms: C_20  and  C_21
REMARK                            x       y       z     vdW  Elec       q    Type
REMARK                         _______ _______ _______ _____ _____    ______ ____
ROOT
ATOM      1  C   UNL     1      -8.830  18.819  68.726  0.00  0.00    +0.056 C 
ATOM      2  C   UNL     1      -9.064  17.200  68.519  0.00  0.00    +0.054 C 
ATOM      3  C   UNL     1      -8.990  17.015  66.847  0.00  0.00    +0.169 C 
ATOM      4  O   UNL     1     -10.497  16.681  66.677  0.00  0.00    -0.484 OA
ATOM      5  C   UNL     1     -10.608  15.829  67.781  0.00  0.00    +0.112 C 
ATOM      6  C   UNL     1     -11.150  14.679  67.976  0.00  0.00    +0.006 C 
ATOM      7  C   UNL     1      -9.065  18.488  66.299  0.00  0.00    +0.077 C 
ATOM      8  C   UNL     1     -10.653  17.021  68.700  0.00  0.00    +0.068 C 
ATOM      9  C   UNL     1      -9.603  19.501  67.390  0.00  0.00    +0.160 C 
ATOM     10  O   UNL     1     -10.972  18.874  67.563  0.00  0.00    -0.223 OA
ENDROOT
BRANCH   1  12
ATOM     11  C   UNL     1      -6.331  19.288  68.339  0.00  0.00    +0.002 C 
ATOM     12  C   UNL     1      -7.376  18.737  68.072  0.00  0.00    -0.026 C 
BRANCH  11  13
ATOM     13  C   UNL     1      -5.894  20.817  68.612  0.00  0.00    +0.174 C 
ATOM     14  O   UNL     1      -4.429  20.478  68.356  0.00  0.00    -0.218 OA
BRANCH  13  15
ATOM     15  C   UNL     1      -6.096  21.268  67.038  0.00  0.00    +0.037 C 
BRANCH  15  16
ATOM     16  C   UNL     1      -4.726  20.764  66.608  0.00  0.00    +0.003 C 
BRANCH  16  17
ATOM     17  C   UNL     1      -4.791  20.905  65.089  0.00  0.00    +0.000 C 
BRANCH  17  19
ATOM     18  C   UNL     1      -5.630  19.372  63.470  0.00  0.00    +0.000 C 
ATOM     19  C   UNL     1      -6.016  20.059  64.746  0.00  0.00    +0.000 C 
ENDBRANCH  17  19
ENDBRANCH  16  17
ENDBRANCH  15  16
ENDBRANCH  13  15
ENDBRANCH  11  13
ENDBRANCH   1  12
BRANCH   6  20
ATOM     20  C   UNL     1     -12.029  14.107  66.920  0.00  0.00    +0.029 C 
BRANCH  20  21
ATOM     21  C   UNL     1     -11.231  12.998  66.283  0.00  0.00    +0.017 C 
BRANCH  21  22
ATOM     22  C   UNL     1     -10.907  13.438  64.863  0.00  0.00    +0.114 C 
BRANCH  22  23
ATOM     23  C   UNL     1     -12.177  13.428  64.100  0.00  0.00    +0.365 C 
ATOM     24  O   UNL     1     -12.902  12.321  63.879  0.00  0.00    -0.246 OA
ATOM     25  O   UNL     1     -12.632  14.530  63.706  0.00  0.00    -0.246 OA
ENDBRANCH  22  23
ENDBRANCH  21  22
ENDBRANCH  20  21
ENDBRANCH   6  20
TORSDOF 10
ENDMDL
MODEL 9
REMARK VINA RESULT:      -6.0      3.299      8.925
REMARK  Name = 
REMARK  10 active torsions:
REMARK  status: ('A' for Active; 'I' for Inactive)
REMARK    1  A    between atoms: C_2  and  C_3
REMARK    2  A    between atoms: C_3  and  C_4
REMARK    3  A    between atoms: C_4  and  C_5
REMARK    4  A    between atoms: C_5  and  C_6
REMARK    5  A    between atoms: C_6  and  C_8
REMARK    6  A    between atoms: C_9  and  C_10
REMARK    7  A    between atoms: C_17  and  C_18
REMARK    8  A    between atoms: C_18  and  C_19
REMARK    9  A    between atoms: C_19  and  C_20
REMARK   10  A    between atoms: C_20  and  C_21
REMARK                            x       y       z     vdW  Elec       q    Type
REMARK                         _______ _______ _______ _____ _____    ______ ____
ROOT
ATOM      1  C   UNL     1      -9.187  19.194  68.753  0.00  0.00    +0.056 C 
ATOM      2  C   UNL     1      -9.107  17.712  68.035  0.00  0.00    +0.054 C 
ATOM      3  C   UNL     1      -8.795  18.085  66.423  0.00  0.00    +0.169 C 
ATOM      4  O   UNL     1     -10.187  17.635  65.904  0.00  0.00    -0.484 OA
ATOM      5  C   UNL     1     -10.284  16.467  66.667  0.00  0.00    +0.112 C 
ATOM      6  C   UNL     1     -10.637  15.257  66.413  0.00  0.00    +0.006 C 
ATOM      7  C   UNL     1      -9.057  19.635  66.336  0.00  0.00    +0.077 C 
ATOM      8  C   UNL     1     -10.650  17.284  67.877  0.00  0.00    +0.068 C 
ATOM      9  C   UNL     1      -9.896  20.166  67.569  0.00  0.00    +0.160 C 
ATOM     10  O   UNL     1     -11.145  19.347  67.307  0.00  0.00    -0.223 OA
ENDROOT
BRANCH   1  12
ATOM     11  C   UNL     1      -6.643  19.469  69.004  0.00  0.00    +0.002 C 
ATOM     12  C   UNL     1      -7.672  19.512  68.366  0.00  0.00    -0.026 C 
BRANCH  11  13
ATOM     13  C   UNL     1      -6.176  20.035  70.441  0.00  0.00    +0.174 C 
ATOM     14  O   UNL     1      -5.197  18.878  70.614  0.00  0.00    -0.218 OA
BRANCH  13  15
ATOM     15  C   UNL     1      -4.988  20.984  69.800  0.00  0.00    +0.037 C 
BRANCH  15  16
ATOM     16  C   UNL     1      -4.001  19.835  69.659  0.00  0.00    +0.003 C 
BRANCH  16  17
ATOM     17  C   UNL     1      -2.894  20.460  68.812  0.00  0.00    +0.000 C 
BRANCH  17  19
ATOM     18  C   UNL     1      -3.502  19.529  66.706  0.00  0.00    +0.000 C 
ATOM     19  C   UNL     1      -3.635  20.784  67.516  0.00  0.00    +0.000 C 
ENDBRANCH  17  19
ENDBRANCH  16  17
ENDBRANCH  15  16
ENDBRANCH  13  15
ENDBRANCH  11  13
ENDBRANCH   1  12
BRANCH   6  20
ATOM     20  C   UNL     1     -11.264  14.947  65.099  0.00  0.00    +0.029 C 
BRANCH  20  21
ATOM     21  C   UNL     1     -12.390  13.991  65.400  0.00  0.00    +0.017 C 
BRANCH  21  22
ATOM     22  C   UNL     1     -11.810  12.585  65.346  0.00  0.00    +0.114 C 
BRANCH  22  23
ATOM     23  C   UNL     1     -11.841  12.152  63.930  0.00  0.00    +0.365 C 
ATOM     24  O   UNL     1     -12.972  11.996  63.225  0.00  0.00    -0.246 OA
ATOM     25  O   UNL     1     -10.743  11.996  63.341  0.00  0.00    -0.246 OA
ENDBRANCH  22  23
ENDBRANCH  21  22
ENDBRANCH  20  21
ENDBRANCH   6  20
TORSDOF 10
ENDMDL
