MODEL 1
REMARK VINA RESULT:      -9.3      0.000      0.000
REMARK  Name = 
REMARK  6 active torsions:
REMARK  status: ('A' for Active; 'I' for Inactive)
REMARK    1  A    between atoms: N_4  and  C_5
REMARK    2  A    between atoms: C_7  and  N_8
REMARK    3  A    between atoms: C_9  and  C_11
REMARK    4  A    between atoms: C_16  and  N_17
REMARK    5  A    between atoms: C_22  and  C_23
REMARK    6  A    between atoms: C_32  and  C_33
REMARK                            x       y       z     vdW  Elec       q    Type
REMARK                         _______ _______ _______ _____ _____    ______ ____
ROOT
ATOM      1  C   UNL     1     -10.435  13.140  64.583  0.00  0.00    +0.057 A 
ATOM      2  C   UNL     1      -9.648  12.424  65.476  0.00  0.00    +0.021 A 
ATOM      3  C   UNL     1      -9.368  11.083  65.251  0.00  0.00    +0.070 A 
ATOM      4  C   UNL     1      -9.808  10.470  64.088  0.00  0.00    -0.006 A 
ATOM      5  C   UNL     1      -8.971   9.456  63.382  0.00  0.00    +0.032 C 
ATOM      6  C   UNL     1     -10.945  11.021  63.516  0.00  0.00    -0.003 A 
ATOM      7  C   UNL     1     -11.229  12.360  63.751  0.00  0.00    +0.004 A 
ENDROOT
BRANCH   3   8
ATOM      8  N   UNL     1      -8.420  10.409  66.056  0.00  0.00    -0.178 NA
ATOM      9  C   UNL     1      -8.740   9.659  67.207  0.00  0.00    +0.241 A 
ATOM     10  N   UNL     1      -9.645  10.048  68.133  0.00  0.00    -0.212 NA
ATOM     11  C   UNL     1      -9.933   9.182  69.132  0.00  0.00    +0.087 A 
ATOM     12  C   UNL     1      -9.687   7.832  68.916  0.00  0.00    +0.040 A 
ATOM     13  C   UNL     1      -8.630   7.481  68.085  0.00  0.00    +0.103 A 
ATOM     14  N   UNL     1      -8.068   8.498  67.391  0.00  0.00    -0.211 NA
BRANCH  11  15
ATOM     15  C   UNL     1     -10.824   9.647  70.202  0.00  0.00    +0.037 A 
ATOM     16  C   UNL     1     -11.834  10.562  69.962  0.00  0.00    +0.100 A 
ATOM     17  N   UNL     1     -12.880  10.689  70.812  0.00  0.00    -0.242 NA
ATOM     18  C   UNL     1     -13.214   9.634  71.593  0.00  0.00    +0.099 A 
ATOM     19  C   UNL     1     -12.174   8.828  72.040  0.00  0.00    +0.021 A 
ATOM     20  C   UNL     1     -10.989   8.838  71.317  0.00  0.00    +0.005 A 
ENDBRANCH  11  15
ENDBRANCH   3   8
BRANCH   1  22
ATOM     21  N   UNL     1     -10.117  15.474  65.527  0.00  0.00    -0.175 NA
ATOM     22  C   UNL     1     -10.887  14.500  64.846  0.00  0.00    +0.269 C 
ATOM     23  O   UNL     1     -12.143  14.676  64.853  0.00  0.00    -0.268 OA
BRANCH  21  28
ATOM     24  C   UNL     1     -11.081  16.166  69.038  0.00  0.00    +0.067 A 
ATOM     25  C   UNL     1     -10.419  17.378  69.146  0.00  0.00    +0.022 A 
ATOM     26  C   UNL     1     -10.177  18.161  68.024  0.00  0.00    +0.074 A 
ATOM     27  C   UNL     1     -10.352  17.537  66.803  0.00  0.00    +0.021 A 
ATOM     28  C   UNL     1     -10.595  16.178  66.680  0.00  0.00    +0.075 A 
ATOM     29  C   UNL     1     -10.995  15.516  67.823  0.00  0.00    +0.034 A 
BRANCH  24  34
ATOM     30  C   UNL     1     -12.726  15.422  73.691  0.00  0.00    +0.054 C 
ATOM     31  C   UNL     1     -12.282  15.192  72.285  0.00  0.00    +0.079 A 
ATOM     32  N   UNL     1     -12.604  14.106  71.542  0.00  0.00    -0.228 NA
ATOM     33  C   UNL     1     -12.135  14.344  70.292  0.00  0.00    +0.182 A 
ATOM     34  N   UNL     1     -11.653  15.588  70.194  0.00  0.00    -0.287 N 
ATOM     35  C   UNL     1     -11.676  16.108  71.433  0.00  0.00    +0.096 A 
ENDBRANCH  24  34
BRANCH  26  36
ATOM     36  C   UNL     1      -9.429  19.449  68.161  0.00  0.00    +0.419 C 
ATOM     37  F   UNL     1      -8.977  19.818  66.897  0.00  0.00    -0.166 F 
ATOM     38  F   UNL     1      -8.408  19.364  69.076  0.00  0.00    -0.166 F 
ATOM     39  F   UNL     1     -10.380  20.395  68.530  0.00  0.00    -0.166 F 
ENDBRANCH  26  36
ENDBRANCH  21  28
ENDBRANCH   1  22
TORSDOF 6
ENDMDL
MODEL 2
REMARK VINA RESULT:      -8.7      2.796      5.890
REMARK  Name = 
REMARK  6 active torsions:
REMARK  status: ('A' for Active; 'I' for Inactive)
REMARK    1  A    between atoms: N_4  and  C_5
REMARK    2  A    between atoms: C_7  and  N_8
REMARK    3  A    between atoms: C_9  and  C_11
REMARK    4  A    between atoms: C_16  and  N_17
REMARK    5  A    between atoms: C_22  and  C_23
REMARK    6  A    between atoms: C_32  and  C_33
REMARK                            x       y       z     vdW  Elec       q    Type
REMARK                         _______ _______ _______ _____ _____    ______ ____
ROOT
ATOM      1  C   UNL     1     -12.434  13.827  70.553  0.00  0.00    +0.057 A 
ATOM      2  C   UNL     1     -11.861  12.837  69.765  0.00  0.00    +0.021 A 
ATOM      3  C   UNL     1     -12.055  11.495  70.067  0.00  0.00    +0.070 A 
ATOM      4  C   UNL     1     -12.893  11.135  71.113  0.00  0.00    -0.006 A 
ATOM      5  C   UNL     1     -13.775   9.936  71.021  0.00  0.00    +0.032 C 
ATOM      6  C   UNL     1     -13.019  12.075  72.125  0.00  0.00    -0.003 A 
ATOM      7  C   UNL     1     -12.813  13.414  71.824  0.00  0.00    +0.004 A 
ENDROOT
BRANCH   3   8
ATOM      8  N   UNL     1     -11.630  10.494  69.164  0.00  0.00    -0.178 NA
ATOM      9  C   UNL     1     -10.921  10.744  67.970  0.00  0.00    +0.241 A 
ATOM     10  N   UNL     1     -11.204  11.760  67.125  0.00  0.00    -0.212 NA
ATOM     11  C   UNL     1     -10.376  11.949  66.071  0.00  0.00    +0.087 A 
ATOM     12  C   UNL     1      -9.083  11.450  66.160  0.00  0.00    +0.040 A 
ATOM     13  C   UNL     1      -8.872  10.298  66.907  0.00  0.00    +0.103 A 
ATOM     14  N   UNL     1      -9.921   9.886  67.657  0.00  0.00    -0.211 NA
BRANCH  11  15
ATOM     15  C   UNL     1     -10.746  12.974  65.088  0.00  0.00    +0.037 A 
ATOM     16  C   UNL     1     -11.886  12.860  64.312  0.00  0.00    +0.100 A 
ATOM     17  N   UNL     1     -12.437  13.943  63.716  0.00  0.00    -0.242 NA
ATOM     18  C   UNL     1     -12.208  15.167  64.250  0.00  0.00    +0.099 A 
ATOM     19  C   UNL     1     -10.965  15.373  64.835  0.00  0.00    +0.021 A 
ATOM     20  C   UNL     1     -10.256  14.260  65.263  0.00  0.00    +0.005 A 
ENDBRANCH  11  15
ENDBRANCH   3   8
BRANCH   1  22
ATOM     21  N   UNL     1     -11.834  15.840  69.129  0.00  0.00    -0.175 NA
ATOM     22  C   UNL     1     -12.139  15.242  70.376  0.00  0.00    +0.269 C 
ATOM     23  O   UNL     1     -11.722  15.856  71.405  0.00  0.00    -0.268 OA
BRANCH  21  28
ATOM     24  C   UNL     1      -8.290  16.645  68.401  0.00  0.00    +0.067 A 
ATOM     25  C   UNL     1      -8.543  17.619  67.450  0.00  0.00    +0.022 A 
ATOM     26  C   UNL     1      -9.728  18.343  67.468  0.00  0.00    +0.074 A 
ATOM     27  C   UNL     1     -10.732  17.839  68.272  0.00  0.00    +0.021 A 
ATOM     28  C   UNL     1     -10.644  16.607  68.903  0.00  0.00    +0.075 A 
ATOM     29  C   UNL     1      -9.388  16.042  68.982  0.00  0.00    +0.034 A 
BRANCH  24  34
ATOM     30  C   UNL     1      -3.950  14.212  68.005  0.00  0.00    +0.054 C 
ATOM     31  C   UNL     1      -5.065  15.057  68.523  0.00  0.00    +0.079 A 
ATOM     32  N   UNL     1      -4.933  16.009  69.478  0.00  0.00    -0.228 NA
ATOM     33  C   UNL     1      -6.130  16.639  69.559  0.00  0.00    +0.182 A 
ATOM     34  N   UNL     1      -6.961  16.207  68.604  0.00  0.00    -0.287 N 
ATOM     35  C   UNL     1      -6.343  15.182  67.992  0.00  0.00    +0.096 A 
ENDBRANCH  24  34
BRANCH  26  36
ATOM     36  C   UNL     1      -9.994  19.365  66.409  0.00  0.00    +0.419 C 
ATOM     37  F   UNL     1      -8.794  19.620  65.750  0.00  0.00    -0.166 F 
ATOM     38  F   UNL     1     -10.562  20.507  66.917  0.00  0.00    -0.166 F 
ATOM     39  F   UNL     1     -10.824  18.738  65.484  0.00  0.00    -0.166 F 
ENDBRANCH  26  36
ENDBRANCH  21  28
ENDBRANCH   1  22
TORSDOF 6
ENDMDL
MODEL 3
REMARK VINA RESULT:      -8.6      4.232      6.731
REMARK  Name = 
REMARK  6 active torsions:
REMARK  status: ('A' for Active; 'I' for Inactive)
REMARK    1  A    between atoms: N_4  and  C_5
REMARK    2  A    between atoms: C_7  and  N_8
REMARK    3  A    between atoms: C_9  and  C_11
REMARK    4  A    between atoms: C_16  and  N_17
REMARK    5  A    between atoms: C_22  and  C_23
REMARK    6  A    between atoms: C_32  and  C_33
REMARK                            x       y       z     vdW  Elec       q    Type
REMARK                         _______ _______ _______ _____ _____    ______ ____
ROOT
ATOM      1  C   UNL     1     -11.937  10.350  70.409  0.00  0.00    +0.057 A 
ATOM      2  C   UNL     1     -11.353   9.105  70.610  0.00  0.00    +0.021 A 
ATOM      3  C   UNL     1     -12.035   8.108  71.293  0.00  0.00    +0.070 A 
ATOM      4  C   UNL     1     -13.341   8.324  71.709  0.00  0.00    -0.006 A 
ATOM      5  C   UNL     1     -14.358   7.233  71.666  0.00  0.00    +0.032 C 
ATOM      6  C   UNL     1     -13.682   9.648  71.941  0.00  0.00    -0.003 A 
ATOM      7  C   UNL     1     -12.990  10.644  71.266  0.00  0.00    +0.004 A 
ENDROOT
BRANCH   3   8
ATOM      8  N   UNL     1     -11.520   6.792  71.335  0.00  0.00    -0.178 NA
ATOM      9  C   UNL     1     -10.771   6.261  72.406  0.00  0.00    +0.241 A 
ATOM     10  N   UNL     1      -9.807   6.945  73.063  0.00  0.00    -0.212 NA
ATOM     11  C   UNL     1      -9.243   6.353  74.141  0.00  0.00    +0.087 A 
ATOM     12  C   UNL     1      -9.960   5.355  74.788  0.00  0.00    +0.040 A 
ATOM     13  C   UNL     1     -10.815   4.564  74.032  0.00  0.00    +0.103 A 
ATOM     14  N   UNL     1     -11.029   4.980  72.762  0.00  0.00    -0.211 NA
BRANCH  11  15
ATOM     15  C   UNL     1      -8.116   7.041  74.785  0.00  0.00    +0.037 A 
ATOM     16  C   UNL     1      -7.571   8.197  74.255  0.00  0.00    +0.100 A 
ATOM     17  N   UNL     1      -6.831   9.034  75.019  0.00  0.00    -0.242 NA
ATOM     18  C   UNL     1      -7.025   9.035  76.359  0.00  0.00    +0.099 A 
ATOM     19  C   UNL     1      -7.351   7.819  76.947  0.00  0.00    +0.021 A 
ATOM     20  C   UNL     1      -7.912   6.838  76.142  0.00  0.00    +0.005 A 
ENDBRANCH  11  15
ENDBRANCH   3   8
BRANCH   1  22
ATOM     21  N   UNL     1     -11.741  12.785  69.723  0.00  0.00    -0.175 NA
ATOM     22  C   UNL     1     -11.211  11.477  69.838  0.00  0.00    +0.269 C 
ATOM     23  O   UNL     1     -10.268  11.185  69.042  0.00  0.00    -0.268 OA
BRANCH  21  28
ATOM     24  C   UNL     1     -10.971  15.305  67.117  0.00  0.00    +0.067 A 
ATOM     25  C   UNL     1     -10.849  14.411  66.066  0.00  0.00    +0.022 A 
ATOM     26  C   UNL     1     -11.518  13.194  66.084  0.00  0.00    +0.074 A 
ATOM     27  C   UNL     1     -12.041  12.810  67.304  0.00  0.00    +0.021 A 
ATOM     28  C   UNL     1     -11.790  13.499  68.480  0.00  0.00    +0.075 A 
ATOM     29  C   UNL     1     -11.278  14.774  68.353  0.00  0.00    +0.034 A 
BRANCH  24  34
ATOM     30  C   UNL     1      -9.888  20.121  67.860  0.00  0.00    +0.054 C 
ATOM     31  C   UNL     1     -10.250  18.828  67.209  0.00  0.00    +0.079 A 
ATOM     32  N   UNL     1     -10.084  18.553  65.893  0.00  0.00    -0.228 NA
ATOM     33  C   UNL     1     -10.394  17.243  65.732  0.00  0.00    +0.182 A 
ATOM     34  N   UNL     1     -10.617  16.659  66.915  0.00  0.00    -0.287 N 
ATOM     35  C   UNL     1     -10.597  17.637  67.837  0.00  0.00    +0.096 A 
ENDBRANCH  24  34
BRANCH  26  36
ATOM     36  C   UNL     1     -11.343  12.230  64.954  0.00  0.00    +0.419 C 
ATOM     37  F   UNL     1     -10.960  11.004  65.492  0.00  0.00    -0.166 F 
ATOM     38  F   UNL     1     -10.452  12.687  64.013  0.00  0.00    -0.166 F 
ATOM     39  F   UNL     1     -12.615  12.046  64.420  0.00  0.00    -0.166 F 
ENDBRANCH  26  36
ENDBRANCH  21  28
ENDBRANCH   1  22
TORSDOF 6
ENDMDL
MODEL 4
REMARK VINA RESULT:      -8.5      2.760      5.540
REMARK  Name = 
REMARK  6 active torsions:
REMARK  status: ('A' for Active; 'I' for Inactive)
REMARK    1  A    between atoms: N_4  and  C_5
REMARK    2  A    between atoms: C_7  and  N_8
REMARK    3  A    between atoms: C_9  and  C_11
REMARK    4  A    between atoms: C_16  and  N_17
REMARK    5  A    between atoms: C_22  and  C_23
REMARK    6  A    between atoms: C_32  and  C_33
REMARK                            x       y       z     vdW  Elec       q    Type
REMARK                         _______ _______ _______ _____ _____    ______ ____
ROOT
ATOM      1  C   UNL     1      -9.467   9.702  67.057  0.00  0.00    +0.057 A 
ATOM      2  C   UNL     1      -9.849   9.650  68.391  0.00  0.00    +0.021 A 
ATOM      3  C   UNL     1     -10.346   8.474  68.938  0.00  0.00    +0.070 A 
ATOM      4  C   UNL     1     -10.385   7.318  68.172  0.00  0.00    -0.006 A 
ATOM      5  C   UNL     1     -10.093   5.983  68.769  0.00  0.00    +0.032 C 
ATOM      6  C   UNL     1     -10.483   7.514  66.803  0.00  0.00    -0.003 A 
ATOM      7  C   UNL     1      -9.997   8.695  66.260  0.00  0.00    +0.004 A 
ENDROOT
BRANCH   3   8
ATOM      8  N   UNL     1     -10.558   8.371  70.332  0.00  0.00    -0.178 NA
ATOM      9  C   UNL     1     -11.523   9.109  71.049  0.00  0.00    +0.241 A 
ATOM     10  N   UNL     1     -11.780  10.419  70.838  0.00  0.00    -0.212 NA
ATOM     11  C   UNL     1     -12.806  10.976  71.522  0.00  0.00    +0.087 A 
ATOM     12  C   UNL     1     -13.801  10.135  72.004  0.00  0.00    +0.040 A 
ATOM     13  C   UNL     1     -13.450   8.842  72.370  0.00  0.00    +0.103 A 
ATOM     14  N   UNL     1     -12.201   8.454  72.022  0.00  0.00    -0.211 NA
BRANCH  11  15
ATOM     15  C   UNL     1     -13.012  12.423  71.384  0.00  0.00    +0.037 A 
ATOM     16  C   UNL     1     -13.574  13.178  72.400  0.00  0.00    +0.100 A 
ATOM     17  N   UNL     1     -13.405  14.520  72.449  0.00  0.00    -0.242 NA
ATOM     18  C   UNL     1     -12.321  15.062  71.842  0.00  0.00    +0.099 A 
ATOM     19  C   UNL     1     -11.880  14.445  70.678  0.00  0.00    +0.021 A 
ATOM     20  C   UNL     1     -12.225  13.115  70.476  0.00  0.00    +0.005 A 
ENDBRANCH  11  15
ENDBRANCH   3   8
BRANCH   1  22
ATOM     21  N   UNL     1      -8.643  12.102  67.075  0.00  0.00    -0.175 NA
ATOM     22  C   UNL     1      -9.087  10.942  66.394  0.00  0.00    +0.269 C 
ATOM     23  O   UNL     1      -9.576  11.127  65.238  0.00  0.00    -0.268 OA
BRANCH  21  28
ATOM     24  C   UNL     1      -9.013  15.714  66.333  0.00  0.00    +0.067 A 
ATOM     25  C   UNL     1     -10.123  15.593  65.514  0.00  0.00    +0.022 A 
ATOM     26  C   UNL     1     -11.003  14.527  65.657  0.00  0.00    +0.074 A 
ATOM     27  C   UNL     1     -10.553  13.472  66.427  0.00  0.00    +0.021 A 
ATOM     28  C   UNL     1      -9.253  13.388  66.903  0.00  0.00    +0.075 A 
ATOM     29  C   UNL     1      -8.508  14.549  66.873  0.00  0.00    +0.034 A 
BRANCH  24  34
ATOM     30  C   UNL     1      -8.064  20.540  67.183  0.00  0.00    +0.054 C 
ATOM     31  C   UNL     1      -7.959  19.134  66.696  0.00  0.00    +0.079 A 
ATOM     32  N   UNL     1      -6.807  18.536  66.303  0.00  0.00    -0.228 NA
ATOM     33  C   UNL     1      -7.109  17.235  66.076  0.00  0.00    +0.182 A 
ATOM     34  N   UNL     1      -8.368  16.968  66.439  0.00  0.00    -0.287 N 
ATOM     35  C   UNL     1      -8.932  18.144  66.765  0.00  0.00    +0.096 A 
ENDBRANCH  24  34
BRANCH  26  36
ATOM     36  C   UNL     1     -12.174  14.399  64.736  0.00  0.00    +0.419 C 
ATOM     37  F   UNL     1     -11.952  13.299  63.911  0.00  0.00    -0.166 F 
ATOM     38  F   UNL     1     -12.404  15.549  64.021  0.00  0.00    -0.166 F 
ATOM     39  F   UNL     1     -13.254  14.067  65.550  0.00  0.00    -0.166 F 
ENDBRANCH  26  36
ENDBRANCH  21  28
ENDBRANCH   1  22
TORSDOF 6
ENDMDL
MODEL 5
REMARK VINA RESULT:      -8.5      4.248      8.759
REMARK  Name = 
REMARK  6 active torsions:
REMARK  status: ('A' for Active; 'I' for Inactive)
REMARK    1  A    between atoms: N_4  and  C_5
REMARK    2  A    between atoms: C_7  and  N_8
REMARK    3  A    between atoms: C_9  and  C_11
REMARK    4  A    between atoms: C_16  and  N_17
REMARK    5  A    between atoms: C_22  and  C_23
REMARK    6  A    between atoms: C_32  and  C_33
REMARK                            x       y       z     vdW  Elec       q    Type
REMARK                         _______ _______ _______ _____ _____    ______ ____
ROOT
ATOM      1  C   UNL     1      -9.531  16.567  68.082  0.00  0.00    +0.057 A 
ATOM      2  C   UNL     1      -8.543  16.837  67.144  0.00  0.00    +0.021 A 
ATOM      3  C   UNL     1      -8.498  18.067  66.500  0.00  0.00    +0.070 A 
ATOM      4  C   UNL     1      -9.396  19.065  66.852  0.00  0.00    -0.006 A 
ATOM      5  C   UNL     1      -8.983  20.497  66.895  0.00  0.00    +0.032 C 
ATOM      6  C   UNL     1     -10.604  18.624  67.371  0.00  0.00    -0.003 A 
ATOM      7  C   UNL     1     -10.649  17.389  68.004  0.00  0.00    +0.004 A 
ENDROOT
BRANCH   3   8
ATOM      8  N   UNL     1      -7.391  18.406  65.689  0.00  0.00    -0.178 NA
ATOM      9  C   UNL     1      -6.089  18.648  66.176  0.00  0.00    +0.241 A 
ATOM     10  N   UNL     1      -5.823  19.355  67.297  0.00  0.00    -0.212 NA
ATOM     11  C   UNL     1      -4.536  19.418  67.708  0.00  0.00    +0.087 A 
ATOM     12  C   UNL     1      -3.665  18.422  67.284  0.00  0.00    +0.040 A 
ATOM     13  C   UNL     1      -3.885  17.843  66.040  0.00  0.00    +0.103 A 
ATOM     14  N   UNL     1      -5.059  18.158  65.446  0.00  0.00    -0.211 NA
BRANCH  11  15
ATOM     15  C   UNL     1      -4.227  20.281  68.855  0.00  0.00    +0.037 A 
ATOM     16  C   UNL     1      -5.225  20.877  69.606  0.00  0.00    +0.100 A 
ATOM     17  N   UNL     1      -4.983  21.327  70.860  0.00  0.00    -0.242 NA
ATOM     18  C   UNL     1      -3.965  20.774  71.563  0.00  0.00    +0.099 A 
ATOM     19  C   UNL     1      -2.846  20.378  70.842  0.00  0.00    +0.021 A 
ATOM     20  C   UNL     1      -3.004  20.120  69.487  0.00  0.00    +0.005 A 
ENDBRANCH  11  15
ENDBRANCH   3   8
BRANCH   1  22
ATOM     21  N   UNL     1     -10.684  14.311  68.230  0.00  0.00    -0.175 NA
ATOM     22  C   UNL     1      -9.718  15.248  68.671  0.00  0.00    +0.269 C 
ATOM     23  O   UNL     1      -9.313  15.110  69.866  0.00  0.00    -0.268 OA
BRANCH  21  28
ATOM     24  C   UNL     1     -12.266  11.903  70.560  0.00  0.00    +0.067 A 
ATOM     25  C   UNL     1     -12.670  12.836  71.500  0.00  0.00    +0.022 A 
ATOM     26  C   UNL     1     -12.918  14.154  71.136  0.00  0.00    +0.074 A 
ATOM     27  C   UNL     1     -12.455  14.533  69.891  0.00  0.00    +0.021 A 
ATOM     28  C   UNL     1     -11.653  13.720  69.105  0.00  0.00    +0.075 A 
ATOM     29  C   UNL     1     -11.603  12.384  69.449  0.00  0.00    +0.034 A 
BRANCH  24  34
ATOM     30  C   UNL     1     -14.149   7.412  71.655  0.00  0.00    +0.054 C 
ATOM     31  C   UNL     1     -13.202   8.548  71.459  0.00  0.00    +0.079 A 
ATOM     32  N   UNL     1     -11.865   8.418  71.287  0.00  0.00    -0.228 NA
ATOM     33  C   UNL     1     -11.392   9.655  71.000  0.00  0.00    +0.182 A 
ATOM     34  N   UNL     1     -12.398  10.526  70.855  0.00  0.00    -0.287 N 
ATOM     35  C   UNL     1     -13.523   9.875  71.198  0.00  0.00    +0.096 A 
ENDBRANCH  24  34
BRANCH  26  36
ATOM     36  C   UNL     1     -13.318  15.152  72.175  0.00  0.00    +0.419 C 
ATOM     37  F   UNL     1     -13.037  14.605  73.425  0.00  0.00    -0.166 F 
ATOM     38  F   UNL     1     -14.633  15.529  72.056  0.00  0.00    -0.166 F 
ATOM     39  F   UNL     1     -12.451  16.228  72.013  0.00  0.00    -0.166 F 
ENDBRANCH  26  36
ENDBRANCH  21  28
ENDBRANCH   1  22
TORSDOF 6
ENDMDL
MODEL 6
REMARK VINA RESULT:      -8.5      4.419      7.837
REMARK  Name = 
REMARK  6 active torsions:
REMARK  status: ('A' for Active; 'I' for Inactive)
REMARK    1  A    between atoms: N_4  and  C_5
REMARK    2  A    between atoms: C_7  and  N_8
REMARK    3  A    between atoms: C_9  and  C_11
REMARK    4  A    between atoms: C_16  and  N_17
REMARK    5  A    between atoms: C_22  and  C_23
REMARK    6  A    between atoms: C_32  and  C_33
REMARK                            x       y       z     vdW  Elec       q    Type
REMARK                         _______ _______ _______ _____ _____    ______ ____
ROOT
ATOM      1  C   UNL     1     -10.114  10.411  67.355  0.00  0.00    +0.057 A 
ATOM      2  C   UNL     1     -10.385  11.770  67.250  0.00  0.00    +0.021 A 
ATOM      3  C   UNL     1     -10.729  12.328  66.025  0.00  0.00    +0.070 A 
ATOM      4  C   UNL     1     -10.885  11.513  64.913  0.00  0.00    -0.006 A 
ATOM      5  C   UNL     1     -11.949  11.778  63.902  0.00  0.00    +0.032 C 
ATOM      6  C   UNL     1     -10.154  10.335  64.931  0.00  0.00    -0.003 A 
ATOM      7  C   UNL     1      -9.800   9.785  66.155  0.00  0.00    +0.004 A 
ENDROOT
BRANCH   3   8
ATOM      8  N   UNL     1     -11.182  13.665  65.955  0.00  0.00    -0.178 NA
ATOM      9  C   UNL     1     -11.243  14.547  67.054  0.00  0.00    +0.241 A 
ATOM     10  N   UNL     1     -11.669  14.187  68.286  0.00  0.00    -0.212 NA
ATOM     11  C   UNL     1     -11.573  15.105  69.275  0.00  0.00    +0.087 A 
ATOM     12  C   UNL     1     -10.653  16.134  69.124  0.00  0.00    +0.040 A 
ATOM     13  C   UNL     1     -10.376  16.585  67.840  0.00  0.00    +0.103 A 
ATOM     14  N   UNL     1     -10.876  15.832  66.833  0.00  0.00    -0.211 NA
BRANCH  11  15
ATOM     15  C   UNL     1     -12.143  14.760  70.584  0.00  0.00    +0.037 A 
ATOM     16  C   UNL     1     -12.919  15.655  71.299  0.00  0.00    +0.100 A 
ATOM     17  N   UNL     1     -13.755  15.231  72.276  0.00  0.00    -0.242 NA
ATOM     18  C   UNL     1     -14.214  13.958  72.231  0.00  0.00    +0.099 A 
ATOM     19  C   UNL     1     -13.350  12.995  71.724  0.00  0.00    +0.021 A 
ATOM     20  C   UNL     1     -12.327  13.419  70.886  0.00  0.00    +0.005 A 
ENDBRANCH  11  15
ENDBRANCH   3   8
BRANCH   1  22
ATOM     21  N   UNL     1      -9.719   8.428  68.888  0.00  0.00    -0.175 NA
ATOM     22  C   UNL     1      -9.600   9.804  68.575  0.00  0.00    +0.269 C 
ATOM     23  O   UNL     1      -9.436  10.587  69.560  0.00  0.00    -0.268 OA
BRANCH  21  28
ATOM     24  C   UNL     1     -10.157   7.725  72.500  0.00  0.00    +0.067 A 
ATOM     25  C   UNL     1     -11.466   8.167  72.588  0.00  0.00    +0.022 A 
ATOM     26  C   UNL     1     -12.302   8.149  71.478  0.00  0.00    +0.074 A 
ATOM     27  C   UNL     1     -11.681   7.962  70.258  0.00  0.00    +0.021 A 
ATOM     28  C   UNL     1     -10.303   7.953  70.108  0.00  0.00    +0.075 A 
ATOM     29  C   UNL     1      -9.557   7.799  71.259  0.00  0.00    +0.034 A 
BRANCH  24  34
ATOM     30  C   UNL     1      -6.797   7.577  76.188  0.00  0.00    +0.054 C 
ATOM     31  C   UNL     1      -7.919   7.223  75.271  0.00  0.00    +0.079 A 
ATOM     32  N   UNL     1      -8.918   6.358  75.570  0.00  0.00    -0.228 NA
ATOM     33  C   UNL     1      -9.802   6.422  74.545  0.00  0.00    +0.182 A 
ATOM     34  N   UNL     1      -9.462   7.388  73.684  0.00  0.00    -0.287 N 
ATOM     35  C   UNL     1      -8.264   7.852  74.081  0.00  0.00    +0.096 A 
ENDBRANCH  24  34
BRANCH  26  36
ATOM     36  C   UNL     1     -13.701   8.665  71.590  0.00  0.00    +0.419 C 
ATOM     37  F   UNL     1     -13.832   9.738  70.713  0.00  0.00    -0.166 F 
ATOM     38  F   UNL     1     -14.031   9.002  72.880  0.00  0.00    -0.166 F 
ATOM     39  F   UNL     1     -14.514   7.650  71.093  0.00  0.00    -0.166 F 
ENDBRANCH  26  36
ENDBRANCH  21  28
ENDBRANCH   1  22
TORSDOF 6
ENDMDL
MODEL 7
REMARK VINA RESULT:      -8.5      3.571      8.882
REMARK  Name = 
REMARK  6 active torsions:
REMARK  status: ('A' for Active; 'I' for Inactive)
REMARK    1  A    between atoms: N_4  and  C_5
REMARK    2  A    between atoms: C_7  and  N_8
REMARK    3  A    between atoms: C_9  and  C_11
REMARK    4  A    between atoms: C_16  and  N_17
REMARK    5  A    between atoms: C_22  and  C_23
REMARK    6  A    between atoms: C_32  and  C_33
REMARK                            x       y       z     vdW  Elec       q    Type
REMARK                         _______ _______ _______ _____ _____    ______ ____
ROOT
ATOM      1  C   UNL     1     -11.378  12.987  69.502  0.00  0.00    +0.057 A 
ATOM      2  C   UNL     1     -11.205  14.319  69.146  0.00  0.00    +0.021 A 
ATOM      3  C   UNL     1     -11.657  15.336  69.977  0.00  0.00    +0.070 A 
ATOM      4  C   UNL     1     -12.212  15.027  71.210  0.00  0.00    -0.006 A 
ATOM      5  C   UNL     1     -11.965  15.881  72.407  0.00  0.00    +0.032 C 
ATOM      6  C   UNL     1     -12.803  13.775  71.300  0.00  0.00    -0.003 A 
ATOM      7  C   UNL     1     -12.359  12.763  70.460  0.00  0.00    +0.004 A 
ENDROOT
BRANCH   3   8
ATOM      8  N   UNL     1     -11.318  16.681  69.705  0.00  0.00    -0.178 NA
ATOM      9  C   UNL     1     -10.441  17.092  68.678  0.00  0.00    +0.241 A 
ATOM     10  N   UNL     1      -9.284  16.460  68.378  0.00  0.00    -0.212 NA
ATOM     11  C   UNL     1      -8.594  16.896  67.299  0.00  0.00    +0.087 A 
ATOM     12  C   UNL     1      -9.287  17.594  66.318  0.00  0.00    +0.040 A 
ATOM     13  C   UNL     1     -10.372  18.369  66.706  0.00  0.00    +0.103 A 
ATOM     14  N   UNL     1     -10.784  18.203  67.984  0.00  0.00    -0.211 NA
BRANCH  11  15
ATOM     15  C   UNL     1      -7.281  16.292  67.040  0.00  0.00    +0.037 A 
ATOM     16  C   UNL     1      -6.217  17.039  66.565  0.00  0.00    +0.100 A 
ATOM     17  N   UNL     1      -4.942  16.605  66.701  0.00  0.00    -0.242 NA
ATOM     18  C   UNL     1      -4.653  15.738  67.701  0.00  0.00    +0.099 A 
ATOM     19  C   UNL     1      -5.638  14.817  68.037  0.00  0.00    +0.021 A 
ATOM     20  C   UNL     1      -6.952  15.123  67.710  0.00  0.00    +0.005 A 
ENDBRANCH  11  15
ENDBRANCH   3   8
BRANCH   1  22
ATOM     21  N   UNL     1      -9.841  11.753  67.904  0.00  0.00    -0.175 NA
ATOM     22  C   UNL     1     -11.066  11.885  68.603  0.00  0.00    +0.269 C 
ATOM     23  O   UNL     1     -12.060  11.275  68.104  0.00  0.00    -0.268 OA
BRANCH  21  28
ATOM     24  C   UNL     1      -9.427  10.142  64.593  0.00  0.00    +0.067 A 
ATOM     25  C   UNL     1     -10.556  10.691  64.009  0.00  0.00    +0.022 A 
ATOM     26  C   UNL     1     -11.069  11.904  64.451  0.00  0.00    +0.074 A 
ATOM     27  C   UNL     1     -10.588  12.358  65.664  0.00  0.00    +0.021 A 
ATOM     28  C   UNL     1      -9.768  11.595  66.481  0.00  0.00    +0.075 A 
ATOM     29  C   UNL     1      -9.167  10.496  65.901  0.00  0.00    +0.034 A 
BRANCH  24  34
ATOM     30  C   UNL     1      -7.373   7.375  60.982  0.00  0.00    +0.054 C 
ATOM     31  C   UNL     1      -7.887   7.832  62.306  0.00  0.00    +0.079 A 
ATOM     32  N   UNL     1      -7.494   7.330  63.502  0.00  0.00    -0.228 NA
ATOM     33  C   UNL     1      -8.076   8.101  64.452  0.00  0.00    +0.182 A 
ATOM     34  N   UNL     1      -8.708   9.142  63.897  0.00  0.00    -0.287 N 
ATOM     35  C   UNL     1      -8.657   8.959  62.566  0.00  0.00    +0.096 A 
ENDBRANCH  24  34
BRANCH  26  36
ATOM     36  C   UNL     1     -12.311  12.459  63.828  0.00  0.00    +0.419 C 
ATOM     37  F   UNL     1     -12.812  11.504  62.948  0.00  0.00    -0.166 F 
ATOM     38  F   UNL     1     -12.090  13.668  63.215  0.00  0.00    -0.166 F 
ATOM     39  F   UNL     1     -13.234  12.563  64.865  0.00  0.00    -0.166 F 
ENDBRANCH  26  36
ENDBRANCH  21  28
ENDBRANCH   1  22
TORSDOF 6
ENDMDL
MODEL 8
REMARK VINA RESULT:      -8.5      1.854      2.194
REMARK  Name = 
REMARK  6 active torsions:
REMARK  status: ('A' for Active; 'I' for Inactive)
REMARK    1  A    between atoms: N_4  and  C_5
REMARK    2  A    between atoms: C_7  and  N_8
REMARK    3  A    between atoms: C_9  and  C_11
REMARK    4  A    between atoms: C_16  and  N_17
REMARK    5  A    between atoms: C_22  and  C_23
REMARK    6  A    between atoms: C_32  and  C_33
REMARK                            x       y       z     vdW  Elec       q    Type
REMARK                         _______ _______ _______ _____ _____    ______ ____
ROOT
ATOM      1  C   UNL     1     -10.901  11.690  65.737  0.00  0.00    +0.057 A 
ATOM      2  C   UNL     1     -10.415  10.446  66.120  0.00  0.00    +0.021 A 
ATOM      3  C   UNL     1      -9.779   9.623  65.200  0.00  0.00    +0.070 A 
ATOM      4  C   UNL     1      -9.553  10.075  63.908  0.00  0.00    -0.006 A 
ATOM      5  C   UNL     1      -8.298   9.733  63.176  0.00  0.00    +0.032 C 
ATOM      6  C   UNL     1     -10.444  11.032  63.447  0.00  0.00    -0.003 A 
ATOM      7  C   UNL     1     -11.087  11.846  64.369  0.00  0.00    +0.004 A 
ENDROOT
BRANCH   3   8
ATOM      8  N   UNL     1      -9.124   8.446  65.631  0.00  0.00    -0.178 NA
ATOM      9  C   UNL     1      -9.562   7.634  66.698  0.00  0.00    +0.241 A 
ATOM     10  N   UNL     1     -10.035   8.118  67.868  0.00  0.00    -0.212 NA
ATOM     11  C   UNL     1     -10.522   7.228  68.764  0.00  0.00    +0.087 A 
ATOM     12  C   UNL     1     -10.949   5.994  68.292  0.00  0.00    +0.040 A 
ATOM     13  C   UNL     1     -10.312   5.459  67.180  0.00  0.00    +0.103 A 
ATOM     14  N   UNL     1      -9.468   6.293  66.530  0.00  0.00    -0.211 NA
BRANCH  11  15
ATOM     15  C   UNL     1     -10.926   7.738  70.081  0.00  0.00    +0.037 A 
ATOM     16  C   UNL     1     -10.788   9.073  70.418  0.00  0.00    +0.100 A 
ATOM     17  N   UNL     1     -11.500   9.614  71.434  0.00  0.00    -0.242 NA
ATOM     18  C   UNL     1     -12.672   9.036  71.788  0.00  0.00    +0.099 A 
ATOM     19  C   UNL     1     -12.750   7.653  71.673  0.00  0.00    +0.021 A 
ATOM     20  C   UNL     1     -11.875   7.024  70.798  0.00  0.00    +0.005 A 
ENDBRANCH  11  15
ENDBRANCH   3   8
BRANCH   1  22
ATOM     21  N   UNL     1     -11.872  13.922  66.454  0.00  0.00    -0.175 NA
ATOM     22  C   UNL     1     -11.708  12.525  66.616  0.00  0.00    +0.269 C 
ATOM     23  O   UNL     1     -11.907  12.072  67.784  0.00  0.00    -0.268 OA
BRANCH  21  28
ATOM     24  C   UNL     1     -11.631  15.405  69.841  0.00  0.00    +0.067 A 
ATOM     25  C   UNL     1     -10.321  15.843  69.728  0.00  0.00    +0.022 A 
ATOM     26  C   UNL     1      -9.774  16.141  68.486  0.00  0.00    +0.074 A 
ATOM     27  C   UNL     1     -10.487  15.696  67.389  0.00  0.00    +0.021 A 
ATOM     28  C   UNL     1     -11.591  14.866  67.496  0.00  0.00    +0.075 A 
ATOM     29  C   UNL     1     -12.170  14.763  68.745  0.00  0.00    +0.034 A 
BRANCH  24  34
ATOM     30  C   UNL     1     -12.530  15.857  74.730  0.00  0.00    +0.054 C 
ATOM     31  C   UNL     1     -12.687  15.562  73.276  0.00  0.00    +0.079 A 
ATOM     32  N   UNL     1     -13.875  15.457  72.633  0.00  0.00    -0.228 NA
ATOM     33  C   UNL     1     -13.588  15.329  71.315  0.00  0.00    +0.182 A 
ATOM     34  N   UNL     1     -12.277  15.483  71.097  0.00  0.00    -0.287 N 
ATOM     35  C   UNL     1     -11.693  15.564  72.305  0.00  0.00    +0.096 A 
ENDBRANCH  24  34
BRANCH  26  36
ATOM     36  C   UNL     1      -8.347  16.578  68.386  0.00  0.00    +0.419 C 
ATOM     37  F   UNL     1      -8.307  17.956  68.578  0.00  0.00    -0.166 F 
ATOM     38  F   UNL     1      -7.769  16.200  67.199  0.00  0.00    -0.166 F 
ATOM     39  F   UNL     1      -7.705  16.009  69.482  0.00  0.00    -0.166 F 
ENDBRANCH  26  36
ENDBRANCH  21  28
ENDBRANCH   1  22
TORSDOF 6
ENDMDL
MODEL 9
REMARK VINA RESULT:      -8.5      4.819      8.244
REMARK  Name = 
REMARK  6 active torsions:
REMARK  status: ('A' for Active; 'I' for Inactive)
REMARK    1  A    between atoms: N_4  and  C_5
REMARK    2  A    between atoms: C_7  and  N_8
REMARK    3  A    between atoms: C_9  and  C_11
REMARK    4  A    between atoms: C_16  and  N_17
REMARK    5  A    between atoms: C_22  and  C_23
REMARK    6  A    between atoms: C_32  and  C_33
REMARK                            x       y       z     vdW  Elec       q    Type
REMARK                         _______ _______ _______ _____ _____    ______ ____
ROOT
ATOM      1  C   UNL     1      -8.730  19.369  67.795  0.00  0.00    +0.057 A 
ATOM      2  C   UNL     1      -7.610  19.404  68.616  0.00  0.00    +0.021 A 
ATOM      3  C   UNL     1      -6.371  19.768  68.105  0.00  0.00    +0.070 A 
ATOM      4  C   UNL     1      -6.261  20.181  66.785  0.00  0.00    -0.006 A 
ATOM      5  C   UNL     1      -5.333  21.280  66.391  0.00  0.00    +0.032 C 
ATOM      6  C   UNL     1      -7.219  19.672  65.921  0.00  0.00    -0.003 A 
ATOM      7  C   UNL     1      -8.453  19.297  66.435  0.00  0.00    +0.004 A 
ENDROOT
BRANCH   3   8
ATOM      8  N   UNL     1      -5.277  19.982  68.975  0.00  0.00    -0.178 NA
ATOM      9  C   UNL     1      -4.352  18.986  69.353  0.00  0.00    +0.241 A 
ATOM     10  N   UNL     1      -4.697  17.717  69.667  0.00  0.00    -0.212 NA
ATOM     11  C   UNL     1      -3.698  16.837  69.908  0.00  0.00    +0.087 A 
ATOM     12  C   UNL     1      -2.443  17.112  69.378  0.00  0.00    +0.040 A 
ATOM     13  C   UNL     1      -2.068  18.442  69.233  0.00  0.00    +0.103 A 
ATOM     14  N   UNL     1      -3.050  19.353  69.428  0.00  0.00    -0.211 NA
BRANCH  11  15
ATOM     15  C   UNL     1      -4.069  15.492  70.364  0.00  0.00    +0.037 A 
ATOM     16  C   UNL     1      -5.014  15.295  71.356  0.00  0.00    +0.100 A 
ATOM     17  N   UNL     1      -5.639  14.103  71.499  0.00  0.00    -0.242 NA
ATOM     18  C   UNL     1      -5.735  13.286  70.422  0.00  0.00    +0.099 A 
ATOM     19  C   UNL     1      -4.674  13.301  69.526  0.00  0.00    +0.021 A 
ATOM     20  C   UNL     1      -3.860  14.425  69.502  0.00  0.00    +0.005 A 
ENDBRANCH  11  15
ENDBRANCH   3   8
BRANCH   1  22
ATOM     21  N   UNL     1     -10.168  17.708  69.065  0.00  0.00    -0.175 NA
ATOM     22  C   UNL     1     -10.015  18.848  68.238  0.00  0.00    +0.269 C 
ATOM     23  O   UNL     1     -11.017  19.155  67.522  0.00  0.00    -0.268 OA
BRANCH  21  28
ATOM     24  C   UNL     1     -11.284  14.609  67.368  0.00  0.00    +0.067 A 
ATOM     25  C   UNL     1     -11.675  13.935  68.513  0.00  0.00    +0.022 A 
ATOM     26  C   UNL     1     -12.075  14.629  69.647  0.00  0.00    +0.074 A 
ATOM     27  C   UNL     1     -11.776  15.978  69.667  0.00  0.00    +0.021 A 
ATOM     28  C   UNL     1     -10.987  16.588  68.704  0.00  0.00    +0.075 A 
ATOM     29  C   UNL     1     -10.782  15.883  67.536  0.00  0.00    +0.034 A 
BRANCH  24  34
ATOM     30  C   UNL     1     -12.583  11.864  63.406  0.00  0.00    +0.054 C 
ATOM     31  C   UNL     1     -11.779  12.601  64.425  0.00  0.00    +0.079 A 
ATOM     32  N   UNL     1     -10.518  13.057  64.231  0.00  0.00    -0.228 NA
ATOM     33  C   UNL     1     -10.202  13.789  65.327  0.00  0.00    +0.182 A 
ATOM     34  N   UNL     1     -11.260  13.916  66.135  0.00  0.00    -0.287 N 
ATOM     35  C   UNL     1     -12.229  13.135  65.626  0.00  0.00    +0.096 A 
ENDBRANCH  24  34
BRANCH  26  36
ATOM     36  C   UNL     1     -12.459  13.880  70.884  0.00  0.00    +0.419 C 
ATOM     37  F   UNL     1     -11.775  14.446  71.956  0.00  0.00    -0.166 F 
ATOM     38  F   UNL     1     -12.224  12.532  70.770  0.00  0.00    -0.166 F 
ATOM     39  F   UNL     1     -13.807  14.159  71.086  0.00  0.00    -0.166 F 
ENDBRANCH  26  36
ENDBRANCH  21  28
ENDBRANCH   1  22
TORSDOF 6
ENDMDL
