MODEL 1
REMARK VINA RESULT:      -7.5      0.000      0.000
REMARK  Name = 
REMARK  6 active torsions:
REMARK  status: ('A' for Active; 'I' for Inactive)
REMARK    1  A    between atoms: C_2  and  C_3
REMARK    2  A    between atoms: C_2  and  C_22
REMARK    3  A    between atoms: C_3  and  C_4
REMARK    4  A    between atoms: C_4  and  C_5
REMARK    5  A    between atoms: C_5  and  N_6
REMARK    6  A    between atoms: C_9  and  N_10
REMARK                            x       y       z     vdW  Elec       q    Type
REMARK                         _______ _______ _______ _____ _____    ______ ____
ROOT
ATOM      1  N   UNL     1     -10.509  12.394  67.354  0.00  0.00    -0.269 NA
ATOM      2  C   UNL     1     -11.873  12.667  66.993  0.00  0.00    +0.079 C 
ATOM      3  C   UNL     1     -12.089  14.041  66.425  0.00  0.00    +0.061 C 
ATOM      4  C   UNL     1     -10.815  14.787  66.223  0.00  0.00    +0.044 C 
ATOM      5  C   UNL     1      -9.783  14.098  65.778  0.00  0.00    +0.004 C 
ATOM      6  C   UNL     1      -9.564  12.725  66.304  0.00  0.00    +0.100 C 
ENDROOT
BRANCH   4   7
ATOM      7  N   UNL     1     -10.793  16.214  66.350  0.00  0.00    -0.261 N 
ATOM      8  C   UNL     1      -9.942  16.865  67.179  0.00  0.00    +0.086 A 
ATOM      9  C   UNL     1      -9.807  18.185  66.781  0.00  0.00    +0.102 A 
ATOM     10  C   UNL     1      -8.693  18.877  67.241  0.00  0.00    +0.021 A 
ATOM     11  C   UNL     1      -7.776  18.314  68.108  0.00  0.00    +0.002 A 
ATOM     12  C   UNL     1      -8.147  17.162  68.782  0.00  0.00    +0.002 A 
ATOM     13  N   UNL     1     -10.458  18.250  65.597  0.00  0.00    -0.191 NA
ATOM     14  C   UNL     1      -9.178  16.410  68.240  0.00  0.00    +0.019 A 
ATOM     15  C   UNL     1     -10.886  17.013  65.262  0.00  0.00    +0.354 A 
ATOM     16  O   UNL     1     -11.395  16.685  64.151  0.00  0.00    -0.244 OA
ENDBRANCH   4   7
BRANCH   1  17
ATOM     17  C   UNL     1     -10.391  10.953  67.563  0.00  0.00    +0.073 C 
BRANCH  17  18
ATOM     18  C   UNL     1     -11.400  10.444  68.563  0.00  0.00    +0.025 C 
BRANCH  18  19
ATOM     19  C   UNL     1     -11.126  10.923  69.961  0.00  0.00    +0.071 C 
BRANCH  19  21
ATOM     20  O   UNL     1     -13.266  10.292  70.644  0.00  0.00    -0.291 OA
ATOM     21  C   UNL     1     -12.383  11.199  70.720  0.00  0.00    +0.173 C 
BRANCH  21  22
ATOM     22  C   UNL     1     -12.783  12.592  70.960  0.00  0.00    +0.035 A 
ATOM     23  C   UNL     1     -12.126  13.644  70.331  0.00  0.00    +0.005 A 
ATOM     24  C   UNL     1     -11.941  14.869  70.961  0.00  0.00    +0.030 A 
ATOM     25  C   UNL     1     -12.286  15.016  72.298  0.00  0.00    +0.140 A 
ATOM     26  F   UNL     1     -11.491  15.688  73.180  0.00  0.00    -0.204 F 
ATOM     27  C   UNL     1     -13.290  14.162  72.744  0.00  0.00    +0.030 A 
ATOM     28  C   UNL     1     -13.513  12.959  72.085  0.00  0.00    +0.005 A 
ENDBRANCH  21  22
ENDBRANCH  19  21
ENDBRANCH  18  19
ENDBRANCH  17  18
ENDBRANCH   1  17
TORSDOF 6
ENDMDL
MODEL 2
REMARK VINA RESULT:      -7.2      3.628      7.302
REMARK  Name = 
REMARK  6 active torsions:
REMARK  status: ('A' for Active; 'I' for Inactive)
REMARK    1  A    between atoms: C_2  and  C_3
REMARK    2  A    between atoms: C_2  and  C_22
REMARK    3  A    between atoms: C_3  and  C_4
REMARK    4  A    between atoms: C_4  and  C_5
REMARK    5  A    between atoms: C_5  and  N_6
REMARK    6  A    between atoms: C_9  and  N_10
REMARK                            x       y       z     vdW  Elec       q    Type
REMARK                         _______ _______ _______ _____ _____    ______ ____
ROOT
ATOM      1  N   UNL     1      -8.999  10.334  66.022  0.00  0.00    -0.269 NA
ATOM      2  C   UNL     1     -10.211   9.571  66.131  0.00  0.00    +0.079 C 
ATOM      3  C   UNL     1     -10.716   9.427  67.537  0.00  0.00    +0.061 C 
ATOM      4  C   UNL     1      -9.929  10.228  68.517  0.00  0.00    +0.044 C 
ATOM      5  C   UNL     1      -9.532  11.423  68.130  0.00  0.00    +0.004 C 
ATOM      6  C   UNL     1      -9.055  11.598  66.733  0.00  0.00    +0.100 C 
ENDROOT
BRANCH   4   7
ATOM      7  N   UNL     1      -9.774   9.762  69.863  0.00  0.00    -0.261 N 
ATOM      8  C   UNL     1     -10.808   9.684  70.737  0.00  0.00    +0.086 A 
ATOM      9  C   UNL     1     -10.500   8.802  71.759  0.00  0.00    +0.102 A 
ATOM     10  C   UNL     1     -11.560   8.291  72.498  0.00  0.00    +0.021 A 
ATOM     11  C   UNL     1     -12.869   8.675  72.281  0.00  0.00    +0.002 A 
ATOM     12  C   UNL     1     -13.091   9.825  71.542  0.00  0.00    +0.002 A 
ATOM     13  N   UNL     1      -9.336   8.229  71.375  0.00  0.00    -0.191 NA
ATOM     14  C   UNL     1     -12.069  10.254  70.708  0.00  0.00    +0.019 A 
ATOM     15  C   UNL     1      -9.010   8.682  70.145  0.00  0.00    +0.354 A 
ATOM     16  O   UNL     1      -8.068   8.241  69.423  0.00  0.00    -0.244 OA
ENDBRANCH   4   7
BRANCH   1  17
ATOM     17  C   UNL     1      -8.818  10.672  64.613  0.00  0.00    +0.073 C 
BRANCH  17  18
ATOM     18  C   UNL     1     -10.119  10.622  63.849  0.00  0.00    +0.025 C 
BRANCH  18  19
ATOM     19  C   UNL     1     -10.570  11.977  63.379  0.00  0.00    +0.071 C 
BRANCH  19  21
ATOM     20  O   UNL     1     -12.893  12.139  63.521  0.00  0.00    -0.291 OA
ATOM     21  C   UNL     1     -11.800  12.440  64.089  0.00  0.00    +0.173 C 
BRANCH  21  22
ATOM     22  C   UNL     1     -11.724  13.629  64.949  0.00  0.00    +0.035 A 
ATOM     23  C   UNL     1     -10.701  14.557  64.799  0.00  0.00    +0.005 A 
ATOM     24  C   UNL     1     -10.167  15.236  65.888  0.00  0.00    +0.030 A 
ATOM     25  C   UNL     1     -10.553  14.887  67.176  0.00  0.00    +0.140 A 
ATOM     26  F   UNL     1      -9.655  14.788  68.198  0.00  0.00    -0.204 F 
ATOM     27  C   UNL     1     -11.820  14.321  67.277  0.00  0.00    +0.030 A 
ATOM     28  C   UNL     1     -12.380  13.687  66.174  0.00  0.00    +0.005 A 
ENDBRANCH  21  22
ENDBRANCH  19  21
ENDBRANCH  18  19
ENDBRANCH  17  18
ENDBRANCH   1  17
TORSDOF 6
ENDMDL
MODEL 3
REMARK VINA RESULT:      -7.2      2.507      3.997
REMARK  Name = 
REMARK  6 active torsions:
REMARK  status: ('A' for Active; 'I' for Inactive)
REMARK    1  A    between atoms: C_2  and  C_3
REMARK    2  A    between atoms: C_2  and  C_22
REMARK    3  A    between atoms: C_3  and  C_4
REMARK    4  A    between atoms: C_4  and  C_5
REMARK    5  A    between atoms: C_5  and  N_6
REMARK    6  A    between atoms: C_9  and  N_10
REMARK                            x       y       z     vdW  Elec       q    Type
REMARK                         _______ _______ _______ _____ _____    ______ ____
ROOT
ATOM      1  N   UNL     1     -10.450  11.451  66.266  0.00  0.00    -0.269 NA
ATOM      2  C   UNL     1     -11.339  12.054  65.312  0.00  0.00    +0.079 C 
ATOM      3  C   UNL     1     -11.584  13.517  65.549  0.00  0.00    +0.061 C 
ATOM      4  C   UNL     1     -10.741  14.072  66.646  0.00  0.00    +0.044 C 
ATOM      5  C   UNL     1      -9.497  13.642  66.719  0.00  0.00    +0.004 C 
ATOM      6  C   UNL     1      -9.225  12.204  66.461  0.00  0.00    +0.100 C 
ENDROOT
BRANCH   4   7
ATOM      7  N   UNL     1     -11.236  15.146  67.456  0.00  0.00    -0.261 N 
ATOM      8  C   UNL     1     -11.688  14.964  68.720  0.00  0.00    +0.086 A 
ATOM      9  C   UNL     1     -11.662  16.164  69.411  0.00  0.00    +0.102 A 
ATOM     10  C   UNL     1     -11.693  16.099  70.798  0.00  0.00    +0.021 A 
ATOM     11  C   UNL     1     -11.803  14.904  71.483  0.00  0.00    +0.002 A 
ATOM     12  C   UNL     1     -12.218  13.789  70.774  0.00  0.00    +0.002 A 
ATOM     13  N   UNL     1     -11.021  17.019  68.582  0.00  0.00    -0.191 NA
ATOM     14  C   UNL     1     -12.063  13.815  69.397  0.00  0.00    +0.019 A 
ATOM     15  C   UNL     1     -10.606  16.343  67.489  0.00  0.00    +0.354 A 
ATOM     16  O   UNL     1      -9.845  16.797  66.586  0.00  0.00    -0.244 OA
ENDBRANCH   4   7
BRANCH   1  17
ATOM     17  C   UNL     1     -10.045  10.154  65.729  0.00  0.00    +0.073 C 
BRANCH  17  18
ATOM     18  C   UNL     1     -10.196   9.050  66.748  0.00  0.00    +0.025 C 
BRANCH  18  19
ATOM     19  C   UNL     1     -10.918   9.498  67.988  0.00  0.00    +0.071 C 
BRANCH  19  21
ATOM     20  O   UNL     1      -9.463   8.047  69.093  0.00  0.00    -0.291 OA
ATOM     21  C   UNL     1     -10.231   9.045  69.236  0.00  0.00    +0.173 C 
BRANCH  21  22
ATOM     22  C   UNL     1     -10.867   9.301  70.535  0.00  0.00    +0.035 A 
ATOM     23  C   UNL     1     -10.899   8.322  71.522  0.00  0.00    +0.005 A 
ATOM     24  C   UNL     1     -11.975   8.198  72.392  0.00  0.00    +0.030 A 
ATOM     25  C   UNL     1     -13.115   8.967  72.193  0.00  0.00    +0.140 A 
ATOM     26  F   UNL     1     -14.369   8.447  72.319  0.00  0.00    -0.204 F 
ATOM     27  C   UNL     1     -12.902  10.175  71.536  0.00  0.00    +0.030 A 
ATOM     28  C   UNL     1     -11.797  10.320  70.705  0.00  0.00    +0.005 A 
ENDBRANCH  21  22
ENDBRANCH  19  21
ENDBRANCH  18  19
ENDBRANCH  17  18
ENDBRANCH   1  17
TORSDOF 6
ENDMDL
MODEL 4
REMARK VINA RESULT:      -7.2      2.794      6.726
REMARK  Name = 
REMARK  6 active torsions:
REMARK  status: ('A' for Active; 'I' for Inactive)
REMARK    1  A    between atoms: C_2  and  C_3
REMARK    2  A    between atoms: C_2  and  C_22
REMARK    3  A    between atoms: C_3  and  C_4
REMARK    4  A    between atoms: C_4  and  C_5
REMARK    5  A    between atoms: C_5  and  N_6
REMARK    6  A    between atoms: C_9  and  N_10
REMARK                            x       y       z     vdW  Elec       q    Type
REMARK                         _______ _______ _______ _____ _____    ______ ____
ROOT
ATOM      1  N   UNL     1     -11.024  12.914  67.705  0.00  0.00    -0.269 NA
ATOM      2  C   UNL     1      -9.594  12.861  67.836  0.00  0.00    +0.079 C 
ATOM      3  C   UNL     1      -9.079  11.552  68.362  0.00  0.00    +0.061 C 
ATOM      4  C   UNL     1     -10.151  10.527  68.508  0.00  0.00    +0.044 C 
ATOM      5  C   UNL     1     -11.070  10.486  67.565  0.00  0.00    +0.004 C 
ATOM      6  C   UNL     1     -11.576  11.767  67.007  0.00  0.00    +0.100 C 
ENDROOT
BRANCH   4   7
ATOM      7  N   UNL     1     -10.062   9.540  69.543  0.00  0.00    -0.261 N 
ATOM      8  C   UNL     1     -10.994   9.411  70.518  0.00  0.00    +0.086 A 
ATOM      9  C   UNL     1     -10.922   8.147  71.079  0.00  0.00    +0.102 A 
ATOM     10  C   UNL     1     -12.034   7.701  71.784  0.00  0.00    +0.021 A 
ATOM     11  C   UNL     1     -13.152   8.487  71.981  0.00  0.00    +0.002 A 
ATOM     12  C   UNL     1     -13.032   9.849  71.756  0.00  0.00    +0.002 A 
ATOM     13  N   UNL     1     -10.048   7.476  70.295  0.00  0.00    -0.191 NA
ATOM     14  C   UNL     1     -11.991  10.272  70.944  0.00  0.00    +0.019 A 
ATOM     15  C   UNL     1      -9.682   8.271  69.266  0.00  0.00    +0.354 A 
ATOM     16  O   UNL     1      -8.998   7.912  68.263  0.00  0.00    -0.244 OA
ENDBRANCH   4   7
BRANCH   1  17
ATOM     17  C   UNL     1     -11.347  14.079  66.887  0.00  0.00    +0.073 C 
BRANCH  17  18
ATOM     18  C   UNL     1     -10.663  15.328  67.388  0.00  0.00    +0.025 C 
BRANCH  18  19
ATOM     19  C   UNL     1     -11.429  16.008  68.488  0.00  0.00    +0.071 C 
BRANCH  19  21
ATOM     20  O   UNL     1      -9.521  15.684  69.792  0.00  0.00    -0.291 OA
ATOM     21  C   UNL     1     -10.780  15.828  69.823  0.00  0.00    +0.173 C 
BRANCH  21  22
ATOM     22  C   UNL     1     -11.558  15.242  70.922  0.00  0.00    +0.035 A 
ATOM     23  C   UNL     1     -12.078  13.956  70.826  0.00  0.00    +0.005 A 
ATOM     24  C   UNL     1     -13.294  13.615  71.407  0.00  0.00    +0.030 A 
ATOM     25  C   UNL     1     -14.087  14.604  71.976  0.00  0.00    +0.140 A 
ATOM     26  F   UNL     1     -15.438  14.640  71.793  0.00  0.00    -0.204 F 
ATOM     27  C   UNL     1     -13.396  15.719  72.439  0.00  0.00    +0.030 A 
ATOM     28  C   UNL     1     -12.155  16.033  71.898  0.00  0.00    +0.005 A 
ENDBRANCH  21  22
ENDBRANCH  19  21
ENDBRANCH  18  19
ENDBRANCH  17  18
ENDBRANCH   1  17
TORSDOF 6
ENDMDL
MODEL 5
REMARK VINA RESULT:      -7.1      3.351      4.583
REMARK  Name = 
REMARK  6 active torsions:
REMARK  status: ('A' for Active; 'I' for Inactive)
REMARK    1  A    between atoms: C_2  and  C_3
REMARK    2  A    between atoms: C_2  and  C_22
REMARK    3  A    between atoms: C_3  and  C_4
REMARK    4  A    between atoms: C_4  and  C_5
REMARK    5  A    between atoms: C_5  and  N_6
REMARK    6  A    between atoms: C_9  and  N_10
REMARK                            x       y       z     vdW  Elec       q    Type
REMARK                         _______ _______ _______ _____ _____    ______ ____
ROOT
ATOM      1  N   UNL     1      -9.006  14.151  68.076  0.00  0.00    -0.269 NA
ATOM      2  C   UNL     1     -10.338  14.428  68.536  0.00  0.00    +0.079 C 
ATOM      3  C   UNL     1     -10.868  15.764  68.099  0.00  0.00    +0.061 C 
ATOM      4  C   UNL     1      -9.950  16.468  67.158  0.00  0.00    +0.044 C 
ATOM      5  C   UNL     1      -9.339  15.728  66.255  0.00  0.00    +0.004 C 
ATOM      6  C   UNL     1      -8.831  14.390  66.655  0.00  0.00    +0.100 C 
ENDROOT
BRANCH   4   7
ATOM      7  N   UNL     1      -9.891  17.899  67.153  0.00  0.00    -0.261 N 
ATOM      8  C   UNL     1      -8.861  18.594  67.696  0.00  0.00    +0.086 A 
ATOM      9  C   UNL     1      -8.818  19.872  67.164  0.00  0.00    +0.102 A 
ATOM     10  C   UNL     1      -7.622  20.570  67.284  0.00  0.00    +0.021 A 
ATOM     11  C   UNL     1      -6.527  20.057  67.952  0.00  0.00    +0.002 A 
ATOM     12  C   UNL     1      -6.732  18.974  68.792  0.00  0.00    +0.002 A 
ATOM     13  N   UNL     1      -9.734  19.857  66.169  0.00  0.00    -0.191 NA
ATOM     14  C   UNL     1      -7.867  18.207  68.579  0.00  0.00    +0.019 A 
ATOM     15  C   UNL     1     -10.237  18.608  66.054  0.00  0.00    +0.354 A 
ATOM     16  O   UNL     1     -10.999  18.203  65.129  0.00  0.00    -0.244 OA
ENDBRANCH   4   7
BRANCH   1  17
ATOM     17  C   UNL     1      -8.759  12.726  68.278  0.00  0.00    +0.073 C 
BRANCH  17  18
ATOM     18  C   UNL     1      -8.400  12.027  66.990  0.00  0.00    +0.025 C 
BRANCH  18  19
ATOM     19  C   UNL     1      -9.274  10.837  66.710  0.00  0.00    +0.071 C 
BRANCH  19  21
ATOM     20  O   UNL     1      -8.880  10.672  64.416  0.00  0.00    -0.291 OA
ATOM     21  C   UNL     1      -9.775  10.823  65.302  0.00  0.00    +0.173 C 
BRANCH  21  22
ATOM     22  C   UNL     1     -11.014  11.540  64.977  0.00  0.00    +0.035 A 
ATOM     23  C   UNL     1     -11.302  11.917  63.669  0.00  0.00    +0.005 A 
ATOM     24  C   UNL     1     -11.985  13.093  63.382  0.00  0.00    +0.030 A 
ATOM     25  C   UNL     1     -12.267  13.993  64.402  0.00  0.00    +0.140 A 
ATOM     26  F   UNL     1     -12.113  15.339  64.240  0.00  0.00    -0.204 F 
ATOM     27  C   UNL     1     -12.375  13.431  65.670  0.00  0.00    +0.030 A 
ATOM     28  C   UNL     1     -11.737  12.227  65.946  0.00  0.00    +0.005 A 
ENDBRANCH  21  22
ENDBRANCH  19  21
ENDBRANCH  18  19
ENDBRANCH  17  18
ENDBRANCH   1  17
TORSDOF 6
ENDMDL
MODEL 6
REMARK VINA RESULT:      -7.1      2.635      7.269
REMARK  Name = 
REMARK  6 active torsions:
REMARK  status: ('A' for Active; 'I' for Inactive)
REMARK    1  A    between atoms: C_2  and  C_3
REMARK    2  A    between atoms: C_2  and  C_22
REMARK    3  A    between atoms: C_3  and  C_4
REMARK    4  A    between atoms: C_4  and  C_5
REMARK    5  A    between atoms: C_5  and  N_6
REMARK    6  A    between atoms: C_9  and  N_10
REMARK                            x       y       z     vdW  Elec       q    Type
REMARK                         _______ _______ _______ _____ _____    ______ ____
ROOT
ATOM      1  N   UNL     1     -10.535  15.379  66.934  0.00  0.00    -0.269 NA
ATOM      2  C   UNL     1      -9.369  14.613  67.276  0.00  0.00    +0.079 C 
ATOM      3  C   UNL     1      -9.640  13.482  68.226  0.00  0.00    +0.061 C 
ATOM      4  C   UNL     1     -11.093  13.302  68.507  0.00  0.00    +0.044 C 
ATOM      5  C   UNL     1     -11.922  13.462  67.495  0.00  0.00    +0.004 C 
ATOM      6  C   UNL     1     -11.659  14.556  66.525  0.00  0.00    +0.100 C 
ENDROOT
BRANCH   4   7
ATOM      7  N   UNL     1     -11.519  12.812  69.785  0.00  0.00    -0.261 N 
ATOM      8  C   UNL     1     -12.214  13.570  70.668  0.00  0.00    +0.086 A 
ATOM      9  C   UNL     1     -12.879  12.757  71.571  0.00  0.00    +0.102 A 
ATOM     10  C   UNL     1     -13.940  13.319  72.270  0.00  0.00    +0.021 A 
ATOM     11  C   UNL     1     -14.301  14.646  72.131  0.00  0.00    +0.002 A 
ATOM     12  C   UNL     1     -13.389  15.504  71.538  0.00  0.00    +0.002 A 
ATOM     13  N   UNL     1     -12.703  11.504  71.093  0.00  0.00    -0.191 NA
ATOM     14  C   UNL     1     -12.409  14.939  70.737  0.00  0.00    +0.019 A 
ATOM     15  C   UNL     1     -12.041  11.571  69.918  0.00  0.00    +0.354 A 
ATOM     16  O   UNL     1     -11.844  10.603  69.126  0.00  0.00    -0.244 OA
ENDBRANCH   4   7
BRANCH   1  17
ATOM     17  C   UNL     1     -10.196  16.202  65.776  0.00  0.00    +0.073 C 
BRANCH  17  18
ATOM     18  C   UNL     1      -9.932  17.637  66.162  0.00  0.00    +0.025 C 
BRANCH  18  19
ATOM     19  C   UNL     1     -10.510  17.994  67.503  0.00  0.00    +0.071 C 
BRANCH  19  21
ATOM     20  O   UNL     1     -10.482  20.155  68.382  0.00  0.00    -0.291 OA
ATOM     21  C   UNL     1      -9.779  19.126  68.149  0.00  0.00    +0.173 C 
BRANCH  21  22
ATOM     22  C   UNL     1      -8.333  19.262  67.930  0.00  0.00    +0.035 A 
ATOM     23  C   UNL     1      -7.420  18.596  68.741  0.00  0.00    +0.005 A 
ATOM     24  C   UNL     1      -6.190  19.155  69.066  0.00  0.00    +0.030 A 
ATOM     25  C   UNL     1      -5.910  20.466  68.700  0.00  0.00    +0.140 A 
ATOM     26  F   UNL     1      -5.290  21.336  69.548  0.00  0.00    -0.204 F 
ATOM     27  C   UNL     1      -6.593  20.922  67.578  0.00  0.00    +0.030 A 
ATOM     28  C   UNL     1      -7.799  20.331  67.219  0.00  0.00    +0.005 A 
ENDBRANCH  21  22
ENDBRANCH  19  21
ENDBRANCH  18  19
ENDBRANCH  17  18
ENDBRANCH   1  17
TORSDOF 6
ENDMDL
MODEL 7
REMARK VINA RESULT:      -7.1      2.299      6.782
REMARK  Name = 
REMARK  6 active torsions:
REMARK  status: ('A' for Active; 'I' for Inactive)
REMARK    1  A    between atoms: C_2  and  C_3
REMARK    2  A    between atoms: C_2  and  C_22
REMARK    3  A    between atoms: C_3  and  C_4
REMARK    4  A    between atoms: C_4  and  C_5
REMARK    5  A    between atoms: C_5  and  N_6
REMARK    6  A    between atoms: C_9  and  N_10
REMARK                            x       y       z     vdW  Elec       q    Type
REMARK                         _______ _______ _______ _____ _____    ______ ____
ROOT
ATOM      1  N   UNL     1     -10.573  13.037  66.666  0.00  0.00    -0.269 NA
ATOM      2  C   UNL     1      -9.456  12.451  67.353  0.00  0.00    +0.079 C 
ATOM      3  C   UNL     1      -9.811  11.826  68.672  0.00  0.00    +0.061 C 
ATOM      4  C   UNL     1     -11.279  11.821  68.930  0.00  0.00    +0.044 C 
ATOM      5  C   UNL     1     -12.065  11.568  67.903  0.00  0.00    +0.004 C 
ATOM      6  C   UNL     1     -11.719  12.151  66.580  0.00  0.00    +0.100 C 
ENDROOT
BRANCH   4   7
ATOM      7  N   UNL     1     -11.771  11.920  70.272  0.00  0.00    -0.261 N 
ATOM      8  C   UNL     1     -12.311  13.057  70.775  0.00  0.00    +0.086 A 
ATOM      9  C   UNL     1     -13.098  12.762  71.876  0.00  0.00    +0.102 A 
ATOM     10  C   UNL     1     -14.036  13.713  72.259  0.00  0.00    +0.021 A 
ATOM     11  C   UNL     1     -14.159  14.933  71.623  0.00  0.00    +0.002 A 
ATOM     12  C   UNL     1     -13.117  15.344  70.807  0.00  0.00    +0.002 A 
ATOM     13  N   UNL     1     -13.151  11.411  71.903  0.00  0.00    -0.191 NA
ATOM     14  C   UNL     1     -12.261  14.366  70.325  0.00  0.00    +0.019 A 
ATOM     15  C   UNL     1     -12.501  10.924  70.824  0.00  0.00    +0.354 A 
ATOM     16  O   UNL     1     -12.487   9.713  70.456  0.00  0.00    -0.244 OA
ENDBRANCH   4   7
BRANCH   1  17
ATOM     17  C   UNL     1     -10.156  13.293  65.290  0.00  0.00    +0.073 C 
BRANCH  17  18
ATOM     18  C   UNL     1     -10.159  14.767  64.965  0.00  0.00    +0.025 C 
BRANCH  18  19
ATOM     19  C   UNL     1     -10.216  15.634  66.192  0.00  0.00    +0.071 C 
BRANCH  19  21
ATOM     20  O   UNL     1     -11.014  17.218  64.676  0.00  0.00    -0.291 OA
ATOM     21  C   UNL     1     -10.765  16.992  65.899  0.00  0.00    +0.173 C 
BRANCH  21  22
ATOM     22  C   UNL     1     -10.434  18.107  66.797  0.00  0.00    +0.035 A 
ATOM     23  C   UNL     1     -10.570  19.426  66.381  0.00  0.00    +0.005 A 
ATOM     24  C   UNL     1      -9.700  20.421  66.813  0.00  0.00    +0.030 A 
ATOM     25  C   UNL     1      -8.580  20.080  67.561  0.00  0.00    +0.140 A 
ATOM     26  F   UNL     1      -7.360  20.645  67.332  0.00  0.00    -0.204 F 
ATOM     27  C   UNL     1      -8.701  18.908  68.301  0.00  0.00    +0.030 A 
ATOM     28  C   UNL     1      -9.608  17.933  67.902  0.00  0.00    +0.005 A 
ENDBRANCH  21  22
ENDBRANCH  19  21
ENDBRANCH  18  19
ENDBRANCH  17  18
ENDBRANCH   1  17
TORSDOF 6
ENDMDL
MODEL 8
REMARK VINA RESULT:      -7.1      2.889      4.601
REMARK  Name = 
REMARK  6 active torsions:
REMARK  status: ('A' for Active; 'I' for Inactive)
REMARK    1  A    between atoms: C_2  and  C_3
REMARK    2  A    between atoms: C_2  and  C_22
REMARK    3  A    between atoms: C_3  and  C_4
REMARK    4  A    between atoms: C_4  and  C_5
REMARK    5  A    between atoms: C_5  and  N_6
REMARK    6  A    between atoms: C_9  and  N_10
REMARK                            x       y       z     vdW  Elec       q    Type
REMARK                         _______ _______ _______ _____ _____    ______ ____
ROOT
ATOM      1  N   UNL     1      -9.872  17.676  67.658  0.00  0.00    -0.269 NA
ATOM      2  C   UNL     1     -10.525  18.894  67.266  0.00  0.00    +0.079 C 
ATOM      3  C   UNL     1      -9.580  19.993  66.876  0.00  0.00    +0.061 C 
ATOM      4  C   UNL     1      -8.158  19.546  66.841  0.00  0.00    +0.044 C 
ATOM      5  C   UNL     1      -7.923  18.340  66.363  0.00  0.00    +0.004 C 
ATOM      6  C   UNL     1      -8.861  17.241  66.711  0.00  0.00    +0.100 C 
ENDROOT
BRANCH   4   7
ATOM      7  N   UNL     1      -7.109  20.469  67.157  0.00  0.00    -0.261 N 
ATOM      8  C   UNL     1      -6.401  20.409  68.312  0.00  0.00    +0.086 A 
ATOM      9  C   UNL     1      -5.198  21.079  68.166  0.00  0.00    +0.102 A 
ATOM     10  C   UNL     1      -4.191  20.781  69.076  0.00  0.00    +0.021 A 
ATOM     11  C   UNL     1      -4.375  19.901  70.125  0.00  0.00    +0.002 A 
ATOM     12  C   UNL     1      -5.675  19.565  70.466  0.00  0.00    +0.002 A 
ATOM     13  N   UNL     1      -5.136  21.383  66.850  0.00  0.00    -0.191 NA
ATOM     14  C   UNL     1      -6.654  19.747  69.501  0.00  0.00    +0.019 A 
ATOM     15  C   UNL     1      -6.205  20.845  66.224  0.00  0.00    +0.354 A 
ATOM     16  O   UNL     1      -6.383  20.805  64.972  0.00  0.00    -0.244 OA
ENDBRANCH   4   7
BRANCH   1  17
ATOM     17  C   UNL     1     -10.884  16.623  67.679  0.00  0.00    +0.073 C 
BRANCH  17  18
ATOM     18  C   UNL     1     -10.265  15.247  67.726  0.00  0.00    +0.025 C 
BRANCH  18  19
ATOM     19  C   UNL     1     -10.225  14.673  69.115  0.00  0.00    +0.071 C 
BRANCH  19  21
ATOM     20  O   UNL     1     -12.130  13.429  68.597  0.00  0.00    -0.291 OA
ATOM     21  C   UNL     1     -11.532  14.070  69.514  0.00  0.00    +0.173 C 
BRANCH  21  22
ATOM     22  C   UNL     1     -12.306  14.691  70.597  0.00  0.00    +0.035 A 
ATOM     23  C   UNL     1     -11.889  15.881  71.184  0.00  0.00    +0.005 A 
ATOM     24  C   UNL     1     -12.097  16.141  72.533  0.00  0.00    +0.030 A 
ATOM     25  C   UNL     1     -12.601  15.143  73.358  0.00  0.00    +0.140 A 
ATOM     26  F   UNL     1     -12.102  14.919  74.608  0.00  0.00    -0.204 F 
ATOM     27  C   UNL     1     -13.384  14.189  72.717  0.00  0.00    +0.030 A 
ATOM     28  C   UNL     1     -13.216  13.963  71.356  0.00  0.00    +0.005 A 
ENDBRANCH  21  22
ENDBRANCH  19  21
ENDBRANCH  18  19
ENDBRANCH  17  18
ENDBRANCH   1  17
TORSDOF 6
ENDMDL
MODEL 9
REMARK VINA RESULT:      -7.1      2.677      3.796
REMARK  Name = 
REMARK  6 active torsions:
REMARK  status: ('A' for Active; 'I' for Inactive)
REMARK    1  A    between atoms: C_2  and  C_3
REMARK    2  A    between atoms: C_2  and  C_22
REMARK    3  A    between atoms: C_3  and  C_4
REMARK    4  A    between atoms: C_4  and  C_5
REMARK    5  A    between atoms: C_5  and  N_6
REMARK    6  A    between atoms: C_9  and  N_10
REMARK                            x       y       z     vdW  Elec       q    Type
REMARK                         _______ _______ _______ _____ _____    ______ ____
ROOT
ATOM      1  N   UNL     1     -11.296  14.277  67.142  0.00  0.00    -0.269 NA
ATOM      2  C   UNL     1      -9.882  14.306  66.888  0.00  0.00    +0.079 C 
ATOM      3  C   UNL     1      -9.251  15.651  67.104  0.00  0.00    +0.061 C 
ATOM      4  C   UNL     1     -10.200  16.648  67.676  0.00  0.00    +0.044 C 
ATOM      5  C   UNL     1     -11.042  16.213  68.593  0.00  0.00    +0.004 C 
ATOM      6  C   UNL     1     -11.658  14.872  68.416  0.00  0.00    +0.100 C 
ENDROOT
BRANCH   4   7
ATOM      7  N   UNL     1     -10.064  18.036  67.349  0.00  0.00    -0.261 N 
ATOM      8  C   UNL     1      -9.055  18.807  67.823  0.00  0.00    +0.086 A 
ATOM      9  C   UNL     1      -8.893  19.923  67.020  0.00  0.00    +0.102 A 
ATOM     10  C   UNL     1      -7.679  20.594  67.102  0.00  0.00    +0.021 A 
ATOM     11  C   UNL     1      -6.681  20.218  67.981  0.00  0.00    +0.002 A 
ATOM     12  C   UNL     1      -7.023  19.369  69.020  0.00  0.00    +0.002 A 
ATOM     13  N   UNL     1      -9.710  19.703  65.964  0.00  0.00    -0.191 NA
ATOM     14  C   UNL     1      -8.172  18.608  68.871  0.00  0.00    +0.019 A 
ATOM     15  C   UNL     1     -10.265  18.478  66.087  0.00  0.00    +0.354 A 
ATOM     16  O   UNL     1     -10.957  17.891  65.204  0.00  0.00    -0.244 OA
ENDBRANCH   4   7
BRANCH   1  17
ATOM     17  C   UNL     1     -11.699  12.876  67.222  0.00  0.00    +0.073 C 
BRANCH  17  18
ATOM     18  C   UNL     1     -11.699  12.369  68.644  0.00  0.00    +0.025 C 
BRANCH  18  19
ATOM     19  C   UNL     1     -11.721  10.868  68.727  0.00  0.00    +0.071 C 
BRANCH  19  21
ATOM     20  O   UNL     1      -9.668  10.179  69.595  0.00  0.00    -0.291 OA
ATOM     21  C   UNL     1     -10.896  10.353  69.861  0.00  0.00    +0.173 C 
BRANCH  21  22
ATOM     22  C   UNL     1     -11.540   9.547  70.906  0.00  0.00    +0.035 A 
ATOM     23  C   UNL     1     -11.363   8.169  70.959  0.00  0.00    +0.005 A 
ATOM     24  C   UNL     1     -12.377   7.319  71.385  0.00  0.00    +0.030 A 
ATOM     25  C   UNL     1     -13.646   7.828  71.629  0.00  0.00    +0.140 A 
ATOM     26  F   UNL     1     -14.775   7.178  71.224  0.00  0.00    -0.204 F 
ATOM     27  C   UNL     1     -13.682   9.170  71.991  0.00  0.00    +0.030 A 
ATOM     28  C   UNL     1     -12.644  10.013  71.612  0.00  0.00    +0.005 A 
ENDBRANCH  21  22
ENDBRANCH  19  21
ENDBRANCH  18  19
ENDBRANCH  17  18
ENDBRANCH   1  17
TORSDOF 6
ENDMDL
