MODEL 1
REMARK VINA RESULT:      -6.8      0.000      0.000
REMARK  Name = 
REMARK  8 active torsions:
REMARK  status: ('A' for Active; 'I' for Inactive)
REMARK    1  A    between atoms: C_2  and  C_4
REMARK    2  A    between atoms: C_4  and  C_5
REMARK    3  A    between atoms: C_5  and  C_6
REMARK    4  A    between atoms: C_6  and  N_7
REMARK    5  A    between atoms: C_10  and  O_11
REMARK    6  A    between atoms: O_11  and  C_12
REMARK    7  A    between atoms: C_12  and  C_13
REMARK    8  A    between atoms: C_12  and  C_20
REMARK                            x       y       z     vdW  Elec       q    Type
REMARK                         _______ _______ _______ _____ _____    ______ ____
ROOT
ATOM      1  C   UNL     1     -10.373  13.988  68.529  0.00  0.00    +0.177 C 
ENDROOT
BRANCH   1   2
ATOM      2  C   UNL     1     -11.594  14.616  69.463  0.00  0.00    +0.010 A 
ATOM      3  C   UNL     1     -11.120  15.659  70.258  0.00  0.00    -0.001 A 
ATOM      4  C   UNL     1     -11.954  16.034  71.304  0.00  0.00    +0.011 A 
ATOM      5  C   UNL     1     -12.586  15.027  72.023  0.00  0.00    +0.058 A 
ATOM      6 CL   UNL     1     -12.911  15.250  73.738  0.00  0.00    -0.082 Cl
ATOM      7  C   UNL     1     -12.634  13.761  71.455  0.00  0.00    +0.011 A 
ATOM      8  C   UNL     1     -12.073  13.539  70.209  0.00  0.00    -0.001 A 
ENDBRANCH   1   2
BRANCH   1   9
ATOM      9  C   UNL     1     -11.455  13.226  67.527  0.00  0.00    +0.090 A 
ATOM     10  N   UNL     1     -10.827  12.354  66.705  0.00  0.00    -0.245 NA
ATOM     11  C   UNL     1     -11.502  11.946  65.614  0.00  0.00    +0.099 A 
ATOM     12  C   UNL     1     -12.370  12.806  64.963  0.00  0.00    +0.021 A 
ATOM     13  C   UNL     1     -12.563  14.042  65.564  0.00  0.00    +0.003 A 
ATOM     14  C   UNL     1     -12.112  14.260  66.860  0.00  0.00    +0.018 A 
ENDBRANCH   1   9
BRANCH   1  15
ATOM     15  O   UNL     1     -10.360  15.238  67.602  0.00  0.00    -0.348 OA
BRANCH  15  19
ATOM     16  N   UNL     1      -7.154  17.574  67.486  0.00  0.00    -0.273 NA
ATOM     17  C   UNL     1      -7.988  17.167  68.582  0.00  0.00    +0.075 C 
ATOM     18  C   UNL     1      -8.288  15.695  68.609  0.00  0.00    +0.047 C 
ATOM     19  C   UNL     1      -8.988  15.280  67.348  0.00  0.00    +0.119 C 
ATOM     20  C   UNL     1      -8.709  16.235  66.219  0.00  0.00    +0.047 C 
ATOM     21  C   UNL     1      -7.302  16.763  66.306  0.00  0.00    +0.075 C 
BRANCH  16  22
ATOM     22  C   UNL     1      -7.492  18.977  67.247  0.00  0.00    +0.073 C 
BRANCH  22  23
ATOM     23  C   UNL     1      -8.573  19.274  68.284  0.00  0.00    +0.029 C 
BRANCH  23  24
ATOM     24  C   UNL     1      -9.498  20.278  67.601  0.00  0.00    +0.115 C 
BRANCH  24  26
ATOM     25  O   UNL     1     -10.669  19.475  65.784  0.00  0.00    -0.246 OA
ATOM     26  C   UNL     1     -10.540  19.450  66.915  0.00  0.00    +0.365 C 
ATOM     27  O   UNL     1     -11.113  18.419  67.632  0.00  0.00    -0.246 OA
ENDBRANCH  24  26
ENDBRANCH  23  24
ENDBRANCH  22  23
ENDBRANCH  16  22
ENDBRANCH  15  19
ENDBRANCH   1  15
TORSDOF 8
ENDMDL
MODEL 2
REMARK VINA RESULT:      -6.4      3.259      5.087
REMARK  Name = 
REMARK  8 active torsions:
REMARK  status: ('A' for Active; 'I' for Inactive)
REMARK    1  A    between atoms: C_2  and  C_4
REMARK    2  A    between atoms: C_4  and  C_5
REMARK    3  A    between atoms: C_5  and  C_6
REMARK    4  A    between atoms: C_6  and  N_7
REMARK    5  A    between atoms: C_10  and  O_11
REMARK    6  A    between atoms: O_11  and  C_12
REMARK    7  A    between atoms: C_12  and  C_13
REMARK    8  A    between atoms: C_12  and  C_20
REMARK                            x       y       z     vdW  Elec       q    Type
REMARK                         _______ _______ _______ _____ _____    ______ ____
ROOT
ATOM      1  C   UNL     1     -11.904  13.423  67.248  0.00  0.00    +0.177 C 
ENDROOT
BRANCH   1   2
ATOM      2  C   UNL     1     -11.515  12.160  66.242  0.00  0.00    +0.010 A 
ATOM      3  C   UNL     1     -10.134  11.979  66.190  0.00  0.00    -0.001 A 
ATOM      4  C   UNL     1      -9.678  11.186  65.144  0.00  0.00    +0.011 A 
ATOM      5  C   UNL     1     -10.267  11.356  63.897  0.00  0.00    +0.058 A 
ATOM      6 CL   UNL     1      -9.309  11.118  62.440  0.00  0.00    -0.082 Cl
ATOM      7  C   UNL     1     -11.479  12.030  63.841  0.00  0.00    +0.011 A 
ATOM      8  C   UNL     1     -12.066  12.497  65.005  0.00  0.00    -0.001 A 
ENDBRANCH   1   2
BRANCH   1   9
ATOM      9  C   UNL     1     -11.553  12.528  68.601  0.00  0.00    +0.090 A 
ATOM     10  N   UNL     1     -12.150  11.315  68.549  0.00  0.00    -0.245 NA
ATOM     11  C   UNL     1     -12.260  10.638  69.708  0.00  0.00    +0.099 A 
ATOM     12  C   UNL     1     -12.462  11.313  70.900  0.00  0.00    +0.021 A 
ATOM     13  C   UNL     1     -12.435  12.698  70.823  0.00  0.00    +0.003 A 
ATOM     14  C   UNL     1     -11.970  13.320  69.670  0.00  0.00    +0.018 A 
ENDBRANCH   1   9
BRANCH   1  15
ATOM     15  O   UNL     1     -10.450  13.978  67.209  0.00  0.00    -0.348 OA
BRANCH  15  19
ATOM     16  N   UNL     1      -9.041  17.678  66.946  0.00  0.00    -0.273 NA
ATOM     17  C   UNL     1      -8.661  16.470  66.267  0.00  0.00    +0.075 C 
ATOM     18  C   UNL     1      -9.819  15.683  65.724  0.00  0.00    +0.047 C 
ATOM     19  C   UNL     1     -10.750  15.288  66.833  0.00  0.00    +0.119 C 
ATOM     20  C   UNL     1     -10.616  16.202  68.022  0.00  0.00    +0.047 C 
ATOM     21  C   UNL     1     -10.332  17.611  67.577  0.00  0.00    +0.075 C 
BRANCH  16  22
ATOM     22  C   UNL     1      -7.964  17.936  67.901  0.00  0.00    +0.073 C 
BRANCH  22  23
ATOM     23  C   UNL     1      -8.148  19.406  68.271  0.00  0.00    +0.029 C 
BRANCH  23  24
ATOM     24  C   UNL     1      -7.489  20.177  67.130  0.00  0.00    +0.115 C 
BRANCH  24  26
ATOM     25  O   UNL     1      -6.033  20.772  68.817  0.00  0.00    -0.246 OA
ATOM     26  C   UNL     1      -6.435  21.019  67.780  0.00  0.00    +0.365 C 
ATOM     27  O   UNL     1      -5.728  21.892  66.978  0.00  0.00    -0.246 OA
ENDBRANCH  24  26
ENDBRANCH  23  24
ENDBRANCH  22  23
ENDBRANCH  16  22
ENDBRANCH  15  19
ENDBRANCH   1  15
TORSDOF 8
ENDMDL
MODEL 3
REMARK VINA RESULT:      -6.4      3.263      4.997
REMARK  Name = 
REMARK  8 active torsions:
REMARK  status: ('A' for Active; 'I' for Inactive)
REMARK    1  A    between atoms: C_2  and  C_4
REMARK    2  A    between atoms: C_4  and  C_5
REMARK    3  A    between atoms: C_5  and  C_6
REMARK    4  A    between atoms: C_6  and  N_7
REMARK    5  A    between atoms: C_10  and  O_11
REMARK    6  A    between atoms: O_11  and  C_12
REMARK    7  A    between atoms: C_12  and  C_13
REMARK    8  A    between atoms: C_12  and  C_20
REMARK                            x       y       z     vdW  Elec       q    Type
REMARK                         _______ _______ _______ _____ _____    ______ ____
ROOT
ATOM      1  C   UNL     1     -11.782  15.338  68.947  0.00  0.00    +0.177 C 
ENDROOT
BRANCH   1   2
ATOM      2  C   UNL     1     -12.026  13.809  68.346  0.00  0.00    +0.010 A 
ATOM      3  C   UNL     1     -10.954  12.977  68.665  0.00  0.00    -0.001 A 
ATOM      4  C   UNL     1     -10.889  11.791  67.944  0.00  0.00    +0.011 A 
ATOM      5  C   UNL     1     -11.172  11.840  66.585  0.00  0.00    +0.058 A 
ATOM      6 CL   UNL     1     -10.349  10.744  65.482  0.00  0.00    -0.082 Cl
ATOM      7  C   UNL     1     -11.829  12.964  66.103  0.00  0.00    +0.011 A 
ATOM      8  C   UNL     1     -12.190  13.981  66.970  0.00  0.00    -0.001 A 
ENDBRANCH   1   2
BRANCH   1   9
ATOM      9  C   UNL     1     -11.923  14.806  70.513  0.00  0.00    +0.090 A 
ATOM     10  N   UNL     1     -13.179  14.371  70.767  0.00  0.00    -0.245 NA
ATOM     11  C   UNL     1     -13.538  14.259  72.060  0.00  0.00    +0.099 A 
ATOM     12  C   UNL     1     -13.049  15.146  73.004  0.00  0.00    +0.021 A 
ATOM     13  C   UNL     1     -12.110  16.060  72.547  0.00  0.00    +0.003 A 
ATOM     14  C   UNL     1     -11.531  15.892  71.295  0.00  0.00    +0.018 A 
ENDBRANCH   1   9
BRANCH   1  15
ATOM     15  O   UNL     1     -10.239  15.137  68.993  0.00  0.00    -0.348 OA
BRANCH  15  19
ATOM     16  N   UNL     1      -7.394  17.705  67.966  0.00  0.00    -0.273 NA
ATOM     17  C   UNL     1      -7.424  16.268  67.947  0.00  0.00    +0.075 C 
ATOM     18  C   UNL     1      -8.670  15.691  67.338  0.00  0.00    +0.047 C 
ATOM     19  C   UNL     1      -9.882  16.145  68.096  0.00  0.00    +0.119 C 
ATOM     20  C   UNL     1      -9.622  17.424  68.845  0.00  0.00    +0.047 C 
ATOM     21  C   UNL     1      -8.693  18.315  68.066  0.00  0.00    +0.075 C 
BRANCH  16  22
ATOM     22  C   UNL     1      -6.524  18.055  69.089  0.00  0.00    +0.073 C 
BRANCH  22  23
ATOM     23  C   UNL     1      -6.600  19.579  69.149  0.00  0.00    +0.029 C 
BRANCH  23  24
ATOM     24  C   UNL     1      -5.262  20.009  69.745  0.00  0.00    +0.115 C 
BRANCH  24  26
ATOM     25  O   UNL     1      -6.374  20.583  71.683  0.00  0.00    -0.246 OA
ATOM     26  C   UNL     1      -5.482  20.040  71.226  0.00  0.00    +0.365 C 
ATOM     27  O   UNL     1      -4.784  19.132  71.996  0.00  0.00    -0.246 OA
ENDBRANCH  24  26
ENDBRANCH  23  24
ENDBRANCH  22  23
ENDBRANCH  16  22
ENDBRANCH  15  19
ENDBRANCH   1  15
TORSDOF 8
ENDMDL
MODEL 4
REMARK VINA RESULT:      -6.4      2.959      3.327
REMARK  Name = 
REMARK  8 active torsions:
REMARK  status: ('A' for Active; 'I' for Inactive)
REMARK    1  A    between atoms: C_2  and  C_4
REMARK    2  A    between atoms: C_4  and  C_5
REMARK    3  A    between atoms: C_5  and  C_6
REMARK    4  A    between atoms: C_6  and  N_7
REMARK    5  A    between atoms: C_10  and  O_11
REMARK    6  A    between atoms: O_11  and  C_12
REMARK    7  A    between atoms: C_12  and  C_13
REMARK    8  A    between atoms: C_12  and  C_20
REMARK                            x       y       z     vdW  Elec       q    Type
REMARK                         _______ _______ _______ _____ _____    ______ ____
ROOT
ATOM      1  C   UNL     1      -9.995  14.520  68.003  0.00  0.00    +0.177 C 
ENDROOT
BRANCH   1   2
ATOM      2  C   UNL     1     -11.472  14.519  68.762  0.00  0.00    +0.010 A 
ATOM      3  C   UNL     1     -11.600  15.629  69.594  0.00  0.00    -0.001 A 
ATOM      4  C   UNL     1     -12.635  15.563  70.519  0.00  0.00    +0.011 A 
ATOM      5  C   UNL     1     -12.850  14.353  71.166  0.00  0.00    +0.058 A 
ATOM      6 CL   UNL     1     -13.447  14.342  72.821  0.00  0.00    -0.082 Cl
ATOM      7  C   UNL     1     -12.273  13.216  70.618  0.00  0.00    +0.011 A 
ATOM      8  C   UNL     1     -11.523  13.310  69.458  0.00  0.00    -0.001 A 
ENDBRANCH   1   2
BRANCH   1   9
ATOM      9  C   UNL     1     -10.693  14.258  66.520  0.00  0.00    +0.090 A 
ATOM     10  N   UNL     1     -12.024  14.496  66.561  0.00  0.00    -0.245 NA
ATOM     11  C   UNL     1     -12.768  13.985  65.562  0.00  0.00    +0.099 A 
ATOM     12  C   UNL     1     -12.432  12.771  64.986  0.00  0.00    +0.021 A 
ATOM     13  C   UNL     1     -11.251  12.196  65.431  0.00  0.00    +0.003 A 
ATOM     14  C   UNL     1     -10.363  12.942  66.199  0.00  0.00    +0.018 A 
ENDBRANCH   1   9
BRANCH   1  15
ATOM     15  O   UNL     1     -10.045  16.060  67.781  0.00  0.00    -0.348 OA
BRANCH  15  19
ATOM     16  N   UNL     1      -6.582  17.905  68.369  0.00  0.00    -0.273 NA
ATOM     17  C   UNL     1      -7.270  16.913  69.149  0.00  0.00    +0.075 C 
ATOM     18  C   UNL     1      -7.787  15.754  68.346  0.00  0.00    +0.047 C 
ATOM     19  C   UNL     1      -8.747  16.231  67.296  0.00  0.00    +0.119 C 
ATOM     20  C   UNL     1      -8.520  17.679  66.952  0.00  0.00    +0.047 C 
ATOM     21  C   UNL     1      -7.055  18.015  67.015  0.00  0.00    +0.075 C 
BRANCH  16  22
ATOM     22  C   UNL     1      -6.733  19.153  69.118  0.00  0.00    +0.073 C 
BRANCH  22  23
ATOM     23  C   UNL     1      -5.513  19.178  70.036  0.00  0.00    +0.029 C 
BRANCH  23  24
ATOM     24  C   UNL     1      -5.926  20.071  71.203  0.00  0.00    +0.115 C 
BRANCH  24  26
ATOM     25  O   UNL     1      -4.536  21.882  71.526  0.00  0.00    -0.246 OA
ATOM     26  C   UNL     1      -4.669  20.756  71.640  0.00  0.00    +0.365 C 
ATOM     27  O   UNL     1      -3.818  20.063  72.477  0.00  0.00    -0.246 OA
ENDBRANCH  24  26
ENDBRANCH  23  24
ENDBRANCH  22  23
ENDBRANCH  16  22
ENDBRANCH  15  19
ENDBRANCH   1  15
TORSDOF 8
ENDMDL
MODEL 5
REMARK VINA RESULT:      -6.2      3.776      5.720
REMARK  Name = 
REMARK  8 active torsions:
REMARK  status: ('A' for Active; 'I' for Inactive)
REMARK    1  A    between atoms: C_2  and  C_4
REMARK    2  A    between atoms: C_4  and  C_5
REMARK    3  A    between atoms: C_5  and  C_6
REMARK    4  A    between atoms: C_6  and  N_7
REMARK    5  A    between atoms: C_10  and  O_11
REMARK    6  A    between atoms: O_11  and  C_12
REMARK    7  A    between atoms: C_12  and  C_13
REMARK    8  A    between atoms: C_12  and  C_20
REMARK                            x       y       z     vdW  Elec       q    Type
REMARK                         _______ _______ _______ _____ _____    ______ ____
ROOT
ATOM      1  C   UNL     1      -8.913  16.213  66.281  0.00  0.00    +0.177 C 
ENDROOT
BRANCH   1   2
ATOM      2  C   UNL     1     -10.201  15.164  66.250  0.00  0.00    +0.010 A 
ATOM      3  C   UNL     1      -9.763  13.849  66.099  0.00  0.00    -0.001 A 
ATOM      4  C   UNL     1     -10.742  12.936  65.730  0.00  0.00    +0.011 A 
ATOM      5  C   UNL     1     -11.669  13.329  64.773  0.00  0.00    +0.058 A 
ATOM      6 CL   UNL     1     -12.334  12.138  63.661  0.00  0.00    -0.082 Cl
ATOM      7  C   UNL     1     -11.783  14.686  64.504  0.00  0.00    +0.011 A 
ATOM      8  C   UNL     1     -10.998  15.597  65.189  0.00  0.00    -0.001 A 
ENDBRANCH   1   2
BRANCH   1   9
ATOM      9  C   UNL     1      -9.901  17.505  66.610  0.00  0.00    +0.090 A 
ATOM     10  N   UNL     1      -9.520  18.599  65.911  0.00  0.00    -0.245 NA
ATOM     11  C   UNL     1      -9.980  19.790  66.339  0.00  0.00    +0.099 A 
ATOM     12  C   UNL     1     -10.171  20.025  67.689  0.00  0.00    +0.021 A 
ATOM     13  C   UNL     1      -9.959  18.940  68.529  0.00  0.00    +0.003 A 
ATOM     14  C   UNL     1      -9.831  17.665  67.993  0.00  0.00    +0.018 A 
ENDBRANCH   1   9
BRANCH   1  15
ATOM     15  O   UNL     1      -8.680  15.974  67.801  0.00  0.00    -0.348 OA
BRANCH  15  19
ATOM     16  N   UNL     1      -5.141  17.622  68.513  0.00  0.00    -0.273 NA
ATOM     17  C   UNL     1      -6.211  17.259  69.400  0.00  0.00    +0.075 C 
ATOM     18  C   UNL     1      -6.766  15.884  69.158  0.00  0.00    +0.047 C 
ATOM     19  C   UNL     1      -7.300  15.773  67.760  0.00  0.00    +0.119 C 
ATOM     20  C   UNL     1      -6.666  16.784  66.842  0.00  0.00    +0.047 C 
ATOM     21  C   UNL     1      -5.225  17.008  67.214  0.00  0.00    +0.075 C 
BRANCH  16  22
ATOM     22  C   UNL     1      -5.180  19.083  68.444  0.00  0.00    +0.073 C 
BRANCH  22  23
ATOM     23  C   UNL     1      -5.587  19.504  69.855  0.00  0.00    +0.029 C 
BRANCH  23  24
ATOM     24  C   UNL     1      -4.757  20.754  70.139  0.00  0.00    +0.115 C 
BRANCH  24  26
ATOM     25  O   UNL     1      -4.227  19.828  72.184  0.00  0.00    -0.246 OA
ATOM     26  C   UNL     1      -4.555  20.764  71.623  0.00  0.00    +0.365 C 
ATOM     27  O   UNL     1      -4.449  21.991  72.246  0.00  0.00    -0.246 OA
ENDBRANCH  24  26
ENDBRANCH  23  24
ENDBRANCH  22  23
ENDBRANCH  16  22
ENDBRANCH  15  19
ENDBRANCH   1  15
TORSDOF 8
ENDMDL
MODEL 6
REMARK VINA RESULT:      -6.2      3.140      6.232
REMARK  Name = 
REMARK  8 active torsions:
REMARK  status: ('A' for Active; 'I' for Inactive)
REMARK    1  A    between atoms: C_2  and  C_4
REMARK    2  A    between atoms: C_4  and  C_5
REMARK    3  A    between atoms: C_5  and  C_6
REMARK    4  A    between atoms: C_6  and  N_7
REMARK    5  A    between atoms: C_10  and  O_11
REMARK    6  A    between atoms: O_11  and  C_12
REMARK    7  A    between atoms: C_12  and  C_13
REMARK    8  A    between atoms: C_12  and  C_20
REMARK                            x       y       z     vdW  Elec       q    Type
REMARK                         _______ _______ _______ _____ _____    ______ ____
ROOT
ATOM      1  C   UNL     1     -10.434  15.288  69.552  0.00  0.00    +0.177 C 
ENDROOT
BRANCH   1   2
ATOM      2  C   UNL     1     -10.803  16.570  68.562  0.00  0.00    +0.010 A 
ATOM      3  C   UNL     1     -10.373  16.327  67.259  0.00  0.00    -0.001 A 
ATOM      4  C   UNL     1     -10.325  17.442  66.431  0.00  0.00    +0.011 A 
ATOM      5  C   UNL     1      -9.839  18.628  66.968  0.00  0.00    +0.058 A 
ATOM      6 CL   UNL     1      -8.962  19.755  65.940  0.00  0.00    -0.082 Cl
ATOM      7  C   UNL     1      -9.762  18.728  68.350  0.00  0.00    +0.011 A 
ATOM      8  C   UNL     1     -10.175  17.672  69.145  0.00  0.00    -0.001 A 
ENDBRANCH   1   2
BRANCH   1   9
ATOM      9  C   UNL     1     -11.475  15.824  70.728  0.00  0.00    +0.090 A 
ATOM     10  N   UNL     1     -11.172  15.280  71.930  0.00  0.00    -0.245 NA
ATOM     11  C   UNL     1     -12.125  15.327  72.880  0.00  0.00    +0.099 A 
ATOM     12  C   UNL     1     -13.463  15.226  72.539  0.00  0.00    +0.021 A 
ATOM     13  C   UNL     1     -13.740  15.181  71.180  0.00  0.00    +0.003 A 
ATOM     14  C   UNL     1     -12.745  15.489  70.260  0.00  0.00    +0.018 A 
ENDBRANCH   1   9
BRANCH   1  15
ATOM     15  O   UNL     1     -11.557  14.408  68.927  0.00  0.00    -0.348 OA
BRANCH  15  19
ATOM     16  N   UNL     1     -10.109  11.262  66.991  0.00  0.00    -0.273 NA
ATOM     17  C   UNL     1      -9.687  12.635  67.014  0.00  0.00    +0.075 C 
ATOM     18  C   UNL     1      -9.600  13.225  68.392  0.00  0.00    +0.047 C 
ATOM     19  C   UNL     1     -10.937  13.166  69.072  0.00  0.00    +0.119 C 
ATOM     20  C   UNL     1     -11.811  12.090  68.485  0.00  0.00    +0.047 C 
ATOM     21  C   UNL     1     -10.985  10.902  68.075  0.00  0.00    +0.075 C 
BRANCH  16  22
ATOM     22  C   UNL     1     -10.733  11.074  65.681  0.00  0.00    +0.073 C 
BRANCH  22  23
ATOM     23  C   UNL     1     -10.090  12.154  64.813  0.00  0.00    +0.029 C 
BRANCH  23  24
ATOM     24  C   UNL     1     -10.744  11.988  63.443  0.00  0.00    +0.115 C 
BRANCH  24  26
ATOM     25  O   UNL     1     -13.039  12.182  63.346  0.00  0.00    -0.246 OA
ATOM     26  C   UNL     1     -12.050  12.712  63.539  0.00  0.00    +0.365 C 
ATOM     27  O   UNL     1     -12.060  13.933  64.184  0.00  0.00    -0.246 OA
ENDBRANCH  24  26
ENDBRANCH  23  24
ENDBRANCH  22  23
ENDBRANCH  16  22
ENDBRANCH  15  19
ENDBRANCH   1  15
TORSDOF 8
ENDMDL
MODEL 7
REMARK VINA RESULT:      -6.1      2.530      3.262
REMARK  Name = 
REMARK  8 active torsions:
REMARK  status: ('A' for Active; 'I' for Inactive)
REMARK    1  A    between atoms: C_2  and  C_4
REMARK    2  A    between atoms: C_4  and  C_5
REMARK    3  A    between atoms: C_5  and  C_6
REMARK    4  A    between atoms: C_6  and  N_7
REMARK    5  A    between atoms: C_10  and  O_11
REMARK    6  A    between atoms: O_11  and  C_12
REMARK    7  A    between atoms: C_12  and  C_13
REMARK    8  A    between atoms: C_12  and  C_20
REMARK                            x       y       z     vdW  Elec       q    Type
REMARK                         _______ _______ _______ _____ _____    ______ ____
ROOT
ATOM      1  C   UNL     1      -9.971  12.027  67.128  0.00  0.00    +0.177 C 
ENDROOT
BRANCH   1   2
ATOM      2  C   UNL     1     -11.101  11.258  68.072  0.00  0.00    +0.010 A 
ATOM      3  C   UNL     1     -11.233  11.898  69.303  0.00  0.00    -0.001 A 
ATOM      4  C   UNL     1     -11.890  11.167  70.286  0.00  0.00    +0.011 A 
ATOM      5  C   UNL     1     -11.599   9.813  70.389  0.00  0.00    +0.058 A 
ATOM      6 CL   UNL     1     -11.643   9.028  71.963  0.00  0.00    -0.082 Cl
ATOM      7  C   UNL     1     -10.960   9.205  69.317  0.00  0.00    +0.011 A 
ATOM      8  C   UNL     1     -10.645   9.944  68.189  0.00  0.00    -0.001 A 
ENDBRANCH   1   2
BRANCH   1   9
ATOM      9  C   UNL     1     -10.809  11.676  65.740  0.00  0.00    +0.090 A 
ATOM     10  N   UNL     1     -10.078  11.975  64.641  0.00  0.00    -0.245 NA
ATOM     11  C   UNL     1     -10.743  12.091  63.476  0.00  0.00    +0.099 A 
ATOM     12  C   UNL     1     -12.029  12.601  63.450  0.00  0.00    +0.021 A 
ATOM     13  C   UNL     1     -12.598  12.874  64.686  0.00  0.00    +0.003 A 
ATOM     14  C   UNL     1     -11.994  12.404  65.846  0.00  0.00    +0.018 A 
ENDBRANCH   1   9
BRANCH   1  15
ATOM     15  O   UNL     1     -10.707  13.392  67.256  0.00  0.00    -0.348 OA
BRANCH  15  19
ATOM     16  N   UNL     1      -9.423  17.124  67.669  0.00  0.00    -0.273 NA
ATOM     17  C   UNL     1      -9.991  16.208  68.620  0.00  0.00    +0.075 C 
ATOM     18  C   UNL     1      -9.396  14.829  68.571  0.00  0.00    +0.047 C 
ATOM     19  C   UNL     1      -9.588  14.225  67.211  0.00  0.00    +0.119 C 
ATOM     20  C   UNL     1      -9.782  15.281  66.156  0.00  0.00    +0.047 C 
ATOM     21  C   UNL     1      -8.951  16.496  66.464  0.00  0.00    +0.075 C 
BRANCH  16  22
ATOM     22  C   UNL     1     -10.474  18.109  67.412  0.00  0.00    +0.073 C 
BRANCH  22  23
ATOM     23  C   UNL     1      -9.827  19.086  66.433  0.00  0.00    +0.029 C 
BRANCH  23  24
ATOM     24  C   UNL     1      -9.212  20.168  67.316  0.00  0.00    +0.115 C 
BRANCH  24  26
ATOM     25  O   UNL     1      -7.404  19.714  65.957  0.00  0.00    -0.246 OA
ATOM     26  C   UNL     1      -7.785  20.275  66.873  0.00  0.00    +0.365 C 
ATOM     27  O   UNL     1      -7.031  21.311  67.385  0.00  0.00    -0.246 OA
ENDBRANCH  24  26
ENDBRANCH  23  24
ENDBRANCH  22  23
ENDBRANCH  16  22
ENDBRANCH  15  19
ENDBRANCH   1  15
TORSDOF 8
ENDMDL
MODEL 8
REMARK VINA RESULT:      -6.1      3.240      6.591
REMARK  Name = 
REMARK  8 active torsions:
REMARK  status: ('A' for Active; 'I' for Inactive)
REMARK    1  A    between atoms: C_2  and  C_4
REMARK    2  A    between atoms: C_4  and  C_5
REMARK    3  A    between atoms: C_5  and  C_6
REMARK    4  A    between atoms: C_6  and  N_7
REMARK    5  A    between atoms: C_10  and  O_11
REMARK    6  A    between atoms: O_11  and  C_12
REMARK    7  A    between atoms: C_12  and  C_13
REMARK    8  A    between atoms: C_12  and  C_20
REMARK                            x       y       z     vdW  Elec       q    Type
REMARK                         _______ _______ _______ _____ _____    ______ ____
ROOT
ATOM      1  C   UNL     1      -9.169  15.651  66.759  0.00  0.00    +0.177 C 
ENDROOT
BRANCH   1   2
ATOM      2  C   UNL     1      -9.865  15.065  65.369  0.00  0.00    +0.010 A 
ATOM      3  C   UNL     1     -11.232  15.338  65.349  0.00  0.00    -0.001 A 
ATOM      4  C   UNL     1     -11.968  14.618  64.416  0.00  0.00    +0.011 A 
ATOM      5  C   UNL     1     -11.665  13.273  64.248  0.00  0.00    +0.058 A 
ATOM      6 CL   UNL     1     -12.940  12.136  63.828  0.00  0.00    -0.082 Cl
ATOM      7  C   UNL     1     -10.451  12.818  64.745  0.00  0.00    +0.011 A 
ATOM      8  C   UNL     1      -9.584  13.698  65.370  0.00  0.00    -0.001 A 
ENDBRANCH   1   2
BRANCH   1   9
ATOM      9  C   UNL     1      -9.169  17.203  66.170  0.00  0.00    +0.090 A 
ATOM     10  N   UNL     1      -7.907  17.647  65.968  0.00  0.00    -0.245 NA
ATOM     11  C   UNL     1      -7.737  18.977  65.850  0.00  0.00    +0.099 A 
ATOM     12  C   UNL     1      -8.532  19.853  66.569  0.00  0.00    +0.021 A 
ATOM     13  C   UNL     1      -9.551  19.276  67.313  0.00  0.00    +0.003 A 
ATOM     14  C   UNL     1      -9.884  17.942  67.113  0.00  0.00    +0.018 A 
ENDBRANCH   1   9
BRANCH   1  15
ATOM     15  O   UNL     1     -10.557  15.880  67.426  0.00  0.00    -0.348 OA
BRANCH  15  19
ATOM     16  N   UNL     1     -12.109  14.338  70.736  0.00  0.00    -0.273 NA
ATOM     17  C   UNL     1     -12.108  13.861  69.381  0.00  0.00    +0.075 C 
ATOM     18  C   UNL     1     -10.765  13.925  68.711  0.00  0.00    +0.047 C 
ATOM     19  C   UNL     1     -10.263  15.339  68.679  0.00  0.00    +0.119 C 
ATOM     20  C   UNL     1     -10.898  16.178  69.756  0.00  0.00    +0.047 C 
ATOM     21  C   UNL     1     -11.131  15.360  70.997  0.00  0.00    +0.075 C 
BRANCH  16  22
ATOM     22  C   UNL     1     -13.477  14.796  70.980  0.00  0.00    +0.073 C 
BRANCH  22  23
ATOM     23  C   UNL     1     -13.709  14.485  72.457  0.00  0.00    +0.029 C 
BRANCH  23  24
ATOM     24  C   UNL     1     -13.746  15.851  73.138  0.00  0.00    +0.115 C 
BRANCH  24  26
ATOM     25  O   UNL     1     -12.130  14.822  74.422  0.00  0.00    -0.246 OA
ATOM     26  C   UNL     1     -12.728  15.773  74.234  0.00  0.00    +0.365 C 
ATOM     27  O   UNL     1     -12.294  16.959  74.790  0.00  0.00    -0.246 OA
ENDBRANCH  24  26
ENDBRANCH  23  24
ENDBRANCH  22  23
ENDBRANCH  16  22
ENDBRANCH  15  19
ENDBRANCH   1  15
TORSDOF 8
ENDMDL
MODEL 9
REMARK VINA RESULT:      -5.9      3.192      6.444
REMARK  Name = 
REMARK  8 active torsions:
REMARK  status: ('A' for Active; 'I' for Inactive)
REMARK    1  A    between atoms: C_2  and  C_4
REMARK    2  A    between atoms: C_4  and  C_5
REMARK    3  A    between atoms: C_5  and  C_6
REMARK    4  A    between atoms: C_6  and  N_7
REMARK    5  A    between atoms: C_10  and  O_11
REMARK    6  A    between atoms: O_11  and  C_12
REMARK    7  A    between atoms: C_12  and  C_13
REMARK    8  A    between atoms: C_12  and  C_20
REMARK                            x       y       z     vdW  Elec       q    Type
REMARK                         _______ _______ _______ _____ _____    ______ ____
ROOT
ATOM      1  C   UNL     1     -11.462  15.523  67.750  0.00  0.00    +0.177 C 
ENDROOT
BRANCH   1   2
ATOM      2  C   UNL     1     -11.194  15.017  69.309  0.00  0.00    +0.010 A 
ATOM      3  C   UNL     1     -12.151  14.079  69.694  0.00  0.00    -0.001 A 
ATOM      4  C   UNL     1     -12.229  13.837  71.060  0.00  0.00    +0.011 A 
ATOM      5  C   UNL     1     -12.137  14.926  71.918  0.00  0.00    +0.058 A 
ATOM      6 CL   UNL     1     -13.022  14.916  73.439  0.00  0.00    -0.082 Cl
ATOM      7  C   UNL     1     -11.633  16.113  71.404  0.00  0.00    +0.011 A 
ATOM      8  C   UNL     1     -11.231  16.179  70.081  0.00  0.00    -0.001 A 
ENDBRANCH   1   2
BRANCH   1   9
ATOM      9  C   UNL     1     -10.102  16.474  67.765  0.00  0.00    +0.090 A 
ATOM     10  N   UNL     1     -10.246  17.542  66.947  0.00  0.00    -0.245 NA
ATOM     11  C   UNL     1      -9.122  18.186  66.578  0.00  0.00    +0.099 A 
ATOM     12  C   UNL     1      -7.942  17.486  66.387  0.00  0.00    +0.021 A 
ATOM     13  C   UNL     1      -7.982  16.135  66.698  0.00  0.00    +0.003 A 
ATOM     14  C   UNL     1      -9.064  15.617  67.401  0.00  0.00    +0.018 A 
ENDBRANCH   1   9
BRANCH   1  15
ATOM     15  O   UNL     1     -10.651  14.332  67.162  0.00  0.00    -0.348 OA
BRANCH  15  19
ATOM     16  N   UNL     1     -11.353  11.894  64.111  0.00  0.00    -0.273 NA
ATOM     17  C   UNL     1     -10.920  11.627  65.455  0.00  0.00    +0.075 C 
ATOM     18  C   UNL     1     -11.717  12.345  66.507  0.00  0.00    +0.047 C 
ATOM     19  C   UNL     1     -11.632  13.830  66.306  0.00  0.00    +0.119 C 
ATOM     20  C   UNL     1     -11.292  14.178  64.882  0.00  0.00    +0.047 C 
ATOM     21  C   UNL     1     -11.927  13.201  63.930  0.00  0.00    +0.075 C 
BRANCH  16  22
ATOM     22  C   UNL     1     -10.168  11.684  63.278  0.00  0.00    +0.073 C 
BRANCH  22  23
ATOM     23  C   UNL     1      -9.595  10.362  63.786  0.00  0.00    +0.029 C 
BRANCH  23  24
ATOM     24  C   UNL     1      -8.425  10.064  62.852  0.00  0.00    +0.115 C 
BRANCH  24  26
ATOM     25  O   UNL     1      -9.351   9.159  60.943  0.00  0.00    -0.246 OA
ATOM     26  C   UNL     1      -8.899   8.952  61.968  0.00  0.00    +0.365 C 
ATOM     27  O   UNL     1      -8.480   7.672  62.269  0.00  0.00    -0.246 OA
ENDBRANCH  24  26
ENDBRANCH  23  24
ENDBRANCH  22  23
ENDBRANCH  16  22
ENDBRANCH  15  19
ENDBRANCH   1  15
TORSDOF 8
ENDMDL
