MODEL 1
REMARK VINA RESULT:      -7.5      0.000      0.000
REMARK  Name = 
REMARK  4 active torsions:
REMARK  status: ('A' for Active; 'I' for Inactive)
REMARK    1  A    between atoms: C_2  and  C_3
REMARK    2  A    between atoms: C_3  and  N_4
REMARK    3  A    between atoms: C_3  and  C_14
REMARK    4  A    between atoms: N_25  and  C_26
REMARK                            x       y       z     vdW  Elec       q    Type
REMARK                         _______ _______ _______ _____ _____    ______ ____
ROOT
ATOM      1  C   UNL     1      -9.915  16.025  69.116  0.00  0.00    +0.146 A 
ATOM      2  N   UNL     1      -8.569  16.213  69.117  0.00  0.00    -0.261 N 
ATOM      3  C   UNL     1      -8.103  17.485  69.016  0.00  0.00    +0.269 A 
ATOM      4  O   UNL     1      -6.856  17.704  69.084  0.00  0.00    -0.266 OA
ATOM      5  C   UNL     1      -8.887  18.513  68.499  0.00  0.00    +0.102 A 
ATOM      6  C   UNL     1     -10.136  18.160  68.068  0.00  0.00    +0.089 A 
ATOM      7  C   UNL     1     -10.755  18.813  67.007  0.00  0.00    +0.019 A 
ATOM      8  C   UNL     1     -10.122  19.856  66.377  0.00  0.00    +0.004 A 
ATOM      9  C   UNL     1      -9.011  20.415  66.988  0.00  0.00    +0.030 A 
ATOM     10  C   UNL     1      -8.331  19.646  67.918  0.00  0.00    +0.146 A 
ATOM     11  F   UNL     1      -7.161  20.068  68.442  0.00  0.00    -0.204 F 
ATOM     12  N   UNL     1     -10.594  16.954  68.437  0.00  0.00    -0.230 NA
ENDROOT
BRANCH   2  13
ATOM     13  C   UNL     1      -7.619  15.173  68.923  0.00  0.00    +0.068 A 
ATOM     14  C   UNL     1      -7.062  14.829  67.724  0.00  0.00    +0.018 A 
ATOM     15  C   UNL     1      -5.774  14.401  67.557  0.00  0.00    +0.001 A 
ATOM     16  C   UNL     1      -5.078  13.989  68.665  0.00  0.00    +0.000 A 
ATOM     17  C   UNL     1      -5.675  14.091  69.900  0.00  0.00    +0.001 A 
ATOM     18  C   UNL     1      -6.957  14.592  70.001  0.00  0.00    +0.018 A 
ENDBRANCH   2  13
BRANCH   1  19
ATOM     19  C   UNL     1     -10.266  14.473  68.724  0.00  0.00    +0.151 C 
BRANCH  19  20
ATOM     20  N   UNL     1     -11.724  14.537  69.368  0.00  0.00    -0.213 NA
ATOM     21  C   UNL     1     -11.870  14.045  70.665  0.00  0.00    +0.170 A 
ATOM     22  C   UNL     1     -12.085  14.929  71.712  0.00  0.00    +0.152 A 
ATOM     23  C   UNL     1     -12.810  14.497  72.816  0.00  0.00    +0.186 A 
ATOM     24  N   UNL     1     -12.819  15.499  73.725  0.00  0.00    -0.203 NA
ATOM     25  C   UNL     1     -12.051  16.486  73.205  0.00  0.00    +0.200 A 
ATOM     26  N   UNL     1     -13.715  13.495  72.681  0.00  0.00    -0.203 NA
ATOM     27  C   UNL     1     -13.421  12.590  71.720  0.00  0.00    +0.202 A 
ATOM     28  N   UNL     1     -12.004  16.273  71.868  0.00  0.00    -0.218 NA
ATOM     29  N   UNL     1     -12.425  12.819  70.829  0.00  0.00    -0.206 NA
ENDBRANCH  19  20
BRANCH  19  31
ATOM     30  C   UNL     1     -11.023  14.383  66.838  0.00  0.00    +0.002 C 
ATOM     31  C   UNL     1     -10.874  14.812  67.205  0.00  0.00    +0.029 C 
ENDBRANCH  19  31
ENDBRANCH   1  19
TORSDOF 4
ENDMDL
MODEL 2
REMARK VINA RESULT:      -7.5      2.620      4.666
REMARK  Name = 
REMARK  4 active torsions:
REMARK  status: ('A' for Active; 'I' for Inactive)
REMARK    1  A    between atoms: C_2  and  C_3
REMARK    2  A    between atoms: C_3  and  N_4
REMARK    3  A    between atoms: C_3  and  C_14
REMARK    4  A    between atoms: N_25  and  C_26
REMARK                            x       y       z     vdW  Elec       q    Type
REMARK                         _______ _______ _______ _____ _____    ______ ____
ROOT
ATOM      1  C   UNL     1     -10.777  14.713  69.003  0.00  0.00    +0.146 A 
ATOM      2  N   UNL     1     -10.496  14.430  67.704  0.00  0.00    -0.261 N 
ATOM      3  C   UNL     1      -9.520  15.148  67.092  0.00  0.00    +0.269 A 
ATOM      4  O   UNL     1      -9.183  14.864  65.902  0.00  0.00    -0.266 OA
ATOM      5  C   UNL     1      -9.113  16.390  67.572  0.00  0.00    +0.102 A 
ATOM      6  C   UNL     1      -9.778  16.857  68.672  0.00  0.00    +0.089 A 
ATOM      7  C   UNL     1      -9.984  18.218  68.879  0.00  0.00    +0.019 A 
ATOM      8  C   UNL     1      -9.496  19.132  67.979  0.00  0.00    +0.004 A 
ATOM      9  C   UNL     1      -8.573  18.701  67.040  0.00  0.00    +0.030 A 
ATOM     10  C   UNL     1      -8.532  17.347  66.749  0.00  0.00    +0.146 A 
ATOM     11  F   UNL     1      -7.764  16.877  65.744  0.00  0.00    -0.204 F 
ATOM     12  N   UNL     1     -10.537  15.982  69.348  0.00  0.00    -0.230 NA
ENDROOT
BRANCH   2  13
ATOM     13  C   UNL     1     -11.335  13.651  66.859  0.00  0.00    +0.068 A 
ATOM     14  C   UNL     1     -12.368  14.138  66.109  0.00  0.00    +0.018 A 
ATOM     15  C   UNL     1     -12.719  13.673  64.872  0.00  0.00    +0.001 A 
ATOM     16  C   UNL     1     -12.228  12.457  64.472  0.00  0.00    +0.000 A 
ATOM     17  C   UNL     1     -11.351  11.791  65.296  0.00  0.00    +0.001 A 
ATOM     18  C   UNL     1     -10.990  12.350  66.505  0.00  0.00    +0.018 A 
ENDBRANCH   2  13
BRANCH   1  19
ATOM     19  C   UNL     1     -12.265  14.149  69.393  0.00  0.00    +0.151 C 
BRANCH  19  20
ATOM     20  N   UNL     1     -11.698  13.102  70.454  0.00  0.00    -0.213 NA
ATOM     21  C   UNL     1     -12.158  11.788  70.361  0.00  0.00    +0.170 A 
ATOM     22  C   UNL     1     -11.302  10.794  69.907  0.00  0.00    +0.152 A 
ATOM     23  C   UNL     1     -11.485   9.493  70.362  0.00  0.00    +0.186 A 
ATOM     24  N   UNL     1     -10.591   8.702  69.727  0.00  0.00    -0.203 NA
ATOM     25  C   UNL     1      -9.933   9.502  68.853  0.00  0.00    +0.200 A 
ATOM     26  N   UNL     1     -12.077   9.273  71.562  0.00  0.00    -0.203 NA
ATOM     27  C   UNL     1     -12.984  10.207  71.928  0.00  0.00    +0.202 A 
ATOM     28  N   UNL     1     -10.091  10.771  69.301  0.00  0.00    -0.218 NA
ATOM     29  N   UNL     1     -13.099  11.372  71.244  0.00  0.00    -0.206 NA
ENDBRANCH  19  20
BRANCH  19  31
ATOM     30  C   UNL     1     -13.077  15.281  70.877  0.00  0.00    +0.002 C 
ATOM     31  C   UNL     1     -12.565  15.269  70.595  0.00  0.00    +0.029 C 
ENDBRANCH  19  31
ENDBRANCH   1  19
TORSDOF 4
ENDMDL
MODEL 3
REMARK VINA RESULT:      -7.3      2.891      5.330
REMARK  Name = 
REMARK  4 active torsions:
REMARK  status: ('A' for Active; 'I' for Inactive)
REMARK    1  A    between atoms: C_2  and  C_3
REMARK    2  A    between atoms: C_3  and  N_4
REMARK    3  A    between atoms: C_3  and  C_14
REMARK    4  A    between atoms: N_25  and  C_26
REMARK                            x       y       z     vdW  Elec       q    Type
REMARK                         _______ _______ _______ _____ _____    ______ ____
ROOT
ATOM      1  C   UNL     1      -8.755  15.994  67.079  0.00  0.00    +0.146 A 
ATOM      2  N   UNL     1      -9.849  16.666  67.526  0.00  0.00    -0.261 N 
ATOM      3  C   UNL     1      -9.901  18.007  67.319  0.00  0.00    +0.269 A 
ATOM      4  O   UNL     1     -10.938  18.654  67.661  0.00  0.00    -0.266 OA
ATOM      5  C   UNL     1      -8.754  18.756  67.073  0.00  0.00    +0.102 A 
ATOM      6  C   UNL     1      -7.572  18.068  67.088  0.00  0.00    +0.089 A 
ATOM      7  C   UNL     1      -6.385  18.664  67.504  0.00  0.00    +0.019 A 
ATOM      8  C   UNL     1      -6.375  19.980  67.894  0.00  0.00    +0.004 A 
ATOM      9  C   UNL     1      -7.481  20.761  67.597  0.00  0.00    +0.030 A 
ATOM     10  C   UNL     1      -8.682  20.114  67.359  0.00  0.00    +0.146 A 
ATOM     11  F   UNL     1      -9.827  20.812  67.210  0.00  0.00    -0.204 F 
ATOM     12  N   UNL     1      -7.640  16.729  67.047  0.00  0.00    -0.230 NA
ENDROOT
BRANCH   2  13
ATOM     13  C   UNL     1     -10.795  16.127  68.442  0.00  0.00    +0.068 A 
ATOM     14  C   UNL     1     -11.736  15.185  68.139  0.00  0.00    +0.018 A 
ATOM     15  C   UNL     1     -12.150  14.197  68.988  0.00  0.00    +0.001 A 
ATOM     16  C   UNL     1     -11.854  14.319  70.321  0.00  0.00    +0.000 A 
ATOM     17  C   UNL     1     -11.094  15.388  70.737  0.00  0.00    +0.001 A 
ATOM     18  C   UNL     1     -10.655  16.315  69.814  0.00  0.00    +0.018 A 
ENDBRANCH   2  13
BRANCH   1  19
ATOM     19  C   UNL     1      -8.624  14.554  67.850  0.00  0.00    +0.151 C 
BRANCH  19  20
ATOM     20  N   UNL     1      -8.697  13.711  66.498  0.00  0.00    -0.213 NA
ATOM     21  C   UNL     1      -9.796  12.868  66.331  0.00  0.00    +0.170 A 
ATOM     22  C   UNL     1     -10.777  13.198  65.406  0.00  0.00    +0.152 A 
ATOM     23  C   UNL     1     -11.492  12.175  64.794  0.00  0.00    +0.186 A 
ATOM     24  N   UNL     1     -12.431  12.741  64.003  0.00  0.00    -0.203 NA
ATOM     25  C   UNL     1     -12.328  14.078  64.193  0.00  0.00    +0.200 A 
ATOM     26  N   UNL     1     -10.937  10.944  64.669  0.00  0.00    -0.203 NA
ATOM     27  C   UNL     1     -10.063  10.611  65.645  0.00  0.00    +0.202 A 
ATOM     28  N   UNL     1     -11.085  14.302  64.684  0.00  0.00    -0.218 NA
ATOM     29  N   UNL     1      -9.623  11.538  66.530  0.00  0.00    -0.206 NA
ENDBRANCH  19  20
BRANCH  19  31
ATOM     30  C   UNL     1      -6.665  14.050  68.067  0.00  0.00    +0.002 C 
ATOM     31  C   UNL     1      -6.955  14.504  67.842  0.00  0.00    +0.029 C 
ENDBRANCH  19  31
ENDBRANCH   1  19
TORSDOF 4
ENDMDL
MODEL 4
REMARK VINA RESULT:      -7.2      3.215      6.798
REMARK  Name = 
REMARK  4 active torsions:
REMARK  status: ('A' for Active; 'I' for Inactive)
REMARK    1  A    between atoms: C_2  and  C_3
REMARK    2  A    between atoms: C_3  and  N_4
REMARK    3  A    between atoms: C_3  and  C_14
REMARK    4  A    between atoms: N_25  and  C_26
REMARK                            x       y       z     vdW  Elec       q    Type
REMARK                         _______ _______ _______ _____ _____    ______ ____
ROOT
ATOM      1  C   UNL     1      -9.737  15.605  68.290  0.00  0.00    +0.146 A 
ATOM      2  N   UNL     1     -10.625  14.849  68.988  0.00  0.00    -0.261 N 
ATOM      3  C   UNL     1     -11.008  13.660  68.454  0.00  0.00    +0.269 A 
ATOM      4  O   UNL     1     -11.780  12.897  69.110  0.00  0.00    -0.266 OA
ATOM      5  C   UNL     1     -10.877  13.392  67.094  0.00  0.00    +0.102 A 
ATOM      6  C   UNL     1     -10.376  14.406  66.326  0.00  0.00    +0.089 A 
ATOM      7  C   UNL     1     -10.764  14.580  65.000  0.00  0.00    +0.019 A 
ATOM      8  C   UNL     1     -11.654  13.708  64.424  0.00  0.00    +0.004 A 
ATOM      9  C   UNL     1     -11.928  12.519  65.082  0.00  0.00    +0.030 A 
ATOM     10  C   UNL     1     -11.681  12.463  66.443  0.00  0.00    +0.146 A 
ATOM     11  F   UNL     1     -12.059  11.392  67.172  0.00  0.00    -0.204 F 
ATOM     12  N   UNL     1      -9.798  15.433  66.966  0.00  0.00    -0.230 NA
ENDROOT
BRANCH   2  13
ATOM     13  C   UNL     1     -11.400  15.332  70.078  0.00  0.00    +0.068 A 
ATOM     14  C   UNL     1     -12.745  15.565  70.047  0.00  0.00    +0.018 A 
ATOM     15  C   UNL     1     -13.597  15.354  71.096  0.00  0.00    +0.001 A 
ATOM     16  C   UNL     1     -13.059  15.199  72.348  0.00  0.00    +0.000 A 
ATOM     17  C   UNL     1     -11.691  15.190  72.486  0.00  0.00    +0.001 A 
ATOM     18  C   UNL     1     -10.889  15.345  71.374  0.00  0.00    +0.018 A 
ENDBRANCH   2  13
BRANCH   1  19
ATOM     19  C   UNL     1      -9.801  17.161  68.799  0.00  0.00    +0.151 C 
BRANCH  19  20
ATOM     20  N   UNL     1      -8.365  17.518  68.203  0.00  0.00    -0.213 NA
ATOM     21  C   UNL     1      -7.508  18.266  69.010  0.00  0.00    +0.170 A 
ATOM     22  C   UNL     1      -6.395  17.658  69.574  0.00  0.00    +0.152 A 
ATOM     23  C   UNL     1      -5.267  18.430  69.830  0.00  0.00    +0.186 A 
ATOM     24  N   UNL     1      -4.355  17.641  70.443  0.00  0.00    -0.203 NA
ATOM     25  C   UNL     1      -4.953  16.438  70.616  0.00  0.00    +0.200 A 
ATOM     26  N   UNL     1      -5.035  19.550  69.102  0.00  0.00    -0.203 NA
ATOM     27  C   UNL     1      -6.146  20.178  68.654  0.00  0.00    +0.202 A 
ATOM     28  N   UNL     1      -5.969  16.380  69.721  0.00  0.00    -0.218 NA
ATOM     29  N   UNL     1      -7.363  19.588  68.744  0.00  0.00    -0.206 NA
ENDBRANCH  19  20
BRANCH  19  31
ATOM     30  C   UNL     1     -10.631  18.332  67.357  0.00  0.00    +0.002 C 
ATOM     31  C   UNL     1     -10.563  17.758  67.438  0.00  0.00    +0.029 C 
ENDBRANCH  19  31
ENDBRANCH   1  19
TORSDOF 4
ENDMDL
MODEL 5
REMARK VINA RESULT:      -7.1      4.105      6.388
REMARK  Name = 
REMARK  4 active torsions:
REMARK  status: ('A' for Active; 'I' for Inactive)
REMARK    1  A    between atoms: C_2  and  C_3
REMARK    2  A    between atoms: C_3  and  N_4
REMARK    3  A    between atoms: C_3  and  C_14
REMARK    4  A    between atoms: N_25  and  C_26
REMARK                            x       y       z     vdW  Elec       q    Type
REMARK                         _______ _______ _______ _____ _____    ______ ____
ROOT
ATOM      1  C   UNL     1     -11.141  11.539  68.045  0.00  0.00    +0.146 A 
ATOM      2  N   UNL     1     -11.429  12.840  67.778  0.00  0.00    -0.261 N 
ATOM      3  C   UNL     1     -11.914  13.146  66.546  0.00  0.00    +0.269 A 
ATOM      4  O   UNL     1     -12.260  14.339  66.286  0.00  0.00    -0.266 OA
ATOM      5  C   UNL     1     -11.729  12.301  65.455  0.00  0.00    +0.102 A 
ATOM      6  C   UNL     1     -11.002  11.167  65.690  0.00  0.00    +0.089 A 
ATOM      7  C   UNL     1     -10.201  10.596  64.705  0.00  0.00    +0.019 A 
ATOM      8  C   UNL     1     -10.143  11.157  63.453  0.00  0.00    +0.004 A 
ATOM      9  C   UNL     1     -11.093  12.108  63.116  0.00  0.00    +0.030 A 
ATOM     10  C   UNL     1     -11.738  12.770  64.148  0.00  0.00    +0.146 A 
ATOM     11  F   UNL     1     -12.564  13.807  63.895  0.00  0.00    -0.204 F 
ATOM     12  N   UNL     1     -10.786  10.829  66.969  0.00  0.00    -0.230 NA
ENDROOT
BRANCH   2  13
ATOM     13  C   UNL     1     -10.993  13.933  68.577  0.00  0.00    +0.068 A 
ATOM     14  C   UNL     1      -9.873  14.680  68.345  0.00  0.00    +0.018 A 
ATOM     15  C   UNL     1      -9.770  16.023  68.581  0.00  0.00    +0.001 A 
ATOM     16  C   UNL     1     -10.713  16.616  69.380  0.00  0.00    +0.000 A 
ATOM     17  C   UNL     1     -11.759  15.856  69.849  0.00  0.00    +0.001 A 
ATOM     18  C   UNL     1     -11.835  14.518  69.518  0.00  0.00    +0.018 A 
ENDBRANCH   2  13
BRANCH   1  19
ATOM     19  C   UNL     1     -10.118  11.439  69.320  0.00  0.00    +0.151 C 
BRANCH  19  20
ATOM     20  N   UNL     1     -10.490   9.919  69.626  0.00  0.00    -0.213 NA
ATOM     21  C   UNL     1     -10.616   9.550  70.966  0.00  0.00    +0.170 A 
ATOM     22  C   UNL     1     -11.873   9.275  71.485  0.00  0.00    +0.152 A 
ATOM     23  C   UNL     1     -11.982   8.368  72.532  0.00  0.00    +0.186 A 
ATOM     24  N   UNL     1     -13.280   8.326  72.912  0.00  0.00    -0.203 NA
ATOM     25  C   UNL     1     -13.923   9.247  72.155  0.00  0.00    +0.200 A 
ATOM     26  N   UNL     1     -11.043   7.402  72.689  0.00  0.00    -0.203 NA
ATOM     27  C   UNL     1      -9.804   7.739  72.268  0.00  0.00    +0.202 A 
ATOM     28  N   UNL     1     -13.148   9.458  71.064  0.00  0.00    -0.218 NA
ATOM     29  N   UNL     1      -9.597   8.865  71.543  0.00  0.00    -0.206 NA
ENDBRANCH  19  20
BRANCH  19  31
ATOM     30  C   UNL     1      -8.241  11.134  68.596  0.00  0.00    +0.002 C 
ATOM     31  C   UNL     1      -8.780  10.978  68.433  0.00  0.00    +0.029 C 
ENDBRANCH  19  31
ENDBRANCH   1  19
TORSDOF 4
ENDMDL
MODEL 6
REMARK VINA RESULT:      -7.1      4.340      6.652
REMARK  Name = 
REMARK  4 active torsions:
REMARK  status: ('A' for Active; 'I' for Inactive)
REMARK    1  A    between atoms: C_2  and  C_3
REMARK    2  A    between atoms: C_3  and  N_4
REMARK    3  A    between atoms: C_3  and  C_14
REMARK    4  A    between atoms: N_25  and  C_26
REMARK                            x       y       z     vdW  Elec       q    Type
REMARK                         _______ _______ _______ _____ _____    ______ ____
ROOT
ATOM      1  C   UNL     1     -11.140  11.309  67.620  0.00  0.00    +0.146 A 
ATOM      2  N   UNL     1     -11.504  12.527  67.138  0.00  0.00    -0.261 N 
ATOM      3  C   UNL     1     -11.799  12.627  65.816  0.00  0.00    +0.269 A 
ATOM      4  O   UNL     1     -12.210  13.732  65.347  0.00  0.00    -0.266 OA
ATOM      5  C   UNL     1     -11.350  11.688  64.892  0.00  0.00    +0.102 A 
ATOM      6  C   UNL     1     -10.566  10.683  65.388  0.00  0.00    +0.089 A 
ATOM      7  C   UNL     1      -9.558  10.099  64.627  0.00  0.00    +0.019 A 
ATOM      8  C   UNL     1      -9.342  10.513  63.335  0.00  0.00    +0.004 A 
ATOM      9  C   UNL     1     -10.309  11.299  62.729  0.00  0.00    +0.030 A 
ATOM     10  C   UNL     1     -11.182  11.996  63.548  0.00  0.00    +0.146 A 
ATOM     11  F   UNL     1     -12.050  12.892  63.031  0.00  0.00    -0.204 F 
ATOM     12  N   UNL     1     -10.540  10.525  66.719  0.00  0.00    -0.230 NA
ENDROOT
BRANCH   2  13
ATOM     13  C   UNL     1     -11.318  13.749  67.841  0.00  0.00    +0.068 A 
ATOM     14  C   UNL     1     -12.068  14.169  68.904  0.00  0.00    +0.018 A 
ATOM     15  C   UNL     1     -11.582  14.873  69.970  0.00  0.00    +0.001 A 
ATOM     16  C   UNL     1     -10.354  15.473  69.847  0.00  0.00    +0.000 A 
ATOM     17  C   UNL     1      -9.635  15.281  68.691  0.00  0.00    +0.001 A 
ATOM     18  C   UNL     1     -10.160  14.504  67.678  0.00  0.00    +0.018 A 
ENDBRANCH   2  13
BRANCH   1  19
ATOM     19  C   UNL     1     -10.344  11.481  69.042  0.00  0.00    +0.151 C 
BRANCH  19  20
ATOM     20  N   UNL     1     -10.571   9.960  69.465  0.00  0.00    -0.213 NA
ATOM     21  C   UNL     1     -10.650   9.683  70.831  0.00  0.00    +0.170 A 
ATOM     22  C   UNL     1     -11.871   9.334  71.389  0.00  0.00    +0.152 A 
ATOM     23  C   UNL     1     -11.886   8.502  72.502  0.00  0.00    +0.186 A 
ATOM     24  N   UNL     1     -13.171   8.370  72.905  0.00  0.00    -0.203 NA
ATOM     25  C   UNL     1     -13.904   9.168  72.092  0.00  0.00    +0.200 A 
ATOM     26  N   UNL     1     -10.860   7.641  72.716  0.00  0.00    -0.203 NA
ATOM     27  C   UNL     1      -9.661   8.058  72.251  0.00  0.00    +0.202 A 
ATOM     28  N   UNL     1     -13.162   9.367  70.976  0.00  0.00    -0.218 NA
ATOM     29  N   UNL     1      -9.567   9.141  71.441  0.00  0.00    -0.206 NA
ENDBRANCH  19  20
BRANCH  19  31
ATOM     30  C   UNL     1      -8.352  11.400  68.638  0.00  0.00    +0.002 C 
ATOM     31  C   UNL     1      -8.828  11.130  68.435  0.00  0.00    +0.029 C 
ENDBRANCH  19  31
ENDBRANCH   1  19
TORSDOF 4
ENDMDL
MODEL 7
REMARK VINA RESULT:      -7.0      4.163      6.691
REMARK  Name = 
REMARK  4 active torsions:
REMARK  status: ('A' for Active; 'I' for Inactive)
REMARK    1  A    between atoms: C_2  and  C_3
REMARK    2  A    between atoms: C_3  and  N_4
REMARK    3  A    between atoms: C_3  and  C_14
REMARK    4  A    between atoms: N_25  and  C_26
REMARK                            x       y       z     vdW  Elec       q    Type
REMARK                         _______ _______ _______ _____ _____    ______ ____
ROOT
ATOM      1  C   UNL     1     -10.378  12.992  67.928  0.00  0.00    +0.146 A 
ATOM      2  N   UNL     1     -10.863  11.921  68.610  0.00  0.00    -0.261 N 
ATOM      3  C   UNL     1     -11.867  12.133  69.499  0.00  0.00    +0.269 A 
ATOM      4  O   UNL     1     -12.391  11.147  70.101  0.00  0.00    -0.266 OA
ATOM      5  C   UNL     1     -12.115  13.393  70.038  0.00  0.00    +0.102 A 
ATOM      6  C   UNL     1     -11.267  14.392  69.646  0.00  0.00    +0.089 A 
ATOM      7  C   UNL     1     -10.943  15.448  70.492  0.00  0.00    +0.019 A 
ATOM      8  C   UNL     1     -11.493  15.519  71.748  0.00  0.00    +0.004 A 
ATOM      9  C   UNL     1     -12.570  14.697  72.039  0.00  0.00    +0.030 A 
ATOM     10  C   UNL     1     -12.743  13.561  71.266  0.00  0.00    +0.146 A 
ATOM     11  F   UNL     1     -13.679  12.642  71.584  0.00  0.00    -0.204 F 
ATOM     12  N   UNL     1     -10.479  14.149  68.589  0.00  0.00    -0.230 NA
ENDROOT
BRANCH   2  13
ATOM     13  C   UNL     1     -10.210  10.659  68.679  0.00  0.00    +0.068 A 
ATOM     14  C   UNL     1      -9.437  10.229  69.720  0.00  0.00    +0.018 A 
ATOM     15  C   UNL     1      -9.376   8.937  70.163  0.00  0.00    +0.001 A 
ATOM     16  C   UNL     1      -9.862   7.947  69.347  0.00  0.00    +0.000 A 
ATOM     17  C   UNL     1     -10.454   8.299  68.157  0.00  0.00    +0.001 A 
ATOM     18  C   UNL     1     -10.539   9.630  67.802  0.00  0.00    +0.018 A 
ENDBRANCH   2  13
BRANCH   1  19
ATOM     19  C   UNL     1      -8.890  12.653  67.330  0.00  0.00    +0.151 C 
BRANCH  19  20
ATOM     20  N   UNL     1      -9.355  12.817  65.813  0.00  0.00    -0.213 NA
ATOM     21  C   UNL     1     -10.680  13.193  65.590  0.00  0.00    +0.170 A 
ATOM     22  C   UNL     1     -10.960  14.470  65.125  0.00  0.00    +0.152 A 
ATOM     23  C   UNL     1     -12.094  14.667  64.346  0.00  0.00    +0.186 A 
ATOM     24  N   UNL     1     -12.193  15.990  64.083  0.00  0.00    -0.203 NA
ATOM     25  C   UNL     1     -11.177  16.584  64.753  0.00  0.00    +0.200 A 
ATOM     26  N   UNL     1     -12.602  13.639  63.621  0.00  0.00    -0.203 NA
ATOM     27  C   UNL     1     -12.403  12.413  64.155  0.00  0.00    +0.202 A 
ATOM     28  N   UNL     1     -10.255  15.619  64.988  0.00  0.00    -0.218 NA
ATOM     29  N   UNL     1     -11.563  12.239  65.205  0.00  0.00    -0.206 NA
ENDBRANCH  19  20
BRANCH  19  31
ATOM     30  C   UNL     1      -7.765  14.346  67.261  0.00  0.00    +0.002 C 
ATOM     31  C   UNL     1      -8.325  14.224  67.372  0.00  0.00    +0.029 C 
ENDBRANCH  19  31
ENDBRANCH   1  19
TORSDOF 4
ENDMDL
MODEL 8
REMARK VINA RESULT:      -6.9      3.302      5.646
REMARK  Name = 
REMARK  4 active torsions:
REMARK  status: ('A' for Active; 'I' for Inactive)
REMARK    1  A    between atoms: C_2  and  C_3
REMARK    2  A    between atoms: C_3  and  N_4
REMARK    3  A    between atoms: C_3  and  C_14
REMARK    4  A    between atoms: N_25  and  C_26
REMARK                            x       y       z     vdW  Elec       q    Type
REMARK                         _______ _______ _______ _____ _____    ______ ____
ROOT
ATOM      1  C   UNL     1      -7.226  16.012  66.900  0.00  0.00    +0.146 A 
ATOM      2  N   UNL     1      -7.633  17.238  66.479  0.00  0.00    -0.261 N 
ATOM      3  C   UNL     1      -6.748  17.999  65.782  0.00  0.00    +0.269 A 
ATOM      4  O   UNL     1      -7.117  19.119  65.314  0.00  0.00    -0.266 OA
ATOM      5  C   UNL     1      -5.376  17.775  65.852  0.00  0.00    +0.102 A 
ATOM      6  C   UNL     1      -4.972  16.771  66.688  0.00  0.00    +0.089 A 
ATOM      7  C   UNL     1      -3.754  16.826  67.359  0.00  0.00    +0.019 A 
ATOM      8  C   UNL     1      -2.913  17.896  67.175  0.00  0.00    +0.004 A 
ATOM      9  C   UNL     1      -3.166  18.754  66.117  0.00  0.00    +0.030 A 
ATOM     10  C   UNL     1      -4.450  18.780  65.599  0.00  0.00    +0.146 A 
ATOM     11  F   UNL     1      -4.804  19.693  64.670  0.00  0.00    -0.204 F 
ATOM     12  N   UNL     1      -5.912  15.923  67.129  0.00  0.00    -0.230 NA
ENDROOT
BRANCH   2  13
ATOM     13  C   UNL     1      -8.798  17.899  66.957  0.00  0.00    +0.068 A 
ATOM     14  C   UNL     1      -8.881  18.603  68.125  0.00  0.00    +0.018 A 
ATOM     15  C   UNL     1      -9.627  19.735  68.300  0.00  0.00    +0.001 A 
ATOM     16  C   UNL     1     -10.594  20.026  67.372  0.00  0.00    +0.000 A 
ATOM     17  C   UNL     1     -10.723  19.213  66.271  0.00  0.00    +0.001 A 
ATOM     18  C   UNL     1      -9.892  18.121  66.125  0.00  0.00    +0.018 A 
ENDBRANCH   2  13
BRANCH   1  19
ATOM     19  C   UNL     1      -8.187  15.487  68.119  0.00  0.00    +0.151 C 
BRANCH  19  20
ATOM     20  N   UNL     1      -8.692  14.213  67.303  0.00  0.00    -0.213 NA
ATOM     21  C   UNL     1     -10.050  13.902  67.384  0.00  0.00    +0.170 A 
ATOM     22  C   UNL     1     -10.867  14.111  66.282  0.00  0.00    +0.152 A 
ATOM     23  C   UNL     1     -11.980  13.297  66.109  0.00  0.00    +0.186 A 
ATOM     24  N   UNL     1     -12.653  13.739  65.022  0.00  0.00    -0.203 NA
ATOM     25  C   UNL     1     -11.994  14.843  64.595  0.00  0.00    +0.200 A 
ATOM     26  N   UNL     1     -11.993  12.048  66.638  0.00  0.00    -0.203 NA
ATOM     27  C   UNL     1     -11.271  11.903  67.771  0.00  0.00    +0.202 A 
ATOM     28  N   UNL     1     -10.739  14.762  65.101  0.00  0.00    -0.218 NA
ATOM     29  N   UNL     1     -10.429  12.879  68.190  0.00  0.00    -0.206 NA
ENDBRANCH  19  20
BRANCH  19  31
ATOM     30  C   UNL     1      -7.048  14.466  69.460  0.00  0.00    +0.002 C 
ATOM     31  C   UNL     1      -7.013  14.583  68.889  0.00  0.00    +0.029 C 
ENDBRANCH  19  31
ENDBRANCH   1  19
TORSDOF 4
ENDMDL
MODEL 9
REMARK VINA RESULT:      -6.8      3.751      7.061
REMARK  Name = 
REMARK  4 active torsions:
REMARK  status: ('A' for Active; 'I' for Inactive)
REMARK    1  A    between atoms: C_2  and  C_3
REMARK    2  A    between atoms: C_3  and  N_4
REMARK    3  A    between atoms: C_3  and  C_14
REMARK    4  A    between atoms: N_25  and  C_26
REMARK                            x       y       z     vdW  Elec       q    Type
REMARK                         _______ _______ _______ _____ _____    ______ ____
ROOT
ATOM      1  C   UNL     1      -9.855  13.993  66.101  0.00  0.00    +0.146 A 
ATOM      2  N   UNL     1      -9.517  13.612  67.362  0.00  0.00    -0.261 N 
ATOM      3  C   UNL     1      -8.759  12.494  67.507  0.00  0.00    +0.269 A 
ATOM      4  O   UNL     1      -8.366  12.149  68.663  0.00  0.00    -0.266 OA
ATOM      5  C   UNL     1      -8.680  11.527  66.509  0.00  0.00    +0.102 A 
ATOM      6  C   UNL     1      -9.438  11.751  65.393  0.00  0.00    +0.089 A 
ATOM      7  C   UNL     1      -9.984  10.703  64.657  0.00  0.00    +0.019 A 
ATOM      8  C   UNL     1      -9.749   9.403  65.032  0.00  0.00    +0.004 A 
ATOM      9  C   UNL     1      -8.750   9.158  65.961  0.00  0.00    +0.030 A 
ATOM     10  C   UNL     1      -8.367  10.202  66.787  0.00  0.00    +0.146 A 
ATOM     11  F   UNL     1      -7.509   9.997  67.809  0.00  0.00    -0.204 F 
ATOM     12  N   UNL     1      -9.946  12.982  65.232  0.00  0.00    -0.230 NA
ENDROOT
BRANCH   2  13
ATOM     13  C   UNL     1     -10.133  14.118  68.539  0.00  0.00    +0.068 A 
ATOM     14  C   UNL     1      -9.795  15.284  69.165  0.00  0.00    +0.018 A 
ATOM     15  C   UNL     1     -10.681  16.120  69.787  0.00  0.00    +0.001 A 
ATOM     16  C   UNL     1     -11.930  15.637  70.084  0.00  0.00    +0.000 A 
ATOM     17  C   UNL     1     -12.262  14.364  69.683  0.00  0.00    +0.001 A 
ATOM     18  C   UNL     1     -11.339  13.598  69.002  0.00  0.00    +0.018 A 
ENDBRANCH   2  13
BRANCH   1  19
ATOM     19  C   UNL     1     -11.148  14.999  66.145  0.00  0.00    +0.151 C 
BRANCH  19  20
ATOM     20  N   UNL     1     -10.369  16.192  65.430  0.00  0.00    -0.213 NA
ATOM     21  C   UNL     1      -9.924  17.238  66.239  0.00  0.00    +0.170 A 
ATOM     22  C   UNL     1      -8.567  17.379  66.492  0.00  0.00    +0.152 A 
ATOM     23  C   UNL     1      -8.058  18.649  66.734  0.00  0.00    +0.186 A 
ATOM     24  N   UNL     1      -6.744  18.521  67.027  0.00  0.00    -0.203 NA
ATOM     25  C   UNL     1      -6.487  17.191  67.033  0.00  0.00    +0.200 A 
ATOM     26  N   UNL     1      -8.690  19.738  66.229  0.00  0.00    -0.203 NA
ATOM     27  C   UNL     1     -10.029  19.605  66.092  0.00  0.00    +0.202 A 
ATOM     28  N   UNL     1      -7.470  16.606  66.305  0.00  0.00    -0.218 NA
ATOM     29  N   UNL     1     -10.627  18.398  66.236  0.00  0.00    -0.206 NA
ENDBRANCH  19  20
BRANCH  19  31
ATOM     30  C   UNL     1     -12.375  14.559  64.583  0.00  0.00    +0.002 C 
ATOM     31  C   UNL     1     -11.805  14.499  64.693  0.00  0.00    +0.029 C 
ENDBRANCH  19  31
ENDBRANCH   1  19
TORSDOF 4
ENDMDL
