MODEL 1
REMARK VINA RESULT:      -7.5      0.000      0.000
REMARK  Name = 
REMARK  6 active torsions:
REMARK  status: ('A' for Active; 'I' for Inactive)
REMARK    1  A    between atoms: O_2  and  C_3
REMARK    2  A    between atoms: C_5  and  N_6
REMARK    3  A    between atoms: C_9  and  N_10
REMARK    4  A    between atoms: C_21  and  N_22
REMARK    5  A    between atoms: N_29  and  C_30
REMARK    6  A    between atoms: C_35  and  P_36
REMARK                            x       y       z     vdW  Elec       q    Type
REMARK                         _______ _______ _______ _____ _____    ______ ____
ROOT
ATOM      1  C   UNL     1      -9.479  14.312  67.957  0.00  0.00    +0.155 A 
ATOM      2  C   UNL     1      -9.492  14.600  66.601  0.00  0.00    +0.107 A 
ATOM      3  C   UNL     1     -10.097  13.745  65.689  0.00  0.00    +0.021 A 
ATOM      4  C   UNL     1     -10.782  12.659  66.178  0.00  0.00    +0.016 A 
ATOM      5  C   UNL     1     -10.961  12.436  67.538  0.00  0.00    +0.051 A 
ATOM      6  C   UNL     1     -10.273  13.261  68.399  0.00  0.00    +0.053 A 
ENDROOT
BRANCH   2   7
ATOM      7  N   UNL     1      -8.529  15.551  66.139  0.00  0.00    -0.175 NA
ATOM      8  C   UNL     1      -8.919  16.902  65.880  0.00  0.00    +0.242 A 
ATOM      9  N   UNL     1      -7.995  17.871  65.827  0.00  0.00    -0.194 NA
ATOM     10  C   UNL     1      -8.238  19.148  66.182  0.00  0.00    +0.167 A 
ATOM     11  N   UNL     1      -7.186  20.047  66.546  0.00  0.00    -0.193 NA
ATOM     12  C   UNL     1      -9.535  19.488  66.492  0.00  0.00    +0.110 A 
ATOM     13 CL   UNL     1      -9.882  20.821  67.588  0.00  0.00    -0.078 Cl
ATOM     14  C   UNL     1     -10.513  18.573  66.130  0.00  0.00    +0.116 A 
ATOM     15  N   UNL     1     -10.208  17.267  65.979  0.00  0.00    -0.210 NA
BRANCH  11  16
ATOM     16  C   UNL     1      -6.200  19.540  67.451  0.00  0.00    +0.075 A 
ATOM     17  C   UNL     1      -4.983  19.138  66.916  0.00  0.00    +0.045 A 
ATOM     18  C   UNL     1      -4.039  18.556  67.752  0.00  0.00    +0.004 A 
ATOM     19  C   UNL     1      -4.329  18.391  69.102  0.00  0.00    +0.000 A 
ATOM     20  C   UNL     1      -5.623  18.561  69.572  0.00  0.00    +0.001 A 
ATOM     21  C   UNL     1      -6.572  18.958  68.653  0.00  0.00    +0.017 A 
BRANCH  17  22
ATOM     22  P   UNL     1      -4.431  19.833  65.356  0.00  0.00    +0.137 P 
ATOM     23  O   UNL     1      -4.866  21.287  65.309  0.00  0.00    -0.315 OA
ATOM     24  C   UNL     1      -5.239  18.933  63.994  0.00  0.00    +0.072 C 
ATOM     25  C   UNL     1      -2.630  19.721  65.237  0.00  0.00    +0.072 C 
ENDBRANCH  17  22
ENDBRANCH  11  16
ENDBRANCH   2   7
BRANCH   5  26
ATOM     26  N   UNL     1     -11.414  11.163  68.008  0.00  0.00    -0.307 N 
ATOM     27  C   UNL     1     -10.925   9.909  67.492  0.00  0.00    +0.092 C 
ATOM     28  C   UNL     1     -10.209   9.073  68.500  0.00  0.00    +0.037 C 
ATOM     29  C   UNL     1     -10.670   9.203  69.899  0.00  0.00    +0.061 C 
ATOM     30  C   UNL     1     -11.317  10.483  70.276  0.00  0.00    +0.037 C 
ATOM     31  C   UNL     1     -12.212  11.073  69.228  0.00  0.00    +0.092 C 
BRANCH  29  32
ATOM     32  N   UNL     1     -11.241   8.027  70.480  0.00  0.00    -0.272 NA
ATOM     33  C   UNL     1     -11.878   8.356  71.728  0.00  0.00    +0.090 C 
ATOM     34  C   UNL     1     -11.314   7.586  72.897  0.00  0.00    +0.090 C 
ATOM     35  N   UNL     1      -9.869   7.680  72.852  0.00  0.00    -0.269 NA
ATOM     36  C   UNL     1      -9.323   7.087  74.067  0.00  0.00    +0.090 C 
ATOM     37  C   UNL     1      -9.337   7.037  71.673  0.00  0.00    +0.090 C 
ATOM     38  C   UNL     1     -10.346   6.907  70.563  0.00  0.00    +0.090 C 
ENDBRANCH  29  32
ENDBRANCH   5  26
BRANCH   1  40
ATOM     39  C   UNL     1      -7.337  13.876  68.937  0.00  0.00    +0.253 C 
ATOM     40  O   UNL     1      -8.426  14.773  68.752  0.00  0.00    -0.470 OA
ENDBRANCH   1  40
TORSDOF 6
ENDMDL
MODEL 2
REMARK VINA RESULT:      -7.2      4.587     11.834
REMARK  Name = 
REMARK  6 active torsions:
REMARK  status: ('A' for Active; 'I' for Inactive)
REMARK    1  A    between atoms: O_2  and  C_3
REMARK    2  A    between atoms: C_5  and  N_6
REMARK    3  A    between atoms: C_9  and  N_10
REMARK    4  A    between atoms: C_21  and  N_22
REMARK    5  A    between atoms: N_29  and  C_30
REMARK    6  A    between atoms: C_35  and  P_36
REMARK                            x       y       z     vdW  Elec       q    Type
REMARK                         _______ _______ _______ _____ _____    ______ ____
ROOT
ATOM      1  C   UNL     1      -9.942  11.508  68.031  0.00  0.00    +0.155 A 
ATOM      2  C   UNL     1     -10.712  11.444  69.184  0.00  0.00    +0.107 A 
ATOM      3  C   UNL     1     -11.458  12.534  69.611  0.00  0.00    +0.021 A 
ATOM      4  C   UNL     1     -11.504  13.643  68.803  0.00  0.00    +0.016 A 
ATOM      5  C   UNL     1     -10.909  13.681  67.547  0.00  0.00    +0.051 A 
ATOM      6  C   UNL     1     -10.111  12.611  67.206  0.00  0.00    +0.053 A 
ENDROOT
BRANCH   2   7
ATOM      7  N   UNL     1     -10.388  10.406  70.112  0.00  0.00    -0.175 NA
ATOM      8  C   UNL     1     -11.386   9.902  71.004  0.00  0.00    +0.242 A 
ATOM      9  N   UNL     1     -11.224   8.708  71.590  0.00  0.00    -0.194 NA
ATOM     10  C   UNL     1     -12.250   7.900  71.923  0.00  0.00    +0.167 A 
ATOM     11  N   UNL     1     -12.074   6.494  72.120  0.00  0.00    -0.193 NA
ATOM     12  C   UNL     1     -13.525   8.391  71.766  0.00  0.00    +0.110 A 
ATOM     13 CL   UNL     1     -14.883   7.306  71.487  0.00  0.00    -0.078 Cl
ATOM     14  C   UNL     1     -13.636   9.759  71.562  0.00  0.00    +0.116 A 
ATOM     15  N   UNL     1     -12.607  10.460  71.041  0.00  0.00    -0.210 NA
BRANCH  11  16
ATOM     16  C   UNL     1     -11.301   5.804  71.134  0.00  0.00    +0.075 A 
ATOM     17  C   UNL     1     -10.153   5.148  71.560  0.00  0.00    +0.045 A 
ATOM     18  C   UNL     1      -9.331   4.548  70.616  0.00  0.00    +0.004 A 
ATOM     19  C   UNL     1      -9.673   4.612  69.271  0.00  0.00    +0.000 A 
ATOM     20  C   UNL     1     -10.671   5.471  68.836  0.00  0.00    +0.001 A 
ATOM     21  C   UNL     1     -11.334   6.195  69.804  0.00  0.00    +0.017 A 
BRANCH  17  22
ATOM     22  P   UNL     1     -10.021   4.619  73.270  0.00  0.00    +0.137 P 
ATOM     23  O   UNL     1     -11.301   3.888  73.636  0.00  0.00    -0.315 OA
ATOM     24  C   UNL     1      -9.860   6.092  74.330  0.00  0.00    +0.072 C 
ATOM     25  C   UNL     1      -8.601   3.516  73.464  0.00  0.00    +0.072 C 
ENDBRANCH  17  22
ENDBRANCH  11  16
ENDBRANCH   2   7
BRANCH   5  26
ATOM     26  N   UNL     1     -10.726  14.929  66.871  0.00  0.00    -0.307 N 
ATOM     27  C   UNL     1     -11.239  16.180  67.368  0.00  0.00    +0.092 C 
ATOM     28  C   UNL     1     -10.183  17.181  67.704  0.00  0.00    +0.037 C 
ATOM     29  C   UNL     1      -8.948  17.122  66.892  0.00  0.00    +0.061 C 
ATOM     30  C   UNL     1      -8.607  15.813  66.284  0.00  0.00    +0.037 C 
ATOM     31  C   UNL     1      -9.777  15.031  65.766  0.00  0.00    +0.092 C 
BRANCH  29  32
ATOM     32  N   UNL     1      -8.679  18.269  66.081  0.00  0.00    -0.272 NA
ATOM     33  C   UNL     1      -7.295  18.278  65.687  0.00  0.00    +0.090 C 
ATOM     34  C   UNL     1      -6.564  19.521  66.132  0.00  0.00    +0.090 C 
ATOM     35  N   UNL     1      -6.849  19.742  67.534  0.00  0.00    -0.269 NA
ATOM     36  C   UNL     1      -6.016  20.837  68.015  0.00  0.00    +0.090 C 
ATOM     37  C   UNL     1      -8.251  20.020  67.749  0.00  0.00    +0.090 C 
ATOM     38  C   UNL     1      -9.132  19.514  66.638  0.00  0.00    +0.090 C 
ENDBRANCH  29  32
ENDBRANCH   5  26
BRANCH   1  40
ATOM     39  C   UNL     1      -7.706  11.299  67.197  0.00  0.00    +0.253 C 
ATOM     40  O   UNL     1      -8.787  10.728  67.927  0.00  0.00    -0.470 OA
ENDBRANCH   1  40
TORSDOF 6
ENDMDL
MODEL 3
REMARK VINA RESULT:      -7.1      3.980     11.013
REMARK  Name = 
REMARK  6 active torsions:
REMARK  status: ('A' for Active; 'I' for Inactive)
REMARK    1  A    between atoms: O_2  and  C_3
REMARK    2  A    between atoms: C_5  and  N_6
REMARK    3  A    between atoms: C_9  and  N_10
REMARK    4  A    between atoms: C_21  and  N_22
REMARK    5  A    between atoms: N_29  and  C_30
REMARK    6  A    between atoms: C_35  and  P_36
REMARK                            x       y       z     vdW  Elec       q    Type
REMARK                         _______ _______ _______ _____ _____    ______ ____
ROOT
ATOM      1  C   UNL     1     -10.933  14.771  66.123  0.00  0.00    +0.155 A 
ATOM      2  C   UNL     1     -11.102  14.286  67.411  0.00  0.00    +0.107 A 
ATOM      3  C   UNL     1     -10.573  14.955  68.506  0.00  0.00    +0.021 A 
ATOM      4  C   UNL     1      -9.971  16.170  68.293  0.00  0.00    +0.016 A 
ATOM      5  C   UNL     1      -9.950  16.788  67.048  0.00  0.00    +0.051 A 
ATOM      6  C   UNL     1     -10.411  16.050  65.981  0.00  0.00    +0.053 A 
ENDROOT
BRANCH   2   7
ATOM      7  N   UNL     1     -11.456  12.906  67.534  0.00  0.00    -0.175 NA
ATOM      8  C   UNL     1     -10.437  11.909  67.643  0.00  0.00    +0.242 A 
ATOM      9  N   UNL     1     -10.731  10.697  68.136  0.00  0.00    -0.194 NA
ATOM     10  C   UNL     1      -9.848   9.940  68.818  0.00  0.00    +0.167 A 
ATOM     11  N   UNL     1     -10.270   8.895  69.700  0.00  0.00    -0.193 NA
ATOM     12  C   UNL     1      -8.550  10.389  68.896  0.00  0.00    +0.110 A 
ATOM     13 CL   UNL     1      -7.518   9.934  70.247  0.00  0.00    -0.078 Cl
ATOM     14  C   UNL     1      -8.200  11.413  68.028  0.00  0.00    +0.116 A 
ATOM     15  N   UNL     1      -9.142  12.247  67.539  0.00  0.00    -0.210 NA
BRANCH  11  16
ATOM     16  C   UNL     1     -11.335   9.213  70.601  0.00  0.00    +0.075 A 
ATOM     17  C   UNL     1     -11.975   8.156  71.237  0.00  0.00    +0.045 A 
ATOM     18  C   UNL     1     -13.071   8.423  72.046  0.00  0.00    +0.004 A 
ATOM     19  C   UNL     1     -13.503   9.734  72.204  0.00  0.00    +0.000 A 
ATOM     20  C   UNL     1     -13.022  10.740  71.379  0.00  0.00    +0.001 A 
ATOM     21  C   UNL     1     -12.065  10.382  70.454  0.00  0.00    +0.017 A 
BRANCH  17  22
ATOM     22  P   UNL     1     -11.106   6.601  71.457  0.00  0.00    +0.137 P 
ATOM     23  O   UNL     1     -11.914   5.742  72.413  0.00  0.00    -0.315 OA
ATOM     24  C   UNL     1      -9.478   6.938  72.200  0.00  0.00    +0.072 C 
ATOM     25  C   UNL     1     -10.937   5.762  69.864  0.00  0.00    +0.072 C 
ENDBRANCH  17  22
ENDBRANCH  11  16
ENDBRANCH   2   7
BRANCH   5  26
ATOM     26  N   UNL     1      -9.074  17.892  66.803  0.00  0.00    -0.307 N 
ATOM     27  C   UNL     1      -9.248  19.189  67.406  0.00  0.00    +0.092 C 
ATOM     28  C   UNL     1      -8.128  19.599  68.304  0.00  0.00    +0.037 C 
ATOM     29  C   UNL     1      -6.786  19.090  67.945  0.00  0.00    +0.061 C 
ATOM     30  C   UNL     1      -6.733  17.826  67.171  0.00  0.00    +0.037 C 
ATOM     31  C   UNL     1      -7.798  17.678  66.125  0.00  0.00    +0.092 C 
BRANCH  29  32
ATOM     32  N   UNL     1      -5.820  20.079  67.579  0.00  0.00    -0.272 NA
ATOM     33  C   UNL     1      -4.565  19.447  67.267  0.00  0.00    +0.090 C 
ATOM     34  C   UNL     1      -3.429  19.934  68.133  0.00  0.00    +0.090 C 
ATOM     35  N   UNL     1      -3.859  19.894  69.516  0.00  0.00    -0.269 NA
ATOM     36  C   UNL     1      -2.718  20.197  70.371  0.00  0.00    +0.090 C 
ATOM     37  C   UNL     1      -4.949  20.811  69.755  0.00  0.00    +0.090 C 
ATOM     38  C   UNL     1      -5.705  21.172  68.504  0.00  0.00    +0.090 C 
ENDBRANCH  29  32
ENDBRANCH   5  26
BRANCH   1  40
ATOM     39  C   UNL     1     -12.063  13.833  64.229  0.00  0.00    +0.253 C 
ATOM     40  O   UNL     1     -10.898  13.879  65.047  0.00  0.00    -0.470 OA
ENDBRANCH   1  40
TORSDOF 6
ENDMDL
MODEL 4
REMARK VINA RESULT:      -7.0      4.215     11.148
REMARK  Name = 
REMARK  6 active torsions:
REMARK  status: ('A' for Active; 'I' for Inactive)
REMARK    1  A    between atoms: O_2  and  C_3
REMARK    2  A    between atoms: C_5  and  N_6
REMARK    3  A    between atoms: C_9  and  N_10
REMARK    4  A    between atoms: C_21  and  N_22
REMARK    5  A    between atoms: N_29  and  C_30
REMARK    6  A    between atoms: C_35  and  P_36
REMARK                            x       y       z     vdW  Elec       q    Type
REMARK                         _______ _______ _______ _____ _____    ______ ____
ROOT
ATOM      1  C   UNL     1     -12.053  13.356  66.667  0.00  0.00    +0.155 A 
ATOM      2  C   UNL     1     -11.626  12.769  67.848  0.00  0.00    +0.107 A 
ATOM      3  C   UNL     1     -10.691  13.393  68.664  0.00  0.00    +0.021 A 
ATOM      4  C   UNL     1     -10.280  14.659  68.326  0.00  0.00    +0.016 A 
ATOM      5  C   UNL     1     -10.825  15.364  67.260  0.00  0.00    +0.051 A 
ATOM      6  C   UNL     1     -11.685  14.675  66.434  0.00  0.00    +0.053 A 
ENDROOT
BRANCH   2   7
ATOM      7  N   UNL     1     -11.848  11.363  67.982  0.00  0.00    -0.175 NA
ATOM      8  C   UNL     1     -10.868  10.432  67.518  0.00  0.00    +0.242 A 
ATOM      9  N   UNL     1     -10.871   9.170  67.968  0.00  0.00    -0.194 NA
ATOM     10  C   UNL     1      -9.756   8.425  68.097  0.00  0.00    +0.167 A 
ATOM     11  N   UNL     1      -9.699   7.290  68.966  0.00  0.00    -0.193 NA
ATOM     12  C   UNL     1      -8.578   8.953  67.622  0.00  0.00    +0.110 A 
ATOM     13 CL   UNL     1      -7.030   8.469  68.306  0.00  0.00    -0.078 Cl
ATOM     14  C   UNL     1      -8.690  10.062  66.796  0.00  0.00    +0.116 A 
ATOM     15  N   UNL     1      -9.773  10.866  66.872  0.00  0.00    -0.210 NA
BRANCH  11  16
ATOM     16  C   UNL     1     -10.241   7.465  70.279  0.00  0.00    +0.075 A 
ATOM     17  C   UNL     1     -10.479   6.322  71.033  0.00  0.00    +0.045 A 
ATOM     18  C   UNL     1     -11.090   6.450  72.273  0.00  0.00    +0.004 A 
ATOM     19  C   UNL     1     -11.446   7.712  72.734  0.00  0.00    +0.000 A 
ATOM     20  C   UNL     1     -11.435   8.805  71.880  0.00  0.00    +0.001 A 
ATOM     21  C   UNL     1     -10.998   8.584  70.592  0.00  0.00    +0.017 A 
BRANCH  17  22
ATOM     22  P   UNL     1      -9.552   4.825  70.685  0.00  0.00    +0.137 P 
ATOM     23  O   UNL     1      -9.990   4.306  69.328  0.00  0.00    -0.315 OA
ATOM     24  C   UNL     1      -9.954   3.578  71.951  0.00  0.00    +0.072 C 
ATOM     25  C   UNL     1      -7.781   5.191  70.666  0.00  0.00    +0.072 C 
ENDBRANCH  17  22
ENDBRANCH  11  16
ENDBRANCH   2   7
BRANCH   5  26
ATOM     26  N   UNL     1     -10.179  16.540  66.765  0.00  0.00    -0.307 N 
ATOM     27  C   UNL     1     -10.491  17.869  67.227  0.00  0.00    +0.092 C 
ATOM     28  C   UNL     1      -9.356  18.562  67.904  0.00  0.00    +0.037 C 
ATOM     29  C   UNL     1      -8.001  18.212  67.426  0.00  0.00    +0.061 C 
ATOM     30  C   UNL     1      -7.832  16.873  66.809  0.00  0.00    +0.037 C 
ATOM     31  C   UNL     1      -8.974  16.425  65.947  0.00  0.00    +0.092 C 
BRANCH  29  32
ATOM     32  N   UNL     1      -7.261  19.272  66.813  0.00  0.00    -0.272 NA
ATOM     33  C   UNL     1      -6.040  18.758  66.251  0.00  0.00    +0.090 C 
ATOM     34  C   UNL     1      -4.807  19.417  66.820  0.00  0.00    +0.090 C 
ATOM     35  N   UNL     1      -4.916  19.421  68.265  0.00  0.00    -0.269 NA
ATOM     36  C   UNL     1      -3.659  19.898  68.828  0.00  0.00    +0.090 C 
ATOM     37  C   UNL     1      -6.027  20.232  68.706  0.00  0.00    +0.090 C 
ATOM     38  C   UNL     1      -7.076  20.429  67.644  0.00  0.00    +0.090 C 
ENDBRANCH  29  32
ENDBRANCH   5  26
BRANCH   1  40
ATOM     39  C   UNL     1     -11.876  12.824  64.338  0.00  0.00    +0.253 C 
ATOM     40  O   UNL     1     -12.466  12.548  65.603  0.00  0.00    -0.470 OA
ENDBRANCH   1  40
TORSDOF 6
ENDMDL
MODEL 5
REMARK VINA RESULT:      -7.0      3.182      5.416
REMARK  Name = 
REMARK  6 active torsions:
REMARK  status: ('A' for Active; 'I' for Inactive)
REMARK    1  A    between atoms: O_2  and  C_3
REMARK    2  A    between atoms: C_5  and  N_6
REMARK    3  A    between atoms: C_9  and  N_10
REMARK    4  A    between atoms: C_21  and  N_22
REMARK    5  A    between atoms: N_29  and  C_30
REMARK    6  A    between atoms: C_35  and  P_36
REMARK                            x       y       z     vdW  Elec       q    Type
REMARK                         _______ _______ _______ _____ _____    ______ ____
ROOT
ATOM      1  C   UNL     1     -10.591   9.819  68.094  0.00  0.00    +0.155 A 
ATOM      2  C   UNL     1      -9.322  10.070  67.595  0.00  0.00    +0.107 A 
ATOM      3  C   UNL     1      -8.337   9.091  67.609  0.00  0.00    +0.021 A 
ATOM      4  C   UNL     1      -8.684   7.831  68.030  0.00  0.00    +0.016 A 
ATOM      5  C   UNL     1      -9.989   7.482  68.355  0.00  0.00    +0.051 A 
ATOM      6  C   UNL     1     -10.911   8.505  68.407  0.00  0.00    +0.053 A 
ENDROOT
BRANCH   2   7
ATOM      7  N   UNL     1      -8.946  11.443  67.462  0.00  0.00    -0.175 NA
ATOM      8  C   UNL     1      -9.283  12.170  66.278  0.00  0.00    +0.242 A 
ATOM      9  N   UNL     1      -9.290  13.511  66.290  0.00  0.00    -0.194 NA
ATOM     10  C   UNL     1     -10.109  14.255  65.521  0.00  0.00    +0.167 A 
ATOM     11  N   UNL     1     -10.428  15.611  65.846  0.00  0.00    -0.193 NA
ATOM     12  C   UNL     1     -10.883  13.598  64.592  0.00  0.00    +0.110 A 
ATOM     13 CL   UNL     1     -12.413  14.277  64.049  0.00  0.00    -0.078 Cl
ATOM     14  C   UNL     1     -10.538  12.281  64.326  0.00  0.00    +0.116 A 
ATOM     15  N   UNL     1      -9.874  11.548  65.245  0.00  0.00    -0.210 NA
BRANCH  11  16
ATOM     16  C   UNL     1     -10.777  15.875  67.209  0.00  0.00    +0.075 A 
ATOM     17  C   UNL     1     -10.030  16.827  67.891  0.00  0.00    +0.045 A 
ATOM     18  C   UNL     1     -10.281  17.040  69.239  0.00  0.00    +0.004 A 
ATOM     19  C   UNL     1     -11.273  16.303  69.876  0.00  0.00    +0.000 A 
ATOM     20  C   UNL     1     -11.833  15.193  69.260  0.00  0.00    +0.001 A 
ATOM     21  C   UNL     1     -11.405  14.909  67.981  0.00  0.00    +0.017 A 
BRANCH  17  22
ATOM     22  P   UNL     1      -9.173  18.105  66.967  0.00  0.00    +0.137 P 
ATOM     23  O   UNL     1      -8.247  17.427  65.973  0.00  0.00    -0.315 OA
ATOM     24  C   UNL     1      -8.173  19.096  68.123  0.00  0.00    +0.072 C 
ATOM     25  C   UNL     1     -10.373  19.137  66.090  0.00  0.00    +0.072 C 
ENDBRANCH  17  22
ENDBRANCH  11  16
ENDBRANCH   2   7
BRANCH   5  26
ATOM     26  N   UNL     1     -10.259   6.267  69.061  0.00  0.00    -0.307 N 
ATOM     27  C   UNL     1      -9.390   5.118  69.018  0.00  0.00    +0.092 C 
ATOM     28  C   UNL     1      -8.796   4.754  70.338  0.00  0.00    +0.037 C 
ATOM     29  C   UNL     1      -9.623   5.051  71.528  0.00  0.00    +0.061 C 
ATOM     30  C   UNL     1     -10.611   6.150  71.402  0.00  0.00    +0.037 C 
ATOM     31  C   UNL     1     -11.308   6.226  70.076  0.00  0.00    +0.092 C 
BRANCH  29  32
ATOM     32  N   UNL     1     -10.055   3.918  72.287  0.00  0.00    -0.272 NA
ATOM     33  C   UNL     1     -10.888   4.347  73.380  0.00  0.00    +0.090 C 
ATOM     34  C   UNL     1     -10.352   3.933  74.728  0.00  0.00    +0.090 C 
ATOM     35  N   UNL     1      -8.949   4.290  74.791  0.00  0.00    -0.269 NA
ATOM     36  C   UNL     1      -8.466   4.051  76.146  0.00  0.00    +0.090 C 
ATOM     37  C   UNL     1      -8.173   3.551  73.822  0.00  0.00    +0.090 C 
ATOM     38  C   UNL     1      -9.000   3.025  72.679  0.00  0.00    +0.090 C 
ENDBRANCH  29  32
ENDBRANCH   5  26
BRANCH   1  40
ATOM     39  C   UNL     1     -11.777  10.701  69.980  0.00  0.00    +0.253 C 
ATOM     40  O   UNL     1     -11.341  10.868  68.635  0.00  0.00    -0.470 OA
ENDBRANCH   1  40
TORSDOF 6
ENDMDL
MODEL 6
REMARK VINA RESULT:      -7.0      1.455      1.891
REMARK  Name = 
REMARK  6 active torsions:
REMARK  status: ('A' for Active; 'I' for Inactive)
REMARK    1  A    between atoms: O_2  and  C_3
REMARK    2  A    between atoms: C_5  and  N_6
REMARK    3  A    between atoms: C_9  and  N_10
REMARK    4  A    between atoms: C_21  and  N_22
REMARK    5  A    between atoms: N_29  and  C_30
REMARK    6  A    between atoms: C_35  and  P_36
REMARK                            x       y       z     vdW  Elec       q    Type
REMARK                         _______ _______ _______ _____ _____    ______ ____
ROOT
ATOM      1  C   UNL     1      -8.774  14.328  67.353  0.00  0.00    +0.155 A 
ATOM      2  C   UNL     1      -9.567  15.192  66.613  0.00  0.00    +0.107 A 
ATOM      3  C   UNL     1     -10.874  14.862  66.281  0.00  0.00    +0.021 A 
ATOM      4  C   UNL     1     -11.400  13.704  66.799  0.00  0.00    +0.016 A 
ATOM      5  C   UNL     1     -10.709  12.905  67.702  0.00  0.00    +0.051 A 
ATOM      6  C   UNL     1      -9.390  13.227  67.934  0.00  0.00    +0.053 A 
ENDROOT
BRANCH   2   7
ATOM      7  N   UNL     1      -8.887  16.205  65.868  0.00  0.00    -0.175 NA
ATOM      8  C   UNL     1      -8.747  17.522  66.406  0.00  0.00    +0.242 A 
ATOM      9  N   UNL     1      -7.811  18.351  65.923  0.00  0.00    -0.194 NA
ATOM     10  C   UNL     1      -7.201  19.294  66.667  0.00  0.00    +0.167 A 
ATOM     11  N   UNL     1      -5.935  19.850  66.296  0.00  0.00    -0.193 NA
ATOM     12  C   UNL     1      -7.658  19.491  67.949  0.00  0.00    +0.110 A 
ATOM     13 CL   UNL     1      -6.594  20.120  69.202  0.00  0.00    -0.078 Cl
ATOM     14  C   UNL     1      -8.883  18.917  68.259  0.00  0.00    +0.116 A 
ATOM     15  N   UNL     1      -9.331  17.845  67.571  0.00  0.00    -0.210 NA
BRANCH  11  16
ATOM     16  C   UNL     1      -4.927  18.921  65.886  0.00  0.00    +0.075 A 
ATOM     17  C   UNL     1      -4.636  18.845  64.529  0.00  0.00    +0.045 A 
ATOM     18  C   UNL     1      -3.731  17.890  64.088  0.00  0.00    +0.004 A 
ATOM     19  C   UNL     1      -3.134  17.035  65.007  0.00  0.00    +0.000 A 
ATOM     20  C   UNL     1      -3.611  16.951  66.307  0.00  0.00    +0.001 A 
ATOM     21  C   UNL     1      -4.649  17.794  66.644  0.00  0.00    +0.017 A 
BRANCH  17  22
ATOM     22  P   UNL     1      -4.977  20.255  63.473  0.00  0.00    +0.137 P 
ATOM     23  O   UNL     1      -6.409  20.695  63.724  0.00  0.00    -0.315 OA
ATOM     24  C   UNL     1      -4.816  19.739  61.734  0.00  0.00    +0.072 C 
ATOM     25  C   UNL     1      -3.838  21.604  63.863  0.00  0.00    +0.072 C 
ENDBRANCH  17  22
ENDBRANCH  11  16
ENDBRANCH   2   7
BRANCH   5  26
ATOM     26  N   UNL     1     -11.161  11.577  67.986  0.00  0.00    -0.307 N 
ATOM     27  C   UNL     1     -10.618  10.404  67.350  0.00  0.00    +0.092 C 
ATOM     28  C   UNL     1      -9.942   9.460  68.288  0.00  0.00    +0.037 C 
ATOM     29  C   UNL     1     -10.483   9.410  69.663  0.00  0.00    +0.061 C 
ATOM     30  C   UNL     1     -11.177  10.624  70.156  0.00  0.00    +0.037 C 
ATOM     31  C   UNL     1     -12.024  11.327  69.137  0.00  0.00    +0.092 C 
BRANCH  29  32
ATOM     32  N   UNL     1     -11.062   8.164  70.062  0.00  0.00    -0.272 NA
ATOM     33  C   UNL     1     -11.922   8.363  71.199  0.00  0.00    +0.090 C 
ATOM     34  C   UNL     1     -11.511   7.543  72.397  0.00  0.00    +0.090 C 
ATOM     35  N   UNL     1     -10.089   7.722  72.609  0.00  0.00    -0.269 NA
ATOM     36  C   UNL     1      -9.717   7.075  73.861  0.00  0.00    +0.090 C 
ATOM     37  C   UNL     1      -9.323   7.199  71.502  0.00  0.00    +0.090 C 
ATOM     38  C   UNL     1     -10.118   7.093  70.228  0.00  0.00    +0.090 C 
ENDBRANCH  29  32
ENDBRANCH   5  26
BRANCH   1  40
ATOM     39  C   UNL     1      -6.674  13.234  67.722  0.00  0.00    +0.253 C 
ATOM     40  O   UNL     1      -7.387  14.338  67.175  0.00  0.00    -0.470 OA
ENDBRANCH   1  40
TORSDOF 6
ENDMDL
MODEL 7
REMARK VINA RESULT:      -6.9      3.553      6.245
REMARK  Name = 
REMARK  6 active torsions:
REMARK  status: ('A' for Active; 'I' for Inactive)
REMARK    1  A    between atoms: O_2  and  C_3
REMARK    2  A    between atoms: C_5  and  N_6
REMARK    3  A    between atoms: C_9  and  N_10
REMARK    4  A    between atoms: C_21  and  N_22
REMARK    5  A    between atoms: N_29  and  C_30
REMARK    6  A    between atoms: C_35  and  P_36
REMARK                            x       y       z     vdW  Elec       q    Type
REMARK                         _______ _______ _______ _____ _____    ______ ____
ROOT
ATOM      1  C   UNL     1     -10.155   9.475  69.696  0.00  0.00    +0.155 A 
ATOM      2  C   UNL     1      -8.985   9.732  68.997  0.00  0.00    +0.107 A 
ATOM      3  C   UNL     1      -7.893   8.877  69.082  0.00  0.00    +0.021 A 
ATOM      4  C   UNL     1      -8.040   7.709  69.789  0.00  0.00    +0.016 A 
ATOM      5  C   UNL     1      -9.252   7.316  70.343  0.00  0.00    +0.051 A 
ATOM      6  C   UNL     1     -10.279   8.233  70.306  0.00  0.00    +0.053 A 
ENDROOT
BRANCH   2   7
ATOM      7  N   UNL     1      -8.792  11.074  68.544  0.00  0.00    -0.175 NA
ATOM      8  C   UNL     1      -9.229  11.462  67.239  0.00  0.00    +0.242 A 
ATOM      9  N   UNL     1      -9.411  12.758  66.947  0.00  0.00    -0.194 NA
ATOM     10  C   UNL     1     -10.326  13.197  66.060  0.00  0.00    +0.167 A 
ATOM     11  N   UNL     1     -10.817  14.540  66.080  0.00  0.00    -0.193 NA
ATOM     12  C   UNL     1     -11.012  12.253  65.331  0.00  0.00    +0.110 A 
ATOM     13 CL   UNL     1     -12.622  12.590  64.705  0.00  0.00    -0.078 Cl
ATOM     14  C   UNL     1     -10.500  10.963  65.359  0.00  0.00    +0.116 A 
ATOM     15  N   UNL     1      -9.740  10.551  66.395  0.00  0.00    -0.210 NA
BRANCH  11  16
ATOM     16  C   UNL     1     -11.189  15.063  67.359  0.00  0.00    +0.075 A 
ATOM     17  C   UNL     1     -10.472  16.151  67.842  0.00  0.00    +0.045 A 
ATOM     18  C   UNL     1     -10.745  16.623  69.119  0.00  0.00    +0.004 A 
ATOM     19  C   UNL     1     -11.728  16.005  69.883  0.00  0.00    +0.000 A 
ATOM     20  C   UNL     1     -12.256  14.781  69.497  0.00  0.00    +0.001 A 
ATOM     21  C   UNL     1     -11.805  14.257  68.304  0.00  0.00    +0.017 A 
BRANCH  17  22
ATOM     22  P   UNL     1      -9.633  17.238  66.688  0.00  0.00    +0.137 P 
ATOM     23  O   UNL     1     -10.471  17.320  65.425  0.00  0.00    -0.315 OA
ATOM     24  C   UNL     1      -8.012  16.517  66.273  0.00  0.00    +0.072 C 
ATOM     25  C   UNL     1      -9.449  18.883  67.417  0.00  0.00    +0.072 C 
ENDBRANCH  17  22
ENDBRANCH  11  16
ENDBRANCH   2   7
BRANCH   5  26
ATOM     26  N   UNL     1      -9.298   6.260  71.307  0.00  0.00    -0.307 N 
ATOM     27  C   UNL     1      -8.429   6.199  72.455  0.00  0.00    +0.092 C 
ATOM     28  C   UNL     1      -9.143   6.275  73.764  0.00  0.00    +0.037 C 
ATOM     29  C   UNL     1     -10.504   5.699  73.797  0.00  0.00    +0.061 C 
ATOM     30  C   UNL     1     -11.247   5.657  72.514  0.00  0.00    +0.037 C 
ATOM     31  C   UNL     1     -10.415   5.319  71.312  0.00  0.00    +0.092 C 
BRANCH  29  32
ATOM     32  N   UNL     1     -10.683   4.566  74.651  0.00  0.00    -0.272 NA
ATOM     33  C   UNL     1      -9.693   4.576  75.696  0.00  0.00    +0.090 C 
ATOM     34  C   UNL     1      -8.835   3.336  75.706  0.00  0.00    +0.090 C 
ATOM     35  N   UNL     1      -8.364   3.094  74.357  0.00  0.00    -0.269 NA
ATOM     36  C   UNL     1      -7.399   2.001  74.386  0.00  0.00    +0.090 C 
ATOM     37  C   UNL     1      -9.460   2.799  73.463  0.00  0.00    +0.090 C 
ATOM     38  C   UNL     1     -10.786   3.310  73.961  0.00  0.00    +0.090 C 
ENDBRANCH  29  32
ENDBRANCH   5  26
BRANCH   1  40
ATOM     39  C   UNL     1     -12.068  10.203  70.939  0.00  0.00    +0.253 C 
ATOM     40  O   UNL     1     -10.963  10.538  70.107  0.00  0.00    -0.470 OA
ENDBRANCH   1  40
TORSDOF 6
ENDMDL
MODEL 8
REMARK VINA RESULT:      -6.8      4.783     11.635
REMARK  Name = 
REMARK  6 active torsions:
REMARK  status: ('A' for Active; 'I' for Inactive)
REMARK    1  A    between atoms: O_2  and  C_3
REMARK    2  A    between atoms: C_5  and  N_6
REMARK    3  A    between atoms: C_9  and  N_10
REMARK    4  A    between atoms: C_21  and  N_22
REMARK    5  A    between atoms: N_29  and  C_30
REMARK    6  A    between atoms: C_35  and  P_36
REMARK                            x       y       z     vdW  Elec       q    Type
REMARK                         _______ _______ _______ _____ _____    ______ ____
ROOT
ATOM      1  C   UNL     1      -9.650  10.399  69.074  0.00  0.00    +0.155 A 
ATOM      2  C   UNL     1     -10.719  10.258  69.946  0.00  0.00    +0.107 A 
ATOM      3  C   UNL     1     -11.787  11.146  69.924  0.00  0.00    +0.021 A 
ATOM      4  C   UNL     1     -11.811  12.104  68.940  0.00  0.00    +0.016 A 
ATOM      5  C   UNL     1     -10.862  12.162  67.927  0.00  0.00    +0.051 A 
ATOM      6  C   UNL     1      -9.780  11.317  68.040  0.00  0.00    +0.053 A 
ENDROOT
BRANCH   2   7
ATOM      7  N   UNL     1     -10.496   9.457  71.109  0.00  0.00    -0.175 NA
ATOM      8  C   UNL     1     -10.814   8.063  71.095  0.00  0.00    +0.242 A 
ATOM      9  N   UNL     1     -10.271   7.239  72.001  0.00  0.00    -0.194 NA
ATOM     10  C   UNL     1     -10.003   5.941  71.757  0.00  0.00    +0.167 A 
ATOM     11  N   UNL     1      -9.048   5.206  72.529  0.00  0.00    -0.193 NA
ATOM     12  C   UNL     1     -10.429   5.416  70.559  0.00  0.00    +0.110 A 
ATOM     13 CL   UNL     1      -9.598   4.049  69.825  0.00  0.00    -0.078 Cl
ATOM     14  C   UNL     1     -11.343   6.178  69.845  0.00  0.00    +0.116 A 
ATOM     15  N   UNL     1     -11.409   7.514  70.023  0.00  0.00    -0.210 NA
BRANCH  11  16
ATOM     16  C   UNL     1      -7.796   5.853  72.777  0.00  0.00    +0.075 A 
ATOM     17  C   UNL     1      -7.595   6.402  74.037  0.00  0.00    +0.045 A 
ATOM     18  C   UNL     1      -6.430   7.116  74.282  0.00  0.00    +0.004 A 
ATOM     19  C   UNL     1      -5.492   7.266  73.267  0.00  0.00    +0.000 A 
ATOM     20  C   UNL     1      -5.810   6.936  71.957  0.00  0.00    +0.001 A 
ATOM     21  C   UNL     1      -7.062   6.402  71.737  0.00  0.00    +0.017 A 
BRANCH  17  22
ATOM     22  P   UNL     1      -8.514   5.758  75.438  0.00  0.00    +0.137 P 
ATOM     23  O   UNL     1      -9.970   6.154  75.266  0.00  0.00    -0.315 OA
ATOM     24  C   UNL     1      -7.873   6.520  76.962  0.00  0.00    +0.072 C 
ATOM     25  C   UNL     1      -8.365   3.957  75.494  0.00  0.00    +0.072 C 
ENDBRANCH  17  22
ENDBRANCH  11  16
ENDBRANCH   2   7
BRANCH   5  26
ATOM     26  N   UNL     1     -10.750  13.329  67.107  0.00  0.00    -0.307 N 
ATOM     27  C   UNL     1     -11.648  14.452  67.202  0.00  0.00    +0.092 C 
ATOM     28  C   UNL     1     -10.991  15.724  67.623  0.00  0.00    +0.037 C 
ATOM     29  C   UNL     1      -9.582  15.898  67.207  0.00  0.00    +0.061 C 
ATOM     30  C   UNL     1      -8.795  14.663  66.970  0.00  0.00    +0.037 C 
ATOM     31  C   UNL     1      -9.549  13.549  66.306  0.00  0.00    +0.092 C 
BRANCH  29  32
ATOM     32  N   UNL     1      -9.326  16.975  66.301  0.00  0.00    -0.272 NA
ATOM     33  C   UNL     1      -7.914  17.072  66.039  0.00  0.00    +0.090 C 
ATOM     34  C   UNL     1      -7.337  18.416  66.409  0.00  0.00    +0.090 C 
ATOM     35  N   UNL     1      -7.781  18.752  67.746  0.00  0.00    -0.269 NA
ATOM     36  C   UNL     1      -7.093  19.963  68.177  0.00  0.00    +0.090 C 
ATOM     37  C   UNL     1      -9.215  18.919  67.798  0.00  0.00    +0.090 C 
ATOM     38  C   UNL     1      -9.934  18.223  66.673  0.00  0.00    +0.090 C 
ENDBRANCH  29  32
ENDBRANCH   5  26
BRANCH   1  40
ATOM     39  C   UNL     1      -7.809   8.922  68.665  0.00  0.00    +0.253 C 
ATOM     40  O   UNL     1      -8.381   9.956  69.459  0.00  0.00    -0.470 OA
ENDBRANCH   1  40
TORSDOF 6
ENDMDL
MODEL 9
REMARK VINA RESULT:      -6.7      4.471     11.211
REMARK  Name = 
REMARK  6 active torsions:
REMARK  status: ('A' for Active; 'I' for Inactive)
REMARK    1  A    between atoms: O_2  and  C_3
REMARK    2  A    between atoms: C_5  and  N_6
REMARK    3  A    between atoms: C_9  and  N_10
REMARK    4  A    between atoms: C_21  and  N_22
REMARK    5  A    between atoms: N_29  and  C_30
REMARK    6  A    between atoms: C_35  and  P_36
REMARK                            x       y       z     vdW  Elec       q    Type
REMARK                         _______ _______ _______ _____ _____    ______ ____
ROOT
ATOM      1  C   UNL     1     -11.184  10.917  67.416  0.00  0.00    +0.155 A 
ATOM      2  C   UNL     1     -11.195  10.393  68.700  0.00  0.00    +0.107 A 
ATOM      3  C   UNL     1     -11.381  11.208  69.808  0.00  0.00    +0.021 A 
ATOM      4  C   UNL     1     -11.666  12.534  69.595  0.00  0.00    +0.016 A 
ATOM      5  C   UNL     1     -11.858  13.065  68.324  0.00  0.00    +0.051 A 
ATOM      6  C   UNL     1     -11.580  12.239  67.258  0.00  0.00    +0.053 A 
ENDROOT
BRANCH   2   7
ATOM      7  N   UNL     1     -10.604   9.102  68.869  0.00  0.00    -0.175 NA
ATOM      8  C   UNL     1      -9.213   8.981  69.172  0.00  0.00    +0.242 A 
ATOM      9  N   UNL     1      -8.735   7.846  69.702  0.00  0.00    -0.194 NA
ATOM     10  C   UNL     1      -7.679   7.807  70.539  0.00  0.00    +0.167 A 
ATOM     11  N   UNL     1      -7.458   6.708  71.428  0.00  0.00    -0.193 NA
ATOM     12  C   UNL     1      -6.988   8.977  70.751  0.00  0.00    +0.110 A 
ATOM     13 CL   UNL     1      -6.104   9.246  72.249  0.00  0.00    -0.078 Cl
ATOM     14  C   UNL     1      -7.252  10.015  69.868  0.00  0.00    +0.116 A 
ATOM     15  N   UNL     1      -8.429  10.071  69.209  0.00  0.00    -0.210 NA
BRANCH  11  16
ATOM     16  C   UNL     1      -8.595   6.246  72.165  0.00  0.00    +0.075 A 
ATOM     17  C   UNL     1      -9.239   5.104  71.704  0.00  0.00    +0.045 A 
ATOM     18  C   UNL     1     -10.399   4.683  72.340  0.00  0.00    +0.004 A 
ATOM     19  C   UNL     1     -10.888   5.406  73.422  0.00  0.00    +0.000 A 
ATOM     20  C   UNL     1     -10.388   6.667  73.713  0.00  0.00    +0.001 A 
ATOM     21  C   UNL     1      -9.355   7.124  72.922  0.00  0.00    +0.017 A 
BRANCH  17  22
ATOM     22  P   UNL     1      -8.332   3.921  70.705  0.00  0.00    +0.137 P 
ATOM     23  O   UNL     1      -8.087   4.546  69.343  0.00  0.00    -0.315 OA
ATOM     24  C   UNL     1      -9.352   2.427  70.493  0.00  0.00    +0.072 C 
ATOM     25  C   UNL     1      -6.755   3.529  71.499  0.00  0.00    +0.072 C 
ENDBRANCH  17  22
ENDBRANCH  11  16
ENDBRANCH   2   7
BRANCH   5  26
ATOM     26  N   UNL     1     -11.859  14.481  68.125  0.00  0.00    -0.307 N 
ATOM     27  C   UNL     1     -11.983  15.432  69.201  0.00  0.00    +0.092 C 
ATOM     28  C   UNL     1     -10.792  16.314  69.375  0.00  0.00    +0.037 C 
ATOM     29  C   UNL     1     -10.036  16.637  68.146  0.00  0.00    +0.061 C 
ATOM     30  C   UNL     1     -10.118  15.661  67.031  0.00  0.00    +0.037 C 
ATOM     31  C   UNL     1     -11.469  15.040  66.833  0.00  0.00    +0.092 C 
BRANCH  29  32
ATOM     32  N   UNL     1     -10.027  18.014  67.761  0.00  0.00    -0.272 NA
ATOM     33  C   UNL     1      -9.532  18.146  66.415  0.00  0.00    +0.090 C 
ATOM     34  C   UNL     1      -8.311  19.027  66.321  0.00  0.00    +0.090 C 
ATOM     35  N   UNL     1      -7.363  18.605  67.332  0.00  0.00    -0.269 NA
ATOM     36  C   UNL     1      -6.115  19.335  67.137  0.00  0.00    +0.090 C 
ATOM     37  C   UNL     1      -7.886  18.811  68.662  0.00  0.00    +0.090 C 
ATOM     38  C   UNL     1      -9.389  18.893  68.702  0.00  0.00    +0.090 C 
ENDBRANCH  29  32
ENDBRANCH   5  26
BRANCH   1  40
ATOM     39  C   UNL     1      -9.512  11.114  65.712  0.00  0.00    +0.253 C 
ATOM     40  O   UNL     1     -10.432  10.290  66.419  0.00  0.00    -0.470 OA
ENDBRANCH   1  40
TORSDOF 6
ENDMDL
