MODEL 1
REMARK VINA RESULT:      -4.4      0.000      0.000
REMARK  Name = 
REMARK  2 active torsions:
REMARK  status: ('A' for Active; 'I' for Inactive)
REMARK    1  A    between atoms: P_2  and  C_5
REMARK    2  A    between atoms: C_5  and  P_6
REMARK                            x       y       z     vdW  Elec       q    Type
REMARK                         _______ _______ _______ _____ _____    ______ ____
ROOT
ATOM      1  C   UNL     1     -10.669  13.908  64.656  0.00  0.00    +0.118 C 
ENDROOT
BRANCH   1   3
ATOM      2  O   UNL     1     -13.335  14.167  65.284  0.00  0.00    -0.460 OA
ATOM      3  P   UNL     1     -12.261  13.128  65.004  0.00  0.00    +0.124 P 
ATOM      4  O   UNL     1     -12.149  12.057  66.322  0.00  0.00    -0.357 OA
ATOM      5  O   UNL     1     -12.652  12.197  63.635  0.00  0.00    -0.357 OA
ENDBRANCH   1   3
BRANCH   1   6
ATOM      6  P   UNL     1     -10.531  15.559  65.348  0.00  0.00    +0.124 P 
ATOM      7  O   UNL     1     -11.177  15.658  66.919  0.00  0.00    -0.357 OA
ATOM      8  O   UNL     1     -11.294  16.716  64.392  0.00  0.00    -0.357 OA
ATOM      9  O   UNL     1      -9.076  15.975  65.491  0.00  0.00    -0.460 OA
ENDBRANCH   1   6
TORSDOF 2
ENDMDL
MODEL 2
REMARK VINA RESULT:      -4.4      0.080      3.848
REMARK  Name = 
REMARK  2 active torsions:
REMARK  status: ('A' for Active; 'I' for Inactive)
REMARK    1  A    between atoms: P_2  and  C_5
REMARK    2  A    between atoms: C_5  and  P_6
REMARK                            x       y       z     vdW  Elec       q    Type
REMARK                         _______ _______ _______ _____ _____    ______ ____
ROOT
ATOM      1  C   UNL     1     -10.607  13.935  64.643  0.00  0.00    +0.118 C 
ENDROOT
BRANCH   1   3
ATOM      2  O   UNL     1      -9.033  15.996  65.563  0.00  0.00    -0.460 OA
ATOM      3  P   UNL     1     -10.484  15.570  65.402  0.00  0.00    +0.124 P 
ATOM      4  O   UNL     1     -11.259  15.608  66.917  0.00  0.00    -0.357 OA
ATOM      5  O   UNL     1     -11.326  16.640  64.382  0.00  0.00    -0.357 OA
ENDBRANCH   1   3
BRANCH   1   6
ATOM      6  P   UNL     1     -12.188  13.139  64.946  0.00  0.00    +0.124 P 
ATOM      7  O   UNL     1     -12.155  12.134  66.318  0.00  0.00    -0.357 OA
ATOM      8  O   UNL     1     -12.700  12.219  63.631  0.00  0.00    -0.357 OA
ATOM      9  O   UNL     1     -13.273  14.166  65.232  0.00  0.00    -0.460 OA
ENDBRANCH   1   6
TORSDOF 2
ENDMDL
MODEL 3
REMARK VINA RESULT:      -4.4      0.189      4.000
REMARK  Name = 
REMARK  2 active torsions:
REMARK  status: ('A' for Active; 'I' for Inactive)
REMARK    1  A    between atoms: P_2  and  C_5
REMARK    2  A    between atoms: C_5  and  P_6
REMARK                            x       y       z     vdW  Elec       q    Type
REMARK                         _______ _______ _______ _____ _____    ______ ____
ROOT
ATOM      1  C   UNL     1     -10.497  13.939  64.779  0.00  0.00    +0.118 C 
ENDROOT
BRANCH   1   3
ATOM      2  O   UNL     1     -11.232  15.651  66.804  0.00  0.00    -0.460 OA
ATOM      3  P   UNL     1     -10.531  15.614  65.455  0.00  0.00    +0.124 P 
ATOM      4  O   UNL     1     -11.298  16.696  64.387  0.00  0.00    -0.357 OA
ATOM      5  O   UNL     1      -8.911  16.112  65.594  0.00  0.00    -0.357 OA
ENDBRANCH   1   3
BRANCH   1   6
ATOM      6  P   UNL     1     -12.063  13.079  64.957  0.00  0.00    +0.124 P 
ATOM      7  O   UNL     1     -12.123  12.127  66.366  0.00  0.00    -0.357 OA
ATOM      8  O   UNL     1     -12.401  12.089  63.638  0.00  0.00    -0.357 OA
ATOM      9  O   UNL     1     -13.216  14.062  65.094  0.00  0.00    -0.460 OA
ENDBRANCH   1   6
TORSDOF 2
ENDMDL
MODEL 4
REMARK VINA RESULT:      -4.3      0.195      4.086
REMARK  Name = 
REMARK  2 active torsions:
REMARK  status: ('A' for Active; 'I' for Inactive)
REMARK    1  A    between atoms: P_2  and  C_5
REMARK    2  A    between atoms: C_5  and  P_6
REMARK                            x       y       z     vdW  Elec       q    Type
REMARK                         _______ _______ _______ _____ _____    ______ ____
ROOT
ATOM      1  C   UNL     1     -10.508  13.980  64.792  0.00  0.00    +0.118 C 
ENDROOT
BRANCH   1   3
ATOM      2  O   UNL     1     -11.185  15.705  66.826  0.00  0.00    -0.460 OA
ATOM      3  P   UNL     1     -10.504  15.656  65.467  0.00  0.00    +0.124 P 
ATOM      4  O   UNL     1     -11.266  16.750  64.410  0.00  0.00    -0.357 OA
ATOM      5  O   UNL     1      -8.873  16.125  65.583  0.00  0.00    -0.357 OA
ENDBRANCH   1   3
BRANCH   1   6
ATOM      6  P   UNL     1     -12.102  13.167  64.944  0.00  0.00    +0.124 P 
ATOM      7  O   UNL     1     -13.360  14.266  65.268  0.00  0.00    -0.357 OA
ATOM      8  O   UNL     1     -12.106  11.992  66.149  0.00  0.00    -0.357 OA
ATOM      9  O   UNL     1     -12.497  12.485  63.643  0.00  0.00    -0.460 OA
ENDBRANCH   1   6
TORSDOF 2
ENDMDL
MODEL 5
REMARK VINA RESULT:      -4.2      0.223      3.977
REMARK  Name = 
REMARK  2 active torsions:
REMARK  status: ('A' for Active; 'I' for Inactive)
REMARK    1  A    between atoms: P_2  and  C_5
REMARK    2  A    between atoms: C_5  and  P_6
REMARK                            x       y       z     vdW  Elec       q    Type
REMARK                         _______ _______ _______ _____ _____    ______ ____
ROOT
ATOM      1  C   UNL     1     -10.511  13.918  64.793  0.00  0.00    +0.118 C 
ENDROOT
BRANCH   1   3
ATOM      2  O   UNL     1     -11.264  16.536  64.404  0.00  0.00    -0.460 OA
ATOM      3  P   UNL     1     -10.515  15.631  65.369  0.00  0.00    +0.124 P 
ATOM      4  O   UNL     1      -8.929  16.214  65.582  0.00  0.00    -0.357 OA
ATOM      5  O   UNL     1     -11.254  15.623  66.901  0.00  0.00    -0.357 OA
ENDBRANCH   1   3
BRANCH   1   6
ATOM      6  P   UNL     1     -12.128  13.143  64.890  0.00  0.00    +0.124 P 
ATOM      7  O   UNL     1     -12.572  12.384  63.434  0.00  0.00    -0.357 OA
ATOM      8  O   UNL     1     -13.337  14.242  65.301  0.00  0.00    -0.357 OA
ATOM      9  O   UNL     1     -12.145  12.038  65.935  0.00  0.00    -0.460 OA
ENDBRANCH   1   6
TORSDOF 2
ENDMDL
MODEL 6
REMARK VINA RESULT:      -4.1      0.290      2.241
REMARK  Name = 
REMARK  2 active torsions:
REMARK  status: ('A' for Active; 'I' for Inactive)
REMARK    1  A    between atoms: P_2  and  C_5
REMARK    2  A    between atoms: C_5  and  P_6
REMARK                            x       y       z     vdW  Elec       q    Type
REMARK                         _______ _______ _______ _____ _____    ______ ____
ROOT
ATOM      1  C   UNL     1     -10.452  13.723  64.791  0.00  0.00    +0.118 C 
ENDROOT
BRANCH   1   3
ATOM      2  O   UNL     1     -12.385  12.068  63.743  0.00  0.00    -0.460 OA
ATOM      3  P   UNL     1     -12.082  12.958  64.939  0.00  0.00    +0.124 P 
ATOM      4  O   UNL     1     -13.304  14.134  65.095  0.00  0.00    -0.357 OA
ATOM      5  O   UNL     1     -12.065  12.059  66.383  0.00  0.00    -0.357 OA
ENDBRANCH   1   3
BRANCH   1   6
ATOM      6  P   UNL     1     -10.384  15.371  65.500  0.00  0.00    +0.124 P 
ATOM      7  O   UNL     1     -11.080  16.543  64.481  0.00  0.00    -0.357 OA
ATOM      8  O   UNL     1      -8.808  15.849  65.852  0.00  0.00    -0.357 OA
ATOM      9  O   UNL     1     -11.181  15.445  66.793  0.00  0.00    -0.460 OA
ENDBRANCH   1   6
TORSDOF 2
ENDMDL
MODEL 7
REMARK VINA RESULT:      -4.0      2.230      3.696
REMARK  Name = 
REMARK  2 active torsions:
REMARK  status: ('A' for Active; 'I' for Inactive)
REMARK    1  A    between atoms: P_2  and  C_5
REMARK    2  A    between atoms: C_5  and  P_6
REMARK                            x       y       z     vdW  Elec       q    Type
REMARK                         _______ _______ _______ _____ _____    ______ ____
ROOT
ATOM      1  C   UNL     1     -12.131  14.211  66.657  0.00  0.00    +0.118 C 
ENDROOT
BRANCH   1   3
ATOM      2  O   UNL     1      -9.883  12.985  67.665  0.00  0.00    -0.460 OA
ATOM      3  P   UNL     1     -11.402  12.964  67.743  0.00  0.00    +0.124 P 
ATOM      4  O   UNL     1     -11.969  11.405  67.361  0.00  0.00    -0.357 OA
ATOM      5  O   UNL     1     -11.938  13.321  69.317  0.00  0.00    -0.357 OA
ENDBRANCH   1   3
BRANCH   1   6
ATOM      6  P   UNL     1     -12.122  13.726  64.928  0.00  0.00    +0.124 P 
ATOM      7  O   UNL     1     -13.201  12.450  64.608  0.00  0.00    -0.357 OA
ATOM      8  O   UNL     1     -10.590  13.264  64.404  0.00  0.00    -0.357 OA
ATOM      9  O   UNL     1     -12.582  14.868  64.035  0.00  0.00    -0.460 OA
ENDBRANCH   1   6
TORSDOF 2
ENDMDL
MODEL 8
REMARK VINA RESULT:      -4.0      1.490      2.059
REMARK  Name = 
REMARK  2 active torsions:
REMARK  status: ('A' for Active; 'I' for Inactive)
REMARK    1  A    between atoms: P_2  and  C_5
REMARK    2  A    between atoms: C_5  and  P_6
REMARK                            x       y       z     vdW  Elec       q    Type
REMARK                         _______ _______ _______ _____ _____    ______ ____
ROOT
ATOM      1  C   UNL     1     -11.163  15.038  66.787  0.00  0.00    +0.118 C 
ENDROOT
BRANCH   1   3
ATOM      2  O   UNL     1     -10.758  13.442  64.581  0.00  0.00    -0.460 OA
ATOM      3  P   UNL     1     -11.754  13.723  65.696  0.00  0.00    +0.124 P 
ATOM      4  O   UNL     1     -13.267  14.113  65.022  0.00  0.00    -0.357 OA
ATOM      5  O   UNL     1     -11.980  12.350  66.675  0.00  0.00    -0.357 OA
ENDBRANCH   1   3
BRANCH   1   6
ATOM      6  P   UNL     1     -10.433  16.413  65.893  0.00  0.00    +0.124 P 
ATOM      7  O   UNL     1     -10.460  17.857  66.792  0.00  0.00    -0.357 OA
ATOM      8  O   UNL     1     -11.199  16.695  64.420  0.00  0.00    -0.357 OA
ATOM      9  O   UNL     1      -8.963  16.157  65.598  0.00  0.00    -0.460 OA
ENDBRANCH   1   6
TORSDOF 2
ENDMDL
MODEL 9
REMARK VINA RESULT:      -4.0      5.715      6.928
REMARK  Name = 
REMARK  2 active torsions:
REMARK  status: ('A' for Active; 'I' for Inactive)
REMARK    1  A    between atoms: P_2  and  C_5
REMARK    2  A    between atoms: C_5  and  P_6
REMARK                            x       y       z     vdW  Elec       q    Type
REMARK                         _______ _______ _______ _____ _____    ______ ____
ROOT
ATOM      1  C   UNL     1     -11.626  15.626  71.800  0.00  0.00    +0.118 C 
ENDROOT
BRANCH   1   3
ATOM      2  O   UNL     1     -13.372  13.807  72.904  0.00  0.00    -0.460 OA
ATOM      3  P   UNL     1     -13.251  15.270  72.507  0.00  0.00    +0.124 P 
ATOM      4  O   UNL     1     -14.498  15.669  71.418  0.00  0.00    -0.357 OA
ATOM      5  O   UNL     1     -13.422  16.288  73.859  0.00  0.00    -0.357 OA
ENDBRANCH   1   3
BRANCH   1   6
ATOM      6  P   UNL     1     -11.508  15.192  70.062  0.00  0.00    +0.124 P 
ATOM      7  O   UNL     1     -12.307  13.733  69.703  0.00  0.00    -0.357 OA
ATOM      8  O   UNL     1      -9.911  15.058  69.545  0.00  0.00    -0.357 OA
ATOM      9  O   UNL     1     -12.182  16.238  69.188  0.00  0.00    -0.460 OA
ENDBRANCH   1   6
TORSDOF 2
ENDMDL
