MODEL 1
REMARK VINA RESULT:      -3.9      0.000      0.000
REMARK  Name = 
REMARK  3 active torsions:
REMARK  status: ('A' for Active; 'I' for Inactive)
REMARK    1  A    between atoms: C_2  and  C_4
REMARK    2  A    between atoms: C_4  and  C_6
REMARK    3  A    between atoms: C_6  and  C_8
REMARK                            x       y       z     vdW  Elec       q    Type
REMARK                         _______ _______ _______ _____ _____    ______ ____
ROOT
ATOM      1  C   UNL     1     -12.002  13.738  66.342  0.00  0.00    +0.182 C 
ATOM      2  S   UNL     1     -11.370  15.007  67.600  0.00  0.00    -0.070 S 
ENDROOT
BRANCH   1   4
ATOM      3  O   UNL     1     -10.434  12.687  67.296  0.00  0.00    -0.245 OA
ATOM      4  C   UNL     1     -11.227  12.508  66.890  0.00  0.00    +0.377 C 
ATOM      5  O   UNL     1     -11.961  11.405  67.339  0.00  0.00    -0.245 OA
ENDBRANCH   1   4
BRANCH   1   6
ATOM      6  C   UNL     1     -10.895  14.104  65.203  0.00  0.00    +0.182 C 
ATOM      7  S   UNL     1     -11.465  12.771  63.981  0.00  0.00    -0.070 S 
BRANCH   6   8
ATOM      8  C   UNL     1     -11.709  15.267  64.578  0.00  0.00    +0.377 C 
ATOM      9  O   UNL     1     -10.996  16.455  64.391  0.00  0.00    -0.245 OA
ATOM     10  O   UNL     1     -12.713  15.023  63.884  0.00  0.00    -0.245 OA
ENDBRANCH   6   8
ENDBRANCH   1   6
TORSDOF 3
ENDMDL
MODEL 2
REMARK VINA RESULT:      -3.9      0.998      2.451
REMARK  Name = 
REMARK  3 active torsions:
REMARK  status: ('A' for Active; 'I' for Inactive)
REMARK    1  A    between atoms: C_2  and  C_4
REMARK    2  A    between atoms: C_4  and  C_6
REMARK    3  A    between atoms: C_6  and  C_8
REMARK                            x       y       z     vdW  Elec       q    Type
REMARK                         _______ _______ _______ _____ _____    ______ ____
ROOT
ATOM      1  C   UNL     1     -10.681  13.434  65.494  0.00  0.00    +0.182 C 
ATOM      2  S   UNL     1     -11.445  12.835  63.865  0.00  0.00    -0.070 S 
ENDROOT
BRANCH   1   4
ATOM      3  O   UNL     1     -12.232  12.148  66.138  0.00  0.00    -0.245 OA
ATOM      4  C   UNL     1     -11.432  12.456  66.439  0.00  0.00    +0.377 C 
ATOM      5  O   UNL     1     -10.677  11.620  67.268  0.00  0.00    -0.245 OA
ENDBRANCH   1   4
BRANCH   1   6
ATOM      6  C   UNL     1     -11.733  14.662  65.700  0.00  0.00    +0.182 C 
ATOM      7  S   UNL     1     -11.071  15.162  67.406  0.00  0.00    -0.070 S 
BRANCH   6   8
ATOM      8  C   UNL     1     -10.909  15.695  64.889  0.00  0.00    +0.377 C 
ATOM      9  O   UNL     1     -11.647  16.459  63.980  0.00  0.00    -0.245 OA
ATOM     10  O   UNL     1      -9.832  16.128  65.340  0.00  0.00    -0.245 OA
ENDBRANCH   6   8
ENDBRANCH   1   6
TORSDOF 3
ENDMDL
MODEL 3
REMARK VINA RESULT:      -3.8      0.855      3.798
REMARK  Name = 
REMARK  3 active torsions:
REMARK  status: ('A' for Active; 'I' for Inactive)
REMARK    1  A    between atoms: C_2  and  C_4
REMARK    2  A    between atoms: C_4  and  C_6
REMARK    3  A    between atoms: C_6  and  C_8
REMARK                            x       y       z     vdW  Elec       q    Type
REMARK                         _______ _______ _______ _____ _____    ______ ____
ROOT
ATOM      1  C   UNL     1     -10.860  14.270  64.995  0.00  0.00    +0.182 C 
ATOM      2  S   UNL     1     -11.137  14.995  66.724  0.00  0.00    -0.070 S 
ENDROOT
BRANCH   1   4
ATOM      3  O   UNL     1     -12.647  15.063  64.188  0.00  0.00    -0.245 OA
ATOM      4  C   UNL     1     -11.762  15.265  64.213  0.00  0.00    +0.377 C 
ATOM      5  O   UNL     1     -11.394  16.614  64.185  0.00  0.00    -0.245 OA
ENDBRANCH   1   4
BRANCH   1   6
ATOM      6  C   UNL     1     -12.009  13.122  65.137  0.00  0.00    +0.182 C 
ATOM      7  S   UNL     1     -11.462  12.150  63.604  0.00  0.00    -0.070 S 
BRANCH   6   8
ATOM      8  C   UNL     1     -11.231  12.265  66.168  0.00  0.00    +0.377 C 
ATOM      9  O   UNL     1     -12.022  11.641  67.136  0.00  0.00    -0.245 OA
ATOM     10  O   UNL     1     -10.115  11.798  65.876  0.00  0.00    -0.245 OA
ENDBRANCH   6   8
ENDBRANCH   1   6
TORSDOF 3
ENDMDL
MODEL 4
REMARK VINA RESULT:      -3.5      1.225      4.201
REMARK  Name = 
REMARK  3 active torsions:
REMARK  status: ('A' for Active; 'I' for Inactive)
REMARK    1  A    between atoms: C_2  and  C_4
REMARK    2  A    between atoms: C_4  and  C_6
REMARK    3  A    between atoms: C_6  and  C_8
REMARK                            x       y       z     vdW  Elec       q    Type
REMARK                         _______ _______ _______ _____ _____    ______ ____
ROOT
ATOM      1  C   UNL     1     -12.025  12.912  65.441  0.00  0.00    +0.182 C 
ATOM      2  S   UNL     1     -11.136  11.840  64.155  0.00  0.00    -0.070 S 
ENDROOT
BRANCH   1   4
ATOM      3  O   UNL     1     -10.808  14.450  64.652  0.00  0.00    -0.245 OA
ATOM      4  C   UNL     1     -11.687  14.295  64.819  0.00  0.00    +0.377 C 
ATOM      5  O   UNL     1     -12.631  14.897  63.982  0.00  0.00    -0.245 OA
ENDBRANCH   1   4
BRANCH   1   6
ATOM      6  C   UNL     1     -10.784  12.926  66.497  0.00  0.00    +0.182 C 
ATOM      7  S   UNL     1     -11.745  13.808  67.873  0.00  0.00    -0.070 S 
BRANCH   6   8
ATOM      8  C   UNL     1     -11.023  11.486  67.020  0.00  0.00    +0.377 C 
ATOM      9  O   UNL     1      -9.863  10.736  67.239  0.00  0.00    -0.245 OA
ATOM     10  O   UNL     1     -12.072  11.209  67.631  0.00  0.00    -0.245 OA
ENDBRANCH   6   8
ENDBRANCH   1   6
TORSDOF 3
ENDMDL
MODEL 5
REMARK VINA RESULT:      -3.5      2.198      3.476
REMARK  Name = 
REMARK  3 active torsions:
REMARK  status: ('A' for Active; 'I' for Inactive)
REMARK    1  A    between atoms: C_2  and  C_4
REMARK    2  A    between atoms: C_4  and  C_6
REMARK    3  A    between atoms: C_6  and  C_8
REMARK                            x       y       z     vdW  Elec       q    Type
REMARK                         _______ _______ _______ _____ _____    ______ ____
ROOT
ATOM      1  C   UNL     1     -11.177  13.492  65.773  0.00  0.00    +0.182 C 
ATOM      2  S   UNL     1     -10.865  15.242  65.115  0.00  0.00    -0.070 S 
ENDROOT
BRANCH   1   4
ATOM      3  O   UNL     1     -13.118  14.179  65.290  0.00  0.00    -0.245 OA
ATOM      4  C   UNL     1     -12.674  13.390  65.372  0.00  0.00    +0.377 C 
ATOM      5  O   UNL     1     -13.075  12.323  64.562  0.00  0.00    -0.245 OA
ENDBRANCH   1   4
BRANCH   1   6
ATOM      6  C   UNL     1     -11.473  13.966  67.304  0.00  0.00    +0.182 C 
ATOM      7  S   UNL     1     -11.597  12.207  68.002  0.00  0.00    -0.070 S 
BRANCH   6   8
ATOM      8  C   UNL     1      -9.985  14.192  67.676  0.00  0.00    +0.377 C 
ATOM      9  O   UNL     1      -9.752  15.236  68.576  0.00  0.00    -0.245 OA
ATOM     10  O   UNL     1      -9.168  13.259  67.575  0.00  0.00    -0.245 OA
ENDBRANCH   6   8
ENDBRANCH   1   6
TORSDOF 3
ENDMDL
MODEL 6
REMARK VINA RESULT:      -3.5      1.625      4.084
REMARK  Name = 
REMARK  3 active torsions:
REMARK  status: ('A' for Active; 'I' for Inactive)
REMARK    1  A    between atoms: C_2  and  C_4
REMARK    2  A    between atoms: C_4  and  C_6
REMARK    3  A    between atoms: C_6  and  C_8
REMARK                            x       y       z     vdW  Elec       q    Type
REMARK                         _______ _______ _______ _____ _____    ______ ____
ROOT
ATOM      1  C   UNL     1     -11.518  14.715  65.754  0.00  0.00    +0.182 C 
ATOM      2  S   UNL     1     -12.340  13.041  65.419  0.00  0.00    -0.070 S 
ENDROOT
BRANCH   1   4
ATOM      3  O   UNL     1     -12.538  15.040  63.930  0.00  0.00    -0.245 OA
ATOM      4  C   UNL     1     -11.814  15.364  64.374  0.00  0.00    +0.377 C 
ATOM      5  O   UNL     1     -11.474  16.708  64.184  0.00  0.00    -0.245 OA
ENDBRANCH   1   4
BRANCH   1   6
ATOM      6  C   UNL     1     -10.017  14.218  65.355  0.00  0.00    +0.182 C 
ATOM      7  S   UNL     1      -9.134  15.684  66.170  0.00  0.00    -0.070 S 
BRANCH   6   8
ATOM      8  C   UNL     1      -9.865  13.242  66.550  0.00  0.00    +0.377 C 
ATOM      9  O   UNL     1      -9.146  12.076  66.273  0.00  0.00    -0.245 OA
ATOM     10  O   UNL     1      -9.943  13.668  67.717  0.00  0.00    -0.245 OA
ENDBRANCH   6   8
ENDBRANCH   1   6
TORSDOF 3
ENDMDL
MODEL 7
REMARK VINA RESULT:      -3.4      2.258      2.956
REMARK  Name = 
REMARK  3 active torsions:
REMARK  status: ('A' for Active; 'I' for Inactive)
REMARK    1  A    between atoms: C_2  and  C_4
REMARK    2  A    between atoms: C_4  and  C_6
REMARK    3  A    between atoms: C_6  and  C_8
REMARK                            x       y       z     vdW  Elec       q    Type
REMARK                         _______ _______ _______ _____ _____    ______ ____
ROOT
ATOM      1  C   UNL     1     -11.985  14.027  66.911  0.00  0.00    +0.182 C 
ATOM      2  S   UNL     1     -11.690  12.928  68.427  0.00  0.00    -0.070 S 
ENDROOT
BRANCH   1   4
ATOM      3  O   UNL     1     -11.966  12.049  66.162  0.00  0.00    -0.245 OA
ATOM      4  C   UNL     1     -12.146  12.889  65.866  0.00  0.00    +0.377 C 
ATOM      5  O   UNL     1     -13.108  13.039  64.862  0.00  0.00    -0.245 OA
ENDBRANCH   1   4
BRANCH   1   6
ATOM      6  C   UNL     1     -10.403  14.274  66.605  0.00  0.00    +0.182 C 
ATOM      7  S   UNL     1     -10.696  15.531  65.216  0.00  0.00    -0.070 S 
BRANCH   6   8
ATOM      8  C   UNL     1     -10.198  15.316  67.735  0.00  0.00    +0.377 C 
ATOM      9  O   UNL     1      -8.947  15.275  68.358  0.00  0.00    -0.245 OA
ATOM     10  O   UNL     1     -10.870  16.364  67.747  0.00  0.00    -0.245 OA
ENDBRANCH   6   8
ENDBRANCH   1   6
TORSDOF 3
ENDMDL
MODEL 8
REMARK VINA RESULT:      -3.4      1.456      1.905
REMARK  Name = 
REMARK  3 active torsions:
REMARK  status: ('A' for Active; 'I' for Inactive)
REMARK    1  A    between atoms: C_2  and  C_4
REMARK    2  A    between atoms: C_4  and  C_6
REMARK    3  A    between atoms: C_6  and  C_8
REMARK                            x       y       z     vdW  Elec       q    Type
REMARK                         _______ _______ _______ _____ _____    ______ ____
ROOT
ATOM      1  C   UNL     1     -11.329  12.726  66.312  0.00  0.00    +0.182 C 
ATOM      2  S   UNL     1     -11.598  14.360  67.234  0.00  0.00    -0.070 S 
ENDROOT
BRANCH   1   4
ATOM      3  O   UNL     1      -9.407  13.150  67.085  0.00  0.00    -0.245 OA
ATOM      4  C   UNL     1      -9.901  12.427  66.845  0.00  0.00    +0.377 C 
ATOM      5  O   UNL     1      -9.685  11.227  67.531  0.00  0.00    -0.245 OA
ENDBRANCH   1   4
BRANCH   1   6
ATOM      6  C   UNL     1     -10.818  13.425  64.930  0.00  0.00    +0.182 C 
ATOM      7  S   UNL     1     -10.371  11.794  64.074  0.00  0.00    -0.070 S 
BRANCH   6   8
ATOM      8  C   UNL     1     -12.231  13.562  64.307  0.00  0.00    +0.377 C 
ATOM      9  O   UNL     1     -13.141  12.568  64.679  0.00  0.00    -0.245 OA
ATOM     10  O   UNL     1     -12.640  14.675  63.926  0.00  0.00    -0.245 OA
ENDBRANCH   6   8
ENDBRANCH   1   6
TORSDOF 3
ENDMDL
MODEL 9
REMARK VINA RESULT:      -3.4      2.172      3.875
REMARK  Name = 
REMARK  3 active torsions:
REMARK  status: ('A' for Active; 'I' for Inactive)
REMARK    1  A    between atoms: C_2  and  C_4
REMARK    2  A    between atoms: C_4  and  C_6
REMARK    3  A    between atoms: C_6  and  C_8
REMARK                            x       y       z     vdW  Elec       q    Type
REMARK                         _______ _______ _______ _____ _____    ______ ____
ROOT
ATOM      1  C   UNL     1     -11.093  13.038  65.344  0.00  0.00    +0.182 C 
ATOM      2  S   UNL     1     -11.972  14.054  66.681  0.00  0.00    -0.070 S 
ENDROOT
BRANCH   1   4
ATOM      3  O   UNL     1     -13.134  12.631  64.966  0.00  0.00    -0.245 OA
ATOM      4  C   UNL     1     -12.351  12.676  64.507  0.00  0.00    +0.377 C 
ATOM      5  O   UNL     1     -12.396  13.076  63.168  0.00  0.00    -0.245 OA
ENDBRANCH   1   4
BRANCH   1   6
ATOM      6  C   UNL     1     -11.090  11.650  66.199  0.00  0.00    +0.182 C 
ATOM      7  S   UNL     1     -10.088  10.670  64.923  0.00  0.00    -0.070 S 
BRANCH   6   8
ATOM      8  C   UNL     1      -9.888  12.037  67.099  0.00  0.00    +0.377 C 
ATOM      9  O   UNL     1      -9.961  11.573  68.416  0.00  0.00    -0.245 OA
ATOM     10  O   UNL     1      -8.783  12.295  66.586  0.00  0.00    -0.245 OA
ENDBRANCH   6   8
ENDBRANCH   1   6
TORSDOF 3
ENDMDL
