MODEL 1
REMARK VINA RESULT:      -8.3      0.000      0.000
REMARK  Name = 
REMARK  9 active torsions:
REMARK  status: ('A' for Active; 'I' for Inactive)
REMARK    1  A    between atoms: C_2  and  N_3
REMARK    2  A    between atoms: N_3  and  C_4
REMARK    3  A    between atoms: N_3  and  C_6
REMARK    4  A    between atoms: C_9  and  C_10
REMARK    5  A    between atoms: C_10  and  C_11
REMARK    6  A    between atoms: C_13  and  S_14
REMARK    7  A    between atoms: C_20  and  S_21
REMARK    8  A    between atoms: N_29  and  C_30
REMARK    9  A    between atoms: N_29  and  C_32
REMARK                            x       y       z     vdW  Elec       q    Type
REMARK                         _______ _______ _______ _____ _____    ______ ____
ROOT
ATOM      1  C   UNL     1     -10.242  15.116  66.660  0.00  0.00    +0.001 C 
ATOM      2  C   UNL     1      -9.328  16.063  66.427  0.00  0.00    +0.000 C 
ATOM      3  C   UNL     1      -9.824  17.439  66.577  0.00  0.00    +0.006 C 
ATOM      4  C   UNL     1      -8.976  18.406  66.312  0.00  0.00    +0.069 C 
ATOM      5  C   UNL     1      -7.545  18.113  66.329  0.00  0.00    +0.221 C 
ATOM      6  N   UNL     1      -6.697  19.022  65.963  0.00  0.00    -0.189 N 
ATOM      7  C   UNL     1      -7.134  16.899  67.045  0.00  0.00    +0.069 C 
ATOM      8  C   UNL     1      -7.959  15.859  66.920  0.00  0.00    +0.006 C 
ENDROOT
BRANCH   1  12
ATOM      9  C   UNL     1     -11.674  14.773  70.573  0.00  0.00    +0.048 A 
ATOM     10  C   UNL     1     -12.305  14.124  69.518  0.00  0.00    +0.015 A 
ATOM     11  C   UNL     1     -11.922  14.404  68.225  0.00  0.00    +0.001 A 
ATOM     12  C   UNL     1     -10.814  15.217  68.013  0.00  0.00    +0.000 A 
ATOM     13  C   UNL     1     -10.140  15.747  69.079  0.00  0.00    +0.001 A 
ATOM     14  C   UNL     1     -10.846  15.847  70.271  0.00  0.00    +0.015 A 
BRANCH   9  15
ATOM     15  N   UNL     1     -12.439  14.879  71.779  0.00  0.00    -0.307 N 
BRANCH  15  17
ATOM     16  C   UNL     1     -14.811  14.953  71.648  0.00  0.00    +0.023 C 
ATOM     17  C   UNL     1     -13.624  14.076  72.022  0.00  0.00    +0.091 C 
ENDBRANCH  15  17
BRANCH  15  18
ATOM     18  C   UNL     1     -12.093  15.850  72.794  0.00  0.00    +0.091 C 
ATOM     19  C   UNL     1     -12.365  15.302  74.188  0.00  0.00    +0.023 C 
ENDBRANCH  15  18
ENDBRANCH   9  15
ENDBRANCH   1  12
BRANCH   1  20
ATOM     20  C   UNL     1     -10.073  13.743  66.161  0.00  0.00    +0.021 A 
ATOM     21  C   UNL     1     -10.703  13.376  64.979  0.00  0.00    +0.136 A 
ATOM     22  C   UNL     1     -10.304  12.165  64.428  0.00  0.00    +0.022 A 
ATOM     23  C   UNL     1      -9.664  11.191  65.184  0.00  0.00    +0.022 A 
ATOM     24  C   UNL     1      -9.438  11.427  66.534  0.00  0.00    +0.136 A 
ATOM     25  C   UNL     1      -9.462  12.752  66.913  0.00  0.00    +0.022 A 
BRANCH  24  26
ATOM     26  S   UNL     1      -9.538  10.130  67.719  0.00  0.00    +0.141 S 
ATOM     27  O   UNL     1     -10.487   8.867  67.167  0.00  0.00    -0.043 OA
ATOM     28  O   UNL     1      -8.132   9.661  67.984  0.00  0.00    -0.140 OA
ATOM     29  O   UNL     1     -10.056  10.675  69.030  0.00  0.00    -0.140 OA
ENDBRANCH  24  26
BRANCH  21  30
ATOM     30  S   UNL     1     -12.116  14.216  64.409  0.00  0.00    +0.141 S 
ATOM     31  O   UNL     1     -12.656  13.521  62.962  0.00  0.00    -0.043 OA
ATOM     32  O   UNL     1     -11.805  15.653  64.053  0.00  0.00    -0.140 OA
ATOM     33  O   UNL     1     -13.272  14.116  65.360  0.00  0.00    -0.140 OA
ENDBRANCH  21  30
ENDBRANCH   1  20
BRANCH   6  34
ATOM     34  C   UNL     1      -5.928  18.771  64.748  0.00  0.00    +0.317 C 
ATOM     35  C   UNL     1      -5.893  20.014  63.874  0.00  0.00    +0.092 C 
ENDBRANCH   6  34
BRANCH   6  36
ATOM     36  C   UNL     1      -6.925  20.411  66.299  0.00  0.00    +0.317 C 
ATOM     37  C   UNL     1      -6.342  20.785  67.634  0.00  0.00    +0.092 C 
ENDBRANCH   6  36
TORSDOF 9
ENDMDL
MODEL 2
REMARK VINA RESULT:      -7.1      2.654      3.521
REMARK  Name = 
REMARK  9 active torsions:
REMARK  status: ('A' for Active; 'I' for Inactive)
REMARK    1  A    between atoms: C_2  and  N_3
REMARK    2  A    between atoms: N_3  and  C_4
REMARK    3  A    between atoms: N_3  and  C_6
REMARK    4  A    between atoms: C_9  and  C_10
REMARK    5  A    between atoms: C_10  and  C_11
REMARK    6  A    between atoms: C_13  and  S_14
REMARK    7  A    between atoms: C_20  and  S_21
REMARK    8  A    between atoms: N_29  and  C_30
REMARK    9  A    between atoms: N_29  and  C_32
REMARK                            x       y       z     vdW  Elec       q    Type
REMARK                         _______ _______ _______ _____ _____    ______ ____
ROOT
ATOM      1  C   UNL     1     -10.775  12.974  66.443  0.00  0.00    +0.001 C 
ATOM      2  C   UNL     1     -10.286  14.191  66.703  0.00  0.00    +0.000 C 
ATOM      3  C   UNL     1     -11.218  15.085  67.407  0.00  0.00    +0.006 C 
ATOM      4  C   UNL     1     -10.801  16.307  67.642  0.00  0.00    +0.069 C 
ATOM      5  C   UNL     1      -9.366  16.580  67.618  0.00  0.00    +0.221 C 
ATOM      6  N   UNL     1      -8.940  17.798  67.737  0.00  0.00    -0.189 N 
ATOM      7  C   UNL     1      -8.477  15.420  67.757  0.00  0.00    +0.069 C 
ATOM      8  C   UNL     1      -8.889  14.311  67.141  0.00  0.00    +0.006 C 
ENDROOT
BRANCH   1  12
ATOM      9  C   UNL     1     -11.364  10.714  69.911  0.00  0.00    +0.048 A 
ATOM     10  C   UNL     1     -11.296  10.107  68.662  0.00  0.00    +0.015 A 
ATOM     11  C   UNL     1     -11.286  10.891  67.528  0.00  0.00    +0.001 A 
ATOM     12  C   UNL     1     -11.196  12.271  67.667  0.00  0.00    +0.000 A 
ATOM     13  C   UNL     1     -11.146  12.833  68.913  0.00  0.00    +0.001 A 
ATOM     14  C   UNL     1     -11.656  12.071  69.957  0.00  0.00    +0.015 A 
BRANCH   9  15
ATOM     15  N   UNL     1     -11.917   9.908  70.958  0.00  0.00    -0.307 N 
BRANCH  15  17
ATOM     16  C   UNL     1     -13.765   9.088  72.206  0.00  0.00    +0.023 C 
ATOM     17  C   UNL     1     -13.032  10.351  71.775  0.00  0.00    +0.091 C 
ENDBRANCH  15  17
BRANCH  15  18
ATOM     18  C   UNL     1     -11.336   8.625  71.290  0.00  0.00    +0.091 C 
ATOM     19  C   UNL     1      -9.918   8.789  71.817  0.00  0.00    +0.023 C 
ENDBRANCH  15  18
ENDBRANCH   9  15
ENDBRANCH   1  12
BRANCH   1  20
ATOM     20  C   UNL     1     -10.187  12.112  65.407  0.00  0.00    +0.021 A 
ATOM     21  C   UNL     1     -10.728  12.135  64.128  0.00  0.00    +0.136 A 
ATOM     22  C   UNL     1      -9.981  11.506  63.140  0.00  0.00    +0.022 A 
ATOM     23  C   UNL     1      -9.006  10.564  63.446  0.00  0.00    +0.022 A 
ATOM     24  C   UNL     1      -8.790  10.226  64.776  0.00  0.00    +0.136 A 
ATOM     25  C   UNL     1      -9.234  11.149  65.698  0.00  0.00    +0.022 A 
BRANCH  24  26
ATOM     26  S   UNL     1      -8.378   8.581  65.247  0.00  0.00    +0.141 S 
ATOM     27  O   UNL     1      -9.555   7.909  66.227  0.00  0.00    -0.043 OA
ATOM     28  O   UNL     1      -8.223   7.783  63.979  0.00  0.00    -0.140 OA
ATOM     29  O   UNL     1      -7.025   8.568  65.922  0.00  0.00    -0.140 OA
ENDBRANCH  24  26
BRANCH  21  30
ATOM     30  S   UNL     1     -12.373  12.629  63.850  0.00  0.00    +0.141 S 
ATOM     31  O   UNL     1     -13.124  11.559  62.775  0.00  0.00    -0.043 OA
ATOM     32  O   UNL     1     -12.442  13.976  63.164  0.00  0.00    -0.140 OA
ATOM     33  O   UNL     1     -13.205  12.598  65.098  0.00  0.00    -0.140 OA
ENDBRANCH  21  30
ENDBRANCH   1  20
BRANCH   6  34
ATOM     34  C   UNL     1      -8.268  18.389  66.584  0.00  0.00    +0.317 C 
ATOM     35  C   UNL     1      -6.785  18.564  66.864  0.00  0.00    +0.092 C 
ENDBRANCH   6  34
BRANCH   6  36
ATOM     36  C   UNL     1      -9.606  18.720  68.631  0.00  0.00    +0.317 C 
ATOM     37  C   UNL     1     -10.085  19.960  67.928  0.00  0.00    +0.092 C 
ENDBRANCH   6  36
TORSDOF 9
ENDMDL
MODEL 3
REMARK VINA RESULT:      -7.0      3.708      7.556
REMARK  Name = 
REMARK  9 active torsions:
REMARK  status: ('A' for Active; 'I' for Inactive)
REMARK    1  A    between atoms: C_2  and  N_3
REMARK    2  A    between atoms: N_3  and  C_4
REMARK    3  A    between atoms: N_3  and  C_6
REMARK    4  A    between atoms: C_9  and  C_10
REMARK    5  A    between atoms: C_10  and  C_11
REMARK    6  A    between atoms: C_13  and  S_14
REMARK    7  A    between atoms: C_20  and  S_21
REMARK    8  A    between atoms: N_29  and  C_30
REMARK    9  A    between atoms: N_29  and  C_32
REMARK                            x       y       z     vdW  Elec       q    Type
REMARK                         _______ _______ _______ _____ _____    ______ ____
ROOT
ATOM      1  C   UNL     1      -9.811  16.550  68.000  0.00  0.00    +0.001 C 
ATOM      2  C   UNL     1     -10.550  16.270  69.078  0.00  0.00    +0.000 C 
ATOM      3  C   UNL     1     -11.950  15.927  68.784  0.00  0.00    +0.006 C 
ATOM      4  C   UNL     1     -12.729  15.691  69.814  0.00  0.00    +0.069 C 
ATOM      5  C   UNL     1     -12.119  15.342  71.095  0.00  0.00    +0.221 C 
ATOM      6  N   UNL     1     -12.862  15.213  72.149  0.00  0.00    -0.189 N 
ATOM      7  C   UNL     1     -10.731  14.866  71.050  0.00  0.00    +0.069 C 
ATOM      8  C   UNL     1      -9.949  15.476  70.158  0.00  0.00    +0.006 C 
ENDROOT
BRANCH   1  12
ATOM      9  C   UNL     1     -10.279  13.175  65.578  0.00  0.00    +0.048 A 
ATOM     10  C   UNL     1      -9.871  13.057  66.901  0.00  0.00    +0.015 A 
ATOM     11  C   UNL     1      -9.550  14.192  67.614  0.00  0.00    +0.001 A 
ATOM     12  C   UNL     1      -9.783  15.435  67.039  0.00  0.00    +0.000 A 
ATOM     13  C   UNL     1     -10.297  15.519  65.773  0.00  0.00    +0.001 A 
ATOM     14  C   UNL     1     -10.121  14.408  64.959  0.00  0.00    +0.015 A 
BRANCH   9  15
ATOM     15  N   UNL     1     -10.061  12.019  64.760  0.00  0.00    -0.307 N 
BRANCH  15  17
ATOM     16  C   UNL     1      -9.908   9.690  65.208  0.00  0.00    +0.023 C 
ATOM     17  C   UNL     1      -9.108  10.983  65.116  0.00  0.00    +0.091 C 
ENDBRANCH  15  17
BRANCH  15  18
ATOM     18  C   UNL     1     -10.747  11.866  63.495  0.00  0.00    +0.091 C 
ATOM     19  C   UNL     1     -12.247  12.060  63.662  0.00  0.00    +0.023 C 
ENDBRANCH  15  18
ENDBRANCH   9  15
ENDBRANCH   1  12
BRANCH   1  20
ATOM     20  C   UNL     1      -8.555  17.308  68.103  0.00  0.00    +0.021 A 
ATOM     21  C   UNL     1      -8.596  18.693  68.011  0.00  0.00    +0.136 A 
ATOM     22  C   UNL     1      -7.433  19.362  68.370  0.00  0.00    +0.022 A 
ATOM     23  C   UNL     1      -6.199  18.722  68.401  0.00  0.00    +0.022 A 
ATOM     24  C   UNL     1      -6.126  17.383  68.040  0.00  0.00    +0.136 A 
ATOM     25  C   UNL     1      -7.315  16.689  68.107  0.00  0.00    +0.022 A 
BRANCH  24  26
ATOM     26  S   UNL     1      -4.736  16.745  67.169  0.00  0.00    +0.141 S 
ATOM     27  O   UNL     1      -4.647  15.079  67.292  0.00  0.00    -0.043 OA
ATOM     28  O   UNL     1      -4.883  17.164  65.730  0.00  0.00    -0.140 OA
ATOM     29  O   UNL     1      -3.472  17.403  67.673  0.00  0.00    -0.140 OA
ENDBRANCH  24  26
BRANCH  21  30
ATOM     30  S   UNL     1      -9.900  19.507  67.197  0.00  0.00    +0.141 S 
ATOM     31  O   UNL     1      -9.986  18.992  65.586  0.00  0.00    -0.043 OA
ATOM     32  O   UNL     1      -9.660  20.998  67.112  0.00  0.00    -0.140 OA
ATOM     33  O   UNL     1     -11.241  19.193  67.793  0.00  0.00    -0.140 OA
ENDBRANCH  21  30
ENDBRANCH   1  20
BRANCH   6  34
ATOM     34  C   UNL     1     -12.674  16.182  73.224  0.00  0.00    +0.317 C 
ATOM     35  C   UNL     1     -12.424  15.471  74.544  0.00  0.00    +0.092 C 
ENDBRANCH   6  34
BRANCH   6  36
ATOM     36  C   UNL     1     -14.177  14.619  72.046  0.00  0.00    +0.317 C 
ATOM     37  C   UNL     1     -14.156  13.131  72.259  0.00  0.00    +0.092 C 
ENDBRANCH   6  36
TORSDOF 9
ENDMDL
MODEL 4
REMARK VINA RESULT:      -6.9      4.136      7.703
REMARK  Name = 
REMARK  9 active torsions:
REMARK  status: ('A' for Active; 'I' for Inactive)
REMARK    1  A    between atoms: C_2  and  N_3
REMARK    2  A    between atoms: N_3  and  C_4
REMARK    3  A    between atoms: N_3  and  C_6
REMARK    4  A    between atoms: C_9  and  C_10
REMARK    5  A    between atoms: C_10  and  C_11
REMARK    6  A    between atoms: C_13  and  S_14
REMARK    7  A    between atoms: C_20  and  S_21
REMARK    8  A    between atoms: N_29  and  C_30
REMARK    9  A    between atoms: N_29  and  C_32
REMARK                            x       y       z     vdW  Elec       q    Type
REMARK                         _______ _______ _______ _____ _____    ______ ____
ROOT
ATOM      1  C   UNL     1      -9.852  10.835  68.158  0.00  0.00    +0.001 C 
ATOM      2  C   UNL     1      -9.625   9.625  68.677  0.00  0.00    +0.000 C 
ATOM      3  C   UNL     1      -8.901   9.637  69.958  0.00  0.00    +0.006 C 
ATOM      4  C   UNL     1      -8.610   8.469  70.484  0.00  0.00    +0.069 C 
ATOM      5  C   UNL     1      -9.366   7.295  70.054  0.00  0.00    +0.221 C 
ATOM      6  N   UNL     1      -9.024   6.119  70.477  0.00  0.00    -0.189 N 
ATOM      7  C   UNL     1     -10.656   7.549  69.401  0.00  0.00    +0.069 C 
ATOM      8  C   UNL     1     -10.684   8.611  68.594  0.00  0.00    +0.006 C 
ENDROOT
BRANCH   1  12
ATOM      9  C   UNL     1     -12.338  13.498  70.210  0.00  0.00    +0.048 A 
ATOM     10  C   UNL     1     -11.293  13.958  69.418  0.00  0.00    +0.015 A 
ATOM     11  C   UNL     1     -10.384  13.057  68.906  0.00  0.00    +0.001 A 
ATOM     12  C   UNL     1     -10.620  11.697  69.073  0.00  0.00    +0.000 A 
ATOM     13  C   UNL     1     -11.724  11.272  69.759  0.00  0.00    +0.001 A 
ATOM     14  C   UNL     1     -12.290  12.180  70.646  0.00  0.00    +0.015 A 
BRANCH   9  15
ATOM     15  N   UNL     1     -12.882  14.452  71.129  0.00  0.00    -0.307 N 
BRANCH  15  17
ATOM     16  C   UNL     1     -15.189  14.943  71.419  0.00  0.00    +0.023 C 
ATOM     17  C   UNL     1     -14.017  14.152  71.984  0.00  0.00    +0.091 C 
ENDBRANCH  15  17
BRANCH  15  18
ATOM     18  C   UNL     1     -12.352  15.797  71.200  0.00  0.00    +0.091 C 
ATOM     19  C   UNL     1     -11.976  16.159  72.630  0.00  0.00    +0.023 C 
ENDBRANCH  15  18
ENDBRANCH   9  15
ENDBRANCH   1  12
BRANCH   1  20
ATOM     20  C   UNL     1     -10.163  11.017  66.733  0.00  0.00    +0.021 A 
ATOM     21  C   UNL     1      -9.258  10.557  65.784  0.00  0.00    +0.136 A 
ATOM     22  C   UNL     1      -9.717  10.521  64.474  0.00  0.00    +0.022 A 
ATOM     23  C   UNL     1     -10.809  11.273  64.058  0.00  0.00    +0.022 A 
ATOM     24  C   UNL     1     -11.446  12.100  64.975  0.00  0.00    +0.136 A 
ATOM     25  C   UNL     1     -11.232  11.785  66.300  0.00  0.00    +0.022 A 
BRANCH  24  26
ATOM     26  S   UNL     1     -12.111  13.657  64.495  0.00  0.00    +0.141 S 
ATOM     27  O   UNL     1     -10.985  14.883  64.663  0.00  0.00    -0.043 OA
ATOM     28  O   UNL     1     -12.547  13.529  63.060  0.00  0.00    -0.140 OA
ATOM     29  O   UNL     1     -13.362  13.945  65.293  0.00  0.00    -0.140 OA
ENDBRANCH  24  26
BRANCH  21  30
ATOM     30  S   UNL     1      -7.574  10.353  66.166  0.00  0.00    +0.141 S 
ATOM     31  O   UNL     1      -6.648  10.413  64.749  0.00  0.00    -0.043 OA
ATOM     32  O   UNL     1      -7.296   8.984  66.749  0.00  0.00    -0.140 OA
ATOM     33  O   UNL     1      -7.042  11.448  67.043  0.00  0.00    -0.140 OA
ENDBRANCH  21  30
ENDBRANCH   1  20
BRANCH   6  34
ATOM     34  C   UNL     1      -8.516   5.172  69.489  0.00  0.00    +0.317 C 
ATOM     35  C   UNL     1      -7.314   5.753  68.764  0.00  0.00    +0.092 C 
ENDBRANCH   6  34
BRANCH   6  36
ATOM     36  C   UNL     1      -8.553   5.939  71.834  0.00  0.00    +0.317 C 
ATOM     37  C   UNL     1      -9.500   5.123  72.670  0.00  0.00    +0.092 C 
ENDBRANCH   6  36
TORSDOF 9
ENDMDL
MODEL 5
REMARK VINA RESULT:      -6.3      3.850      8.261
REMARK  Name = 
REMARK  9 active torsions:
REMARK  status: ('A' for Active; 'I' for Inactive)
REMARK    1  A    between atoms: C_2  and  N_3
REMARK    2  A    between atoms: N_3  and  C_4
REMARK    3  A    between atoms: N_3  and  C_6
REMARK    4  A    between atoms: C_9  and  C_10
REMARK    5  A    between atoms: C_10  and  C_11
REMARK    6  A    between atoms: C_13  and  S_14
REMARK    7  A    between atoms: C_20  and  S_21
REMARK    8  A    between atoms: N_29  and  C_30
REMARK    9  A    between atoms: N_29  and  C_32
REMARK                            x       y       z     vdW  Elec       q    Type
REMARK                         _______ _______ _______ _____ _____    ______ ____
ROOT
ATOM      1  C   UNL     1      -9.296  10.728  67.772  0.00  0.00    +0.001 C 
ATOM      2  C   UNL     1      -9.914  10.028  68.727  0.00  0.00    +0.000 C 
ATOM      3  C   UNL     1      -9.029   9.545  69.798  0.00  0.00    +0.006 C 
ATOM      4  C   UNL     1      -9.581   8.810  70.736  0.00  0.00    +0.069 C 
ATOM      5  C   UNL     1     -11.027   8.881  70.927  0.00  0.00    +0.221 C 
ATOM      6  N   UNL     1     -11.606   8.086  71.770  0.00  0.00    -0.189 N 
ATOM      7  C   UNL     1     -11.704  10.058  70.368  0.00  0.00    +0.069 C 
ATOM      8  C   UNL     1     -11.231  10.481  69.194  0.00  0.00    +0.006 C 
ENDROOT
BRANCH   1  12
ATOM      9  C   UNL     1      -6.916  14.018  68.769  0.00  0.00    +0.048 A 
ATOM     10  C   UNL     1      -6.428  12.721  68.875  0.00  0.00    +0.015 A 
ATOM     11  C   UNL     1      -7.291  11.658  68.717  0.00  0.00    +0.001 A 
ATOM     12  C   UNL     1      -8.596  11.907  68.309  0.00  0.00    +0.000 A 
ATOM     13  C   UNL     1      -9.015  13.192  68.099  0.00  0.00    +0.001 A 
ATOM     14  C   UNL     1      -8.294  14.191  68.740  0.00  0.00    +0.015 A 
BRANCH   9  15
ATOM     15  N   UNL     1      -6.162  15.019  69.463  0.00  0.00    -0.307 N 
BRANCH  15  17
ATOM     16  C   UNL     1      -5.625  17.132  68.517  0.00  0.00    +0.023 C 
ATOM     17  C   UNL     1      -6.558  16.416  69.484  0.00  0.00    +0.091 C 
ENDBRANCH  15  17
BRANCH  15  18
ATOM     18  C   UNL     1      -4.922  14.683  70.129  0.00  0.00    +0.091 C 
ATOM     19  C   UNL     1      -5.061  14.822  71.639  0.00  0.00    +0.023 C 
ENDBRANCH  15  18
ENDBRANCH   9  15
ENDBRANCH   1  12
BRANCH   1  20
ATOM     20  C   UNL     1      -9.900  10.921  66.445  0.00  0.00    +0.021 A 
ATOM     21  C   UNL     1      -9.309  10.318  65.343  0.00  0.00    +0.136 A 
ATOM     22  C   UNL     1     -10.057  10.319  64.173  0.00  0.00    +0.022 A 
ATOM     23  C   UNL     1     -11.106  11.209  63.975  0.00  0.00    +0.022 A 
ATOM     24  C   UNL     1     -11.398  12.138  64.967  0.00  0.00    +0.136 A 
ATOM     25  C   UNL     1     -10.928  11.824  66.224  0.00  0.00    +0.022 A 
BRANCH  24  26
ATOM     26  S   UNL     1     -11.942  13.763  64.566  0.00  0.00    +0.141 S 
ATOM     27  O   UNL     1     -10.711  14.882  64.741  0.00  0.00    -0.043 OA
ATOM     28  O   UNL     1     -12.431  13.729  63.142  0.00  0.00    -0.140 OA
ATOM     29  O   UNL     1     -13.139  14.124  65.415  0.00  0.00    -0.140 OA
ENDBRANCH  24  26
BRANCH  21  30
ATOM     30  S   UNL     1      -7.624   9.884  65.346  0.00  0.00    +0.141 S 
ATOM     31  O   UNL     1      -7.194   9.226  63.846  0.00  0.00    -0.043 OA
ATOM     32  O   UNL     1      -7.333   8.786  66.346  0.00  0.00    -0.140 OA
ATOM     33  O   UNL     1      -6.722  11.067  65.541  0.00  0.00    -0.140 OA
ENDBRANCH  21  30
ENDBRANCH   1  20
BRANCH   6  34
ATOM     34  C   UNL     1     -12.524   7.088  71.229  0.00  0.00    +0.317 C 
ATOM     35  C   UNL     1     -13.959   7.437  71.586  0.00  0.00    +0.092 C 
ENDBRANCH   6  34
BRANCH   6  36
ATOM     36  C   UNL     1     -10.955   7.745  73.017  0.00  0.00    +0.317 C 
ATOM     37  C   UNL     1     -10.772   6.263  73.187  0.00  0.00    +0.092 C 
ENDBRANCH   6  36
TORSDOF 9
ENDMDL
MODEL 6
REMARK VINA RESULT:      -6.2      2.790      3.754
REMARK  Name = 
REMARK  9 active torsions:
REMARK  status: ('A' for Active; 'I' for Inactive)
REMARK    1  A    between atoms: C_2  and  N_3
REMARK    2  A    between atoms: N_3  and  C_4
REMARK    3  A    between atoms: N_3  and  C_6
REMARK    4  A    between atoms: C_9  and  C_10
REMARK    5  A    between atoms: C_10  and  C_11
REMARK    6  A    between atoms: C_13  and  S_14
REMARK    7  A    between atoms: C_20  and  S_21
REMARK    8  A    between atoms: N_29  and  C_30
REMARK    9  A    between atoms: N_29  and  C_32
REMARK                            x       y       z     vdW  Elec       q    Type
REMARK                         _______ _______ _______ _____ _____    ______ ____
ROOT
ATOM      1  C   UNL     1      -9.750  12.755  66.746  0.00  0.00    +0.001 C 
ATOM      2  C   UNL     1      -9.001  13.827  67.018  0.00  0.00    +0.000 C 
ATOM      3  C   UNL     1      -9.639  14.805  67.913  0.00  0.00    +0.006 C 
ATOM      4  C   UNL     1      -8.962  15.900  68.172  0.00  0.00    +0.069 C 
ATOM      5  C   UNL     1      -7.516  15.901  67.959  0.00  0.00    +0.221 C 
ATOM      6  N   UNL     1      -6.845  17.000  68.103  0.00  0.00    -0.189 N 
ATOM      7  C   UNL     1      -6.864  14.587  67.885  0.00  0.00    +0.069 C 
ATOM      8  C   UNL     1      -7.563  13.641  67.257  0.00  0.00    +0.006 C 
ENDROOT
BRANCH   1  12
ATOM      9  C   UNL     1     -11.254  10.332  69.804  0.00  0.00    +0.048 A 
ATOM     10  C   UNL     1     -12.046  11.304  69.203  0.00  0.00    +0.015 A 
ATOM     11  C   UNL     1     -11.470  12.204  68.333  0.00  0.00    +0.001 A 
ATOM     12  C   UNL     1     -10.142  12.025  67.964  0.00  0.00    +0.000 A 
ATOM     13  C   UNL     1      -9.420  10.986  68.484  0.00  0.00    +0.001 A 
ATOM     14  C   UNL     1      -9.876  10.454  69.683  0.00  0.00    +0.015 A 
BRANCH   9  15
ATOM     15  N   UNL     1     -11.742   9.823  71.050  0.00  0.00    -0.307 N 
BRANCH  15  17
ATOM     16  C   UNL     1     -13.707   9.188  72.226  0.00  0.00    +0.023 C 
ATOM     17  C   UNL     1     -12.908  10.379  71.715  0.00  0.00    +0.091 C 
ENDBRANCH  15  17
BRANCH  15  18
ATOM     18  C   UNL     1     -11.046   8.759  71.740  0.00  0.00    +0.091 C 
ATOM     19  C   UNL     1     -11.073   7.473  70.926  0.00  0.00    +0.023 C 
ENDBRANCH  15  18
ENDBRANCH   9  15
ENDBRANCH   1  12
BRANCH   1  20
ATOM     20  C   UNL     1      -9.483  11.904  65.576  0.00  0.00    +0.021 A 
ATOM     21  C   UNL     1     -10.224  12.102  64.419  0.00  0.00    +0.136 A 
ATOM     22  C   UNL     1      -9.758  11.456  63.280  0.00  0.00    +0.022 A 
ATOM     23  C   UNL     1      -8.897  10.368  63.355  0.00  0.00    +0.022 A 
ATOM     24  C   UNL     1      -8.511   9.899  64.605  0.00  0.00    +0.136 A 
ATOM     25  C   UNL     1      -8.649  10.799  65.640  0.00  0.00    +0.022 A 
BRANCH  24  26
ATOM     26  S   UNL     1      -8.274   8.181  64.905  0.00  0.00    +0.141 S 
ATOM     27  O   UNL     1      -9.462   7.565  65.909  0.00  0.00    -0.043 OA
ATOM     28  O   UNL     1      -8.298   7.490  63.567  0.00  0.00    -0.140 OA
ATOM     29  O   UNL     1      -6.894   7.948  65.476  0.00  0.00    -0.140 OA
ENDBRANCH  24  26
BRANCH  21  30
ATOM     30  S   UNL     1     -11.799  12.838  64.468  0.00  0.00    +0.141 S 
ATOM     31  O   UNL     1     -11.667  14.454  64.954  0.00  0.00    -0.043 OA
ATOM     32  O   UNL     1     -12.683  12.193  65.513  0.00  0.00    -0.140 OA
ATOM     33  O   UNL     1     -12.464  12.874  63.123  0.00  0.00    -0.140 OA
ENDBRANCH  21  30
ENDBRANCH   1  20
BRANCH   6  34
ATOM     34  C   UNL     1      -6.223  17.567  66.910  0.00  0.00    +0.317 C 
ATOM     35  C   UNL     1      -7.274  17.868  65.855  0.00  0.00    +0.092 C 
ENDBRANCH   6  34
BRANCH   6  36
ATOM     36  C   UNL     1      -7.196  17.938  69.147  0.00  0.00    +0.317 C 
ATOM     37  C   UNL     1      -6.250  19.104  69.217  0.00  0.00    +0.092 C 
ENDBRANCH   6  36
TORSDOF 9
ENDMDL
MODEL 7
REMARK VINA RESULT:      -6.2      4.257      7.403
REMARK  Name = 
REMARK  9 active torsions:
REMARK  status: ('A' for Active; 'I' for Inactive)
REMARK    1  A    between atoms: C_2  and  N_3
REMARK    2  A    between atoms: N_3  and  C_4
REMARK    3  A    between atoms: N_3  and  C_6
REMARK    4  A    between atoms: C_9  and  C_10
REMARK    5  A    between atoms: C_10  and  C_11
REMARK    6  A    between atoms: C_13  and  S_14
REMARK    7  A    between atoms: C_20  and  S_21
REMARK    8  A    between atoms: N_29  and  C_30
REMARK    9  A    between atoms: N_29  and  C_32
REMARK                            x       y       z     vdW  Elec       q    Type
REMARK                         _______ _______ _______ _____ _____    ______ ____
ROOT
ATOM      1  C   UNL     1      -8.725  11.390  66.898  0.00  0.00    +0.001 C 
ATOM      2  C   UNL     1      -8.753  10.932  65.643  0.00  0.00    +0.000 C 
ATOM      3  C   UNL     1      -8.172   9.592  65.470  0.00  0.00    +0.006 C 
ATOM      4  C   UNL     1      -8.132   9.118  64.247  0.00  0.00    +0.069 C 
ATOM      5  C   UNL     1      -9.021   9.691  63.239  0.00  0.00    +0.221 C 
ATOM      6  N   UNL     1      -8.922   9.315  62.003  0.00  0.00    -0.189 N 
ATOM      7  C   UNL     1     -10.179  10.443  63.740  0.00  0.00    +0.069 C 
ATOM      8  C   UNL     1      -9.950  11.179  64.829  0.00  0.00    +0.006 C 
ENDROOT
BRANCH   1  12
ATOM      9  C   UNL     1     -10.745   9.376  69.956  0.00  0.00    +0.048 A 
ATOM     10  C   UNL     1      -9.404   9.717  70.085  0.00  0.00    +0.015 A 
ATOM     11  C   UNL     1      -8.723  10.213  68.994  0.00  0.00    +0.001 A 
ATOM     12  C   UNL     1      -9.431  10.496  67.833  0.00  0.00    +0.000 A 
ATOM     13  C   UNL     1     -10.777  10.258  67.775  0.00  0.00    +0.001 A 
ATOM     14  C   UNL     1     -11.280   9.327  68.675  0.00  0.00    +0.015 A 
BRANCH   9  15
ATOM     15  N   UNL     1     -11.224   8.396  70.884  0.00  0.00    -0.307 N 
BRANCH  15  17
ATOM     16  C   UNL     1     -12.916   9.837  71.725  0.00  0.00    +0.023 C 
ATOM     17  C   UNL     1     -11.914   8.756  72.109  0.00  0.00    +0.091 C 
ENDBRANCH  15  17
BRANCH  15  18
ATOM     18  C   UNL     1     -10.980   6.986  70.665  0.00  0.00    +0.091 C 
ATOM     19  C   UNL     1     -11.635   6.146  71.752  0.00  0.00    +0.023 C 
ENDBRANCH  15  18
ENDBRANCH   9  15
ENDBRANCH   1  12
BRANCH   1  20
ATOM     20  C   UNL     1      -8.854  12.823  67.199  0.00  0.00    +0.021 A 
ATOM     21  C   UNL     1      -7.706  13.603  67.261  0.00  0.00    +0.136 A 
ATOM     22  C   UNL     1      -7.905  14.977  67.290  0.00  0.00    +0.022 A 
ATOM     23  C   UNL     1      -9.122  15.535  67.663  0.00  0.00    +0.022 A 
ATOM     24  C   UNL     1     -10.161  14.693  68.039  0.00  0.00    +0.136 A 
ATOM     25  C   UNL     1     -10.054  13.391  67.599  0.00  0.00    +0.022 A 
BRANCH  24  26
ATOM     26  S   UNL     1     -11.287  15.142  69.315  0.00  0.00    +0.141 S 
ATOM     27  O   UNL     1     -12.339  13.892  69.673  0.00  0.00    -0.043 OA
ATOM     28  O   UNL     1     -10.465  15.508  70.522  0.00  0.00    -0.140 OA
ATOM     29  O   UNL     1     -12.034  16.395  68.918  0.00  0.00    -0.140 OA
ENDBRANCH  24  26
BRANCH  21  30
ATOM     30  S   UNL     1      -6.153  12.899  67.608  0.00  0.00    +0.141 S 
ATOM     31  O   UNL     1      -4.968  14.108  67.653  0.00  0.00    -0.043 OA
ATOM     32  O   UNL     1      -5.707  11.964  66.505  0.00  0.00    -0.140 OA
ATOM     33  O   UNL     1      -6.105  12.235  68.952  0.00  0.00    -0.140 OA
ENDBRANCH  21  30
ENDBRANCH   1  20
BRANCH   6  34
ATOM     34  C   UNL     1      -8.477  10.312  61.033  0.00  0.00    +0.317 C 
ATOM     35  C   UNL     1      -7.293  11.093  61.577  0.00  0.00    +0.092 C 
ENDBRANCH   6  34
BRANCH   6  36
ATOM     36  C   UNL     1      -8.629   7.936  61.681  0.00  0.00    +0.317 C 
ATOM     37  C   UNL     1      -8.331   7.734  60.221  0.00  0.00    +0.092 C 
ENDBRANCH   6  36
TORSDOF 9
ENDMDL
MODEL 8
REMARK VINA RESULT:      -6.2      3.687      5.414
REMARK  Name = 
REMARK  9 active torsions:
REMARK  status: ('A' for Active; 'I' for Inactive)
REMARK    1  A    between atoms: C_2  and  N_3
REMARK    2  A    between atoms: N_3  and  C_4
REMARK    3  A    between atoms: N_3  and  C_6
REMARK    4  A    between atoms: C_9  and  C_10
REMARK    5  A    between atoms: C_10  and  C_11
REMARK    6  A    between atoms: C_13  and  S_14
REMARK    7  A    between atoms: C_20  and  S_21
REMARK    8  A    between atoms: N_29  and  C_30
REMARK    9  A    between atoms: N_29  and  C_32
REMARK                            x       y       z     vdW  Elec       q    Type
REMARK                         _______ _______ _______ _____ _____    ______ ____
ROOT
ATOM      1  C   UNL     1      -9.056  14.326  68.108  0.00  0.00    +0.001 C 
ATOM      2  C   UNL     1      -7.790  14.665  68.368  0.00  0.00    +0.000 C 
ATOM      3  C   UNL     1      -7.421  14.598  69.790  0.00  0.00    +0.006 C 
ATOM      4  C   UNL     1      -6.200  14.969  70.102  0.00  0.00    +0.069 C 
ATOM      5  C   UNL     1      -5.180  14.987  69.057  0.00  0.00    +0.221 C 
ATOM      6  N   UNL     1      -3.999  15.453  69.318  0.00  0.00    -0.189 N 
ATOM      7  C   UNL     1      -5.464  14.198  67.852  0.00  0.00    +0.069 C 
ATOM      8  C   UNL     1      -6.735  14.212  67.450  0.00  0.00    +0.006 C 
ENDROOT
BRANCH   1  12
ATOM      9  C   UNL     1     -10.350  10.426  68.881  0.00  0.00    +0.048 A 
ATOM     10  C   UNL     1     -11.198  11.512  69.061  0.00  0.00    +0.015 A 
ATOM     11  C   UNL     1     -10.689  12.790  68.975  0.00  0.00    +0.001 A 
ATOM     12  C   UNL     1      -9.372  12.962  68.566  0.00  0.00    +0.000 A 
ATOM     13  C   UNL     1      -8.595  11.873  68.282  0.00  0.00    +0.001 A 
ATOM     14  C   UNL     1      -8.983  10.669  68.855  0.00  0.00    +0.015 A 
BRANCH   9  15
ATOM     15  N   UNL     1     -10.769   9.207  69.505  0.00  0.00    -0.307 N 
BRANCH  15  17
ATOM     16  C   UNL     1     -10.502   8.763  71.824  0.00  0.00    +0.023 C 
ATOM     17  C   UNL     1     -11.503   9.186  70.758  0.00  0.00    +0.091 C 
ENDBRANCH  15  17
BRANCH  15  18
ATOM     18  C   UNL     1     -10.418   7.924  68.935  0.00  0.00    +0.091 C 
ATOM     19  C   UNL     1     -10.633   7.920  67.428  0.00  0.00    +0.023 C 
ENDBRANCH  15  18
ENDBRANCH   9  15
ENDBRANCH   1  12
BRANCH   1  20
ATOM     20  C   UNL     1      -9.720  14.726  66.859  0.00  0.00    +0.021 A 
ATOM     21  C   UNL     1     -10.178  16.031  66.730  0.00  0.00    +0.136 A 
ATOM     22  C   UNL     1     -10.557  16.420  65.451  0.00  0.00    +0.022 A 
ATOM     23  C   UNL     1     -10.874  15.492  64.467  0.00  0.00    +0.022 A 
ATOM     24  C   UNL     1     -10.832  14.138  64.779  0.00  0.00    +0.136 A 
ATOM     25  C   UNL     1     -10.069  13.811  65.878  0.00  0.00    +0.022 A 
BRANCH  24  26
ATOM     26  S   UNL     1     -11.989  13.005  64.091  0.00  0.00    +0.141 S 
ATOM     27  O   UNL     1     -11.254  11.566  63.656  0.00  0.00    -0.043 OA
ATOM     28  O   UNL     1     -13.050  12.766  65.133  0.00  0.00    -0.140 OA
ATOM     29  O   UNL     1     -12.690  13.643  62.913  0.00  0.00    -0.140 OA
ENDBRANCH  24  26
BRANCH  21  30
ATOM     30  S   UNL     1     -10.553  17.000  68.125  0.00  0.00    +0.141 S 
ATOM     31  O   UNL     1     -11.721  16.220  69.073  0.00  0.00    -0.043 OA
ATOM     32  O   UNL     1     -11.190  18.316  67.736  0.00  0.00    -0.140 OA
ATOM     33  O   UNL     1      -9.371  17.200  69.026  0.00  0.00    -0.140 OA
ENDBRANCH  21  30
ENDBRANCH   1  20
BRANCH   6  34
ATOM     34  C   UNL     1      -3.594  16.675  68.630  0.00  0.00    +0.317 C 
ATOM     35  C   UNL     1      -2.581  17.443  69.462  0.00  0.00    +0.092 C 
ENDBRANCH   6  34
BRANCH   6  36
ATOM     36  C   UNL     1      -3.388  15.213  70.607  0.00  0.00    +0.317 C 
ATOM     37  C   UNL     1      -2.707  13.874  70.682  0.00  0.00    +0.092 C 
ENDBRANCH   6  36
TORSDOF 9
ENDMDL
MODEL 9
REMARK VINA RESULT:      -6.0      5.178      9.822
REMARK  Name = 
REMARK  9 active torsions:
REMARK  status: ('A' for Active; 'I' for Inactive)
REMARK    1  A    between atoms: C_2  and  N_3
REMARK    2  A    between atoms: N_3  and  C_4
REMARK    3  A    between atoms: N_3  and  C_6
REMARK    4  A    between atoms: C_9  and  C_10
REMARK    5  A    between atoms: C_10  and  C_11
REMARK    6  A    between atoms: C_13  and  S_14
REMARK    7  A    between atoms: C_20  and  S_21
REMARK    8  A    between atoms: N_29  and  C_30
REMARK    9  A    between atoms: N_29  and  C_32
REMARK                            x       y       z     vdW  Elec       q    Type
REMARK                         _______ _______ _______ _____ _____    ______ ____
ROOT
ATOM      1  C   UNL     1      -9.639   8.262  68.256  0.00  0.00    +0.001 C 
ATOM      2  C   UNL     1      -9.539   7.096  67.610  0.00  0.00    +0.000 C 
ATOM      3  C   UNL     1     -10.767   6.675  66.918  0.00  0.00    +0.006 C 
ATOM      4  C   UNL     1     -10.734   5.513  66.309  0.00  0.00    +0.069 C 
ATOM      5  C   UNL     1      -9.437   4.933  65.966  0.00  0.00    +0.221 C 
ATOM      6  N   UNL     1      -9.377   3.740  65.466  0.00  0.00    -0.189 N 
ATOM      7  C   UNL     1      -8.295   5.856  65.934  0.00  0.00    +0.069 C 
ATOM      8  C   UNL     1      -8.302   6.801  66.875  0.00  0.00    +0.006 C 
ENDROOT
BRANCH   1  12
ATOM      9  C   UNL     1     -10.496  11.791  66.183  0.00  0.00    +0.048 A 
ATOM     10  C   UNL     1     -11.245  11.409  67.291  0.00  0.00    +0.015 A 
ATOM     11  C   UNL     1     -11.056  10.158  67.837  0.00  0.00    +0.001 A 
ATOM     12  C   UNL     1     -10.020   9.365  67.357  0.00  0.00    +0.000 A 
ATOM     13  C   UNL     1      -9.224   9.818  66.342  0.00  0.00    +0.001 A 
ATOM     14  C   UNL     1      -9.760  10.811  65.531  0.00  0.00    +0.015 A 
BRANCH   9  15
ATOM     15  N   UNL     1     -11.089  12.798  65.357  0.00  0.00    -0.307 N 
BRANCH  15  17
ATOM     16  C   UNL     1      -9.629  14.455  66.233  0.00  0.00    +0.023 C 
ATOM     17  C   UNL     1     -10.388  14.016  64.989  0.00  0.00    +0.091 C 
ENDBRANCH  15  17
BRANCH  15  18
ATOM     18  C   UNL     1     -12.455  12.671  64.897  0.00  0.00    +0.091 C 
ATOM     19  C   UNL     1     -12.503  12.131  63.475  0.00  0.00    +0.023 C 
ENDBRANCH  15  18
ENDBRANCH   9  15
ENDBRANCH   1  12
BRANCH   1  20
ATOM     20  C   UNL     1      -8.701   8.633  69.326  0.00  0.00    +0.021 A 
ATOM     21  C   UNL     1      -9.051   8.377  70.645  0.00  0.00    +0.136 A 
ATOM     22  C   UNL     1      -8.033   8.508  71.581  0.00  0.00    +0.022 A 
ATOM     23  C   UNL     1      -6.884   9.244  71.317  0.00  0.00    +0.022 A 
ATOM     24  C   UNL     1      -6.762   9.884  70.090  0.00  0.00    +0.136 A 
ATOM     25  C   UNL     1      -7.565   9.390  69.085  0.00  0.00    +0.022 A 
BRANCH  24  26
ATOM     26  S   UNL     1      -5.973  11.451  69.951  0.00  0.00    +0.141 S 
ATOM     27  O   UNL     1      -6.911  12.536  69.089  0.00  0.00    -0.043 OA
ATOM     28  O   UNL     1      -5.732  11.952  71.350  0.00  0.00    -0.140 OA
ATOM     29  O   UNL     1      -4.609  11.282  69.322  0.00  0.00    -0.140 OA
ENDBRANCH  24  26
BRANCH  21  30
ATOM     30  S   UNL     1     -10.716   8.222  71.125  0.00  0.00    +0.141 S 
ATOM     31  O   UNL     1     -10.810   7.865  72.778  0.00  0.00    -0.043 OA
ATOM     32  O   UNL     1     -11.387   7.052  70.440  0.00  0.00    -0.140 OA
ATOM     33  O   UNL     1     -11.492   9.493  70.942  0.00  0.00    -0.140 OA
ENDBRANCH  21  30
ENDBRANCH   1  20
BRANCH   6  34
ATOM     34  C   UNL     1      -8.736   2.705  66.273  0.00  0.00    +0.317 C 
ATOM     35  C   UNL     1      -9.300   2.706  67.684  0.00  0.00    +0.092 C 
ENDBRANCH   6  34
BRANCH   6  36
ATOM     36  C   UNL     1     -10.386   3.288  64.533  0.00  0.00    +0.317 C 
ATOM     37  C   UNL     1     -10.066   3.659  63.111  0.00  0.00    +0.092 C 
ENDBRANCH   6  36
TORSDOF 9
ENDMDL
