MODEL 1
REMARK VINA RESULT:      -7.6      0.000      0.000
REMARK  Name = 
REMARK  11 active torsions:
REMARK  status: ('A' for Active; 'I' for Inactive)
REMARK    1  A    between atoms: C_2  and  O_4
REMARK    2  A    between atoms: O_4  and  C_5
REMARK    3  A    between atoms: C_5  and  C_7
REMARK    4  A    between atoms: C_7  and  N_9
REMARK    5  A    between atoms: N_9  and  P_10
REMARK    6  A    between atoms: P_10  and  O_12
REMARK    7  A    between atoms: P_10  and  O_30
REMARK    8  A    between atoms: O_12  and  C_13
REMARK    9  A    between atoms: C_13  and  C_14
REMARK   10  A    between atoms: C_16  and  N_17
REMARK   11  A    between atoms: O_30  and  C_31
REMARK                            x       y       z     vdW  Elec       q    Type
REMARK                         _______ _______ _______ _____ _____    ______ ____
ROOT
ATOM      1  P   UNL     1     -10.989  14.702  69.222  0.00  0.00    +0.480 P 
ATOM      2  O   UNL     1     -10.119  15.283  70.291  0.00  0.00    -0.227 OA
ENDROOT
BRANCH   1   3
ATOM      3  N   UNL     1     -12.522  14.143  69.883  0.00  0.00    -0.101 NA
BRANCH   3   4
ATOM      4  C   UNL     1     -12.343  14.262  71.442  0.00  0.00    +0.183 C 
ATOM      5  C   UNL     1     -13.427  15.494  71.525  0.00  0.00    +0.031 C 
BRANCH   4   6
ATOM      6  C   UNL     1     -13.470  13.142  71.725  0.00  0.00    +0.333 C 
ATOM      7  O   UNL     1     -14.302  13.483  72.622  0.00  0.00    -0.249 OA
BRANCH   6   8
ATOM      8  O   UNL     1     -12.815  11.938  72.014  0.00  0.00    -0.451 OA
BRANCH   8  10
ATOM      9  C   UNL     1     -11.623  10.514  70.466  0.00  0.00    +0.047 C 
ATOM     10  C   UNL     1     -12.916  10.800  71.174  0.00  0.00    +0.169 C 
ATOM     11  C   UNL     1     -13.276   9.569  71.960  0.00  0.00    +0.047 C 
ENDBRANCH   8  10
ENDBRANCH   6   8
ENDBRANCH   4   6
ENDBRANCH   3   4
ENDBRANCH   1   3
BRANCH   1  12
ATOM     12  O   UNL     1     -11.353  15.880  68.081  0.00  0.00    -0.270 OA
BRANCH  12  13
ATOM     13  C   UNL     1     -10.884  17.091  68.381  0.00  0.00    +0.186 C 
BRANCH  13  14
ATOM     14  C   UNL     1      -9.489  17.391  67.563  0.00  0.00    +0.180 C 
ATOM     15  C   UNL     1     -10.229  18.491  66.471  0.00  0.00    +0.215 C 
ATOM     16  O   UNL     1     -10.783  19.430  67.525  0.00  0.00    -0.217 OA
ATOM     17  C   UNL     1      -8.718  19.099  66.338  0.00  0.00    +0.209 C 
ATOM     18  F   UNL     1      -8.945  20.083  65.480  0.00  0.00    -0.233 F 
ATOM     19  C   UNL     1      -7.767  18.062  66.120  0.00  0.00    +0.043 C 
ATOM     20  C   UNL     1      -8.697  19.669  67.870  0.00  0.00    +0.241 C 
ATOM     21  O   UNL     1      -9.074  18.392  68.561  0.00  0.00    -0.331 OA
BRANCH  20  22
ATOM     22  N   UNL     1      -7.135  19.425  68.079  0.00  0.00    -0.253 N 
ATOM     23  C   UNL     1      -6.414  20.561  67.888  0.00  0.00    +0.355 A 
ATOM     24  O   UNL     1      -6.776  21.576  67.286  0.00  0.00    -0.244 OA
ATOM     25  N   UNL     1      -5.083  20.433  68.111  0.00  0.00    -0.153 NA
ATOM     26  C   UNL     1      -4.625  19.426  68.886  0.00  0.00    +0.285 A 
ATOM     27  O   UNL     1      -3.469  18.923  68.733  0.00  0.00    -0.265 OA
ATOM     28  C   UNL     1      -5.565  18.879  69.751  0.00  0.00    +0.081 A 
ATOM     29  C   UNL     1      -6.893  18.970  69.347  0.00  0.00    +0.087 A 
ENDBRANCH  20  22
ENDBRANCH  13  14
ENDBRANCH  12  13
ENDBRANCH   1  12
BRANCH   1  30
ATOM     30  O   UNL     1     -10.238  13.452  68.340  0.00  0.00    -0.411 OA
BRANCH  30  31
ATOM     31  C   UNL     1     -10.526  13.344  66.996  0.00  0.00    +0.148 A 
ATOM     32  C   UNL     1     -11.775  12.870  66.615  0.00  0.00    +0.037 A 
ATOM     33  C   UNL     1     -12.447  13.452  65.545  0.00  0.00    +0.003 A 
ATOM     34  C   UNL     1     -11.843  14.428  64.771  0.00  0.00    +0.000 A 
ATOM     35  C   UNL     1     -10.472  14.568  64.921  0.00  0.00    +0.003 A 
ATOM     36  C   UNL     1      -9.827  14.023  66.008  0.00  0.00    +0.037 A 
ENDBRANCH  30  31
ENDBRANCH   1  30
TORSDOF 11
ENDMDL
MODEL 2
REMARK VINA RESULT:      -7.6      2.209      3.096
REMARK  Name = 
REMARK  11 active torsions:
REMARK  status: ('A' for Active; 'I' for Inactive)
REMARK    1  A    between atoms: C_2  and  O_4
REMARK    2  A    between atoms: O_4  and  C_5
REMARK    3  A    between atoms: C_5  and  C_7
REMARK    4  A    between atoms: C_7  and  N_9
REMARK    5  A    between atoms: N_9  and  P_10
REMARK    6  A    between atoms: P_10  and  O_12
REMARK    7  A    between atoms: P_10  and  O_30
REMARK    8  A    between atoms: O_12  and  C_13
REMARK    9  A    between atoms: C_13  and  C_14
REMARK   10  A    between atoms: C_16  and  N_17
REMARK   11  A    between atoms: O_30  and  C_31
REMARK                            x       y       z     vdW  Elec       q    Type
REMARK                         _______ _______ _______ _____ _____    ______ ____
ROOT
ATOM      1  P   UNL     1     -10.343  15.078  66.381  0.00  0.00    +0.480 P 
ATOM      2  O   UNL     1      -9.131  14.265  66.058  0.00  0.00    -0.227 OA
ENDROOT
BRANCH   1   3
ATOM      3  N   UNL     1     -10.482  15.352  68.114  0.00  0.00    -0.101 NA
BRANCH   3   4
ATOM      4  C   UNL     1     -11.946  14.894  68.468  0.00  0.00    +0.183 C 
ATOM      5  C   UNL     1     -11.394  13.593  69.304  0.00  0.00    +0.031 C 
BRANCH   4   6
ATOM      6  C   UNL     1     -11.992  15.825  69.785  0.00  0.00    +0.333 C 
ATOM      7  O   UNL     1     -10.882  16.385  70.043  0.00  0.00    -0.249 OA
BRANCH   6   8
ATOM      8  O   UNL     1     -12.471  15.043  70.845  0.00  0.00    -0.451 OA
BRANCH   8  10
ATOM      9  C   UNL     1     -14.753  14.941  71.637  0.00  0.00    +0.047 C 
ATOM     10  C   UNL     1     -13.389  15.545  71.802  0.00  0.00    +0.169 C 
ATOM     11  C   UNL     1     -12.935  15.247  73.205  0.00  0.00    +0.047 C 
ENDBRANCH   8  10
ENDBRANCH   6   8
ENDBRANCH   4   6
ENDBRANCH   3   4
ENDBRANCH   1   3
BRANCH   1  12
ATOM     12  O   UNL     1     -10.226  16.590  65.658  0.00  0.00    -0.270 OA
BRANCH  12  13
ATOM     13  C   UNL     1     -10.068  17.594  66.520  0.00  0.00    +0.186 C 
BRANCH  13  14
ATOM     14  C   UNL     1      -8.493  18.058  66.587  0.00  0.00    +0.180 C 
ATOM     15  C   UNL     1      -8.858  19.731  66.450  0.00  0.00    +0.215 C 
ATOM     16  O   UNL     1      -9.788  19.800  67.646  0.00  0.00    -0.217 OA
ATOM     17  C   UNL     1      -7.426  19.924  67.212  0.00  0.00    +0.209 C 
ATOM     18  F   UNL     1      -7.386  21.247  67.288  0.00  0.00    -0.233 F 
ATOM     19  C   UNL     1      -6.410  19.136  66.602  0.00  0.00    +0.043 C 
ATOM     20  C   UNL     1      -7.966  19.287  68.618  0.00  0.00    +0.241 C 
ATOM     21  O   UNL     1      -8.498  18.000  68.060  0.00  0.00    -0.331 OA
BRANCH  20  22
ATOM     22  N   UNL     1      -6.565  18.637  69.015  0.00  0.00    -0.253 N 
ATOM     23  C   UNL     1      -5.964  19.309  70.032  0.00  0.00    +0.355 A 
ATOM     24  O   UNL     1      -6.206  20.461  70.404  0.00  0.00    -0.244 OA
ATOM     25  N   UNL     1      -4.795  18.770  70.457  0.00  0.00    -0.153 NA
ATOM     26  C   UNL     1      -4.528  17.468  70.214  0.00  0.00    +0.285 A 
ATOM     27  O   UNL     1      -3.342  17.031  70.089  0.00  0.00    -0.265 OA
ATOM     28  C   UNL     1      -5.642  16.681  69.952  0.00  0.00    +0.081 A 
ATOM     29  C   UNL     1      -6.739  17.337  69.402  0.00  0.00    +0.087 A 
ENDBRANCH  20  22
ENDBRANCH  13  14
ENDBRANCH  12  13
ENDBRANCH   1  12
BRANCH   1  30
ATOM     30  O   UNL     1     -11.790  14.412  65.774  0.00  0.00    -0.411 OA
BRANCH  30  31
ATOM     31  C   UNL     1     -11.756  13.120  65.294  0.00  0.00    +0.148 A 
ATOM     32  C   UNL     1     -11.604  12.916  63.927  0.00  0.00    +0.037 A 
ATOM     33  C   UNL     1     -10.780  11.897  63.460  0.00  0.00    +0.003 A 
ATOM     34  C   UNL     1     -10.193  10.999  64.335  0.00  0.00    +0.000 A 
ATOM     35  C   UNL     1     -10.698  10.980  65.625  0.00  0.00    +0.003 A 
ATOM     36  C   UNL     1     -11.476  12.017  66.088  0.00  0.00    +0.037 A 
ENDBRANCH  30  31
ENDBRANCH   1  30
TORSDOF 11
ENDMDL
MODEL 3
REMARK VINA RESULT:      -7.5      2.534      4.772
REMARK  Name = 
REMARK  11 active torsions:
REMARK  status: ('A' for Active; 'I' for Inactive)
REMARK    1  A    between atoms: C_2  and  O_4
REMARK    2  A    between atoms: O_4  and  C_5
REMARK    3  A    between atoms: C_5  and  C_7
REMARK    4  A    between atoms: C_7  and  N_9
REMARK    5  A    between atoms: N_9  and  P_10
REMARK    6  A    between atoms: P_10  and  O_12
REMARK    7  A    between atoms: P_10  and  O_30
REMARK    8  A    between atoms: O_12  and  C_13
REMARK    9  A    between atoms: C_13  and  C_14
REMARK   10  A    between atoms: C_16  and  N_17
REMARK   11  A    between atoms: O_30  and  C_31
REMARK                            x       y       z     vdW  Elec       q    Type
REMARK                         _______ _______ _______ _____ _____    ______ ____
ROOT
ATOM      1  P   UNL     1     -10.802  15.589  68.446  0.00  0.00    +0.480 P 
ATOM      2  O   UNL     1     -10.936  15.864  66.982  0.00  0.00    -0.227 OA
ENDROOT
BRANCH   1   3
ATOM      3  N   UNL     1     -10.644  13.864  68.758  0.00  0.00    -0.101 NA
BRANCH   3   4
ATOM      4  C   UNL     1     -10.323  13.238  67.350  0.00  0.00    +0.183 C 
ATOM      5  C   UNL     1      -9.713  11.875  68.035  0.00  0.00    +0.031 C 
BRANCH   4   6
ATOM      6  C   UNL     1     -11.802  12.607  67.217  0.00  0.00    +0.333 C 
ATOM      7  O   UNL     1     -12.061  11.743  68.110  0.00  0.00    -0.249 OA
BRANCH   6   8
ATOM      8  O   UNL     1     -11.940  12.108  65.915  0.00  0.00    -0.451 OA
BRANCH   8  10
ATOM      9  C   UNL     1     -11.298  11.866  63.597  0.00  0.00    +0.047 C 
ATOM     10  C   UNL     1     -11.401  12.776  64.786  0.00  0.00    +0.169 C 
ATOM     11  C   UNL     1     -12.256  13.945  64.381  0.00  0.00    +0.047 C 
ENDBRANCH   8  10
ENDBRANCH   6   8
ENDBRANCH   4   6
ENDBRANCH   3   4
ENDBRANCH   1   3
BRANCH   1  12
ATOM     12  O   UNL     1      -9.411  16.320  69.039  0.00  0.00    -0.270 OA
BRANCH  12  13
ATOM     13  C   UNL     1      -8.726  17.006  68.124  0.00  0.00    +0.186 C 
BRANCH  13  14
ATOM     14  C   UNL     1      -7.136  17.092  68.535  0.00  0.00    +0.180 C 
ATOM     15  C   UNL     1      -6.603  17.244  66.909  0.00  0.00    +0.215 C 
ATOM     16  O   UNL     1      -7.434  18.467  66.572  0.00  0.00    -0.217 OA
ATOM     17  C   UNL     1      -5.310  17.976  67.588  0.00  0.00    +0.209 C 
ATOM     18  F   UNL     1      -4.615  18.265  66.497  0.00  0.00    -0.233 F 
ATOM     19  C   UNL     1      -4.798  17.209  68.673  0.00  0.00    +0.043 C 
ATOM     20  C   UNL     1      -6.170  19.276  68.080  0.00  0.00    +0.241 C 
ATOM     21  O   UNL     1      -7.247  18.535  68.816  0.00  0.00    -0.331 OA
BRANCH  20  22
ATOM     22  N   UNL     1      -5.308  19.512  69.402  0.00  0.00    -0.253 N 
ATOM     23  C   UNL     1      -4.391  20.501  69.239  0.00  0.00    +0.355 A 
ATOM     24  O   UNL     1      -3.965  20.949  68.170  0.00  0.00    -0.244 OA
ATOM     25  N   UNL     1      -3.666  20.791  70.348  0.00  0.00    -0.153 NA
ATOM     26  C   UNL     1      -4.142  20.461  71.568  0.00  0.00    +0.285 A 
ATOM     27  O   UNL     1      -3.378  20.208  72.549  0.00  0.00    -0.265 OA
ATOM     28  C   UNL     1      -5.516  20.264  71.626  0.00  0.00    +0.081 A 
ATOM     29  C   UNL     1      -6.125  19.850  70.445  0.00  0.00    +0.087 A 
ENDBRANCH  20  22
ENDBRANCH  13  14
ENDBRANCH  12  13
ENDBRANCH   1  12
BRANCH   1  30
ATOM     30  O   UNL     1     -12.072  16.241  69.378  0.00  0.00    -0.411 OA
BRANCH  30  31
ATOM     31  C   UNL     1     -12.368  15.637  70.582  0.00  0.00    +0.148 A 
ATOM     32  C   UNL     1     -11.629  15.985  71.706  0.00  0.00    +0.037 A 
ATOM     33  C   UNL     1     -12.262  16.147  72.935  0.00  0.00    +0.003 A 
ATOM     34  C   UNL     1     -13.606  15.855  73.088  0.00  0.00    +0.000 A 
ATOM     35  C   UNL     1     -14.195  15.124  72.069  0.00  0.00    +0.003 A 
ATOM     36  C   UNL     1     -13.578  15.008  70.843  0.00  0.00    +0.037 A 
ENDBRANCH  30  31
ENDBRANCH   1  30
TORSDOF 11
ENDMDL
MODEL 4
REMARK VINA RESULT:      -7.5      4.076      9.478
REMARK  Name = 
REMARK  11 active torsions:
REMARK  status: ('A' for Active; 'I' for Inactive)
REMARK    1  A    between atoms: C_2  and  O_4
REMARK    2  A    between atoms: O_4  and  C_5
REMARK    3  A    between atoms: C_5  and  C_7
REMARK    4  A    between atoms: C_7  and  N_9
REMARK    5  A    between atoms: N_9  and  P_10
REMARK    6  A    between atoms: P_10  and  O_12
REMARK    7  A    between atoms: P_10  and  O_30
REMARK    8  A    between atoms: O_12  and  C_13
REMARK    9  A    between atoms: C_13  and  C_14
REMARK   10  A    between atoms: C_16  and  N_17
REMARK   11  A    between atoms: O_30  and  C_31
REMARK                            x       y       z     vdW  Elec       q    Type
REMARK                         _______ _______ _______ _____ _____    ______ ____
ROOT
ATOM      1  P   UNL     1     -10.114  13.462  67.271  0.00  0.00    +0.480 P 
ATOM      2  O   UNL     1      -8.801  13.449  66.556  0.00  0.00    -0.227 OA
ENDROOT
BRANCH   1   3
ATOM      3  N   UNL     1     -11.260  14.538  66.478  0.00  0.00    -0.101 NA
BRANCH   3   4
ATOM      4  C   UNL     1     -10.667  14.747  65.035  0.00  0.00    +0.183 C 
ATOM      5  C   UNL     1     -12.026  14.146  64.332  0.00  0.00    +0.031 C 
BRANCH   4   6
ATOM      6  C   UNL     1     -11.202  16.267  64.961  0.00  0.00    +0.333 C 
ATOM      7  O   UNL     1     -11.660  16.583  63.820  0.00  0.00    -0.249 OA
BRANCH   6   8
ATOM      8  O   UNL     1     -10.165  17.108  65.387  0.00  0.00    -0.451 OA
BRANCH   8  10
ATOM      9  C   UNL     1      -9.143  17.720  67.491  0.00  0.00    +0.047 C 
ATOM     10  C   UNL     1     -10.281  17.932  66.534  0.00  0.00    +0.169 C 
ATOM     11  C   UNL     1     -10.286  19.390  66.163  0.00  0.00    +0.047 C 
ENDBRANCH   8  10
ENDBRANCH   6   8
ENDBRANCH   4   6
ENDBRANCH   3   4
ENDBRANCH   1   3
BRANCH   1  12
ATOM     12  O   UNL     1     -10.792  11.926  67.246  0.00  0.00    -0.270 OA
BRANCH  12  13
ATOM     13  C   UNL     1      -9.898  10.937  67.230  0.00  0.00    +0.186 C 
BRANCH  13  14
ATOM     14  C   UNL     1     -10.493   9.606  67.988  0.00  0.00    +0.180 C 
ATOM     15  C   UNL     1      -8.937   8.967  68.339  0.00  0.00    +0.215 C 
ATOM     16  O   UNL     1      -8.421  10.180  69.090  0.00  0.00    -0.217 OA
ATOM     17  C   UNL     1      -9.719   8.209  69.557  0.00  0.00    +0.209 C 
ATOM     18  F   UNL     1      -8.704   7.557  70.107  0.00  0.00    -0.233 F 
ATOM     19  C   UNL     1     -10.905   7.577  69.090  0.00  0.00    +0.043 C 
ATOM     20  C   UNL     1     -10.016   9.595  70.372  0.00  0.00    +0.241 C 
ATOM     21  O   UNL     1     -10.662  10.350  69.248  0.00  0.00    -0.331 OA
BRANCH  20  22
ATOM     22  N   UNL     1     -11.414   9.103  70.962  0.00  0.00    -0.253 N 
ATOM     23  C   UNL     1     -11.287   8.606  72.221  0.00  0.00    +0.355 A 
ATOM     24  O   UNL     1     -10.248   8.214  72.761  0.00  0.00    -0.244 OA
ATOM     25  N   UNL     1     -12.451   8.226  72.801  0.00  0.00    -0.153 NA
ATOM     26  C   UNL     1     -13.621   8.732  72.356  0.00  0.00    +0.285 A 
ATOM     27  O   UNL     1     -14.715   8.094  72.446  0.00  0.00    -0.265 OA
ATOM     28  C   UNL     1     -13.513   9.925  71.652  0.00  0.00    +0.081 A 
ATOM     29  C   UNL     1     -12.304  10.142  70.997  0.00  0.00    +0.087 A 
ENDBRANCH  20  22
ENDBRANCH  13  14
ENDBRANCH  12  13
ENDBRANCH   1  12
BRANCH   1  30
ATOM     30  O   UNL     1      -9.984  13.858  68.924  0.00  0.00    -0.411 OA
BRANCH  30  31
ATOM     31  C   UNL     1     -11.070  14.443  69.538  0.00  0.00    +0.148 A 
ATOM     32  C   UNL     1     -12.092  13.629  70.012  0.00  0.00    +0.037 A 
ATOM     33  C   UNL     1     -12.695  13.905  71.235  0.00  0.00    +0.003 A 
ATOM     34  C   UNL     1     -12.377  15.051  71.943  0.00  0.00    +0.000 A 
ATOM     35  C   UNL     1     -11.681  16.027  71.249  0.00  0.00    +0.003 A 
ATOM     36  C   UNL     1     -11.051  15.729  70.062  0.00  0.00    +0.037 A 
ENDBRANCH  30  31
ENDBRANCH   1  30
TORSDOF 11
ENDMDL
MODEL 5
REMARK VINA RESULT:      -7.5      2.217      4.302
REMARK  Name = 
REMARK  11 active torsions:
REMARK  status: ('A' for Active; 'I' for Inactive)
REMARK    1  A    between atoms: C_2  and  O_4
REMARK    2  A    between atoms: O_4  and  C_5
REMARK    3  A    between atoms: C_5  and  C_7
REMARK    4  A    between atoms: C_7  and  N_9
REMARK    5  A    between atoms: N_9  and  P_10
REMARK    6  A    between atoms: P_10  and  O_12
REMARK    7  A    between atoms: P_10  and  O_30
REMARK    8  A    between atoms: O_12  and  C_13
REMARK    9  A    between atoms: C_13  and  C_14
REMARK   10  A    between atoms: C_16  and  N_17
REMARK   11  A    between atoms: O_30  and  C_31
REMARK                            x       y       z     vdW  Elec       q    Type
REMARK                         _______ _______ _______ _____ _____    ______ ____
ROOT
ATOM      1  P   UNL     1     -10.750  15.505  68.510  0.00  0.00    +0.480 P 
ATOM      2  O   UNL     1     -11.544  16.767  68.399  0.00  0.00    -0.227 OA
ENDROOT
BRANCH   1   3
ATOM      3  N   UNL     1     -10.694  14.651  66.972  0.00  0.00    -0.101 NA
BRANCH   3   4
ATOM      4  C   UNL     1     -12.172  14.160  66.742  0.00  0.00    +0.183 C 
ATOM      5  C   UNL     1     -12.042  14.359  65.117  0.00  0.00    +0.031 C 
BRANCH   4   6
ATOM      6  C   UNL     1     -11.719  12.613  66.671  0.00  0.00    +0.333 C 
ATOM      7  O   UNL     1     -12.093  12.029  65.607  0.00  0.00    -0.249 OA
BRANCH   6   8
ATOM      8  O   UNL     1     -12.175  11.978  67.834  0.00  0.00    -0.451 OA
BRANCH   8  10
ATOM      9  C   UNL     1      -9.948  11.353  68.540  0.00  0.00    +0.047 C 
ATOM     10  C   UNL     1     -11.407  10.998  68.513  0.00  0.00    +0.169 C 
ATOM     11  C   UNL     1     -11.855  10.844  69.940  0.00  0.00    +0.047 C 
ENDBRANCH   8  10
ENDBRANCH   6   8
ENDBRANCH   4   6
ENDBRANCH   3   4
ENDBRANCH   1   3
BRANCH   1  12
ATOM     12  O   UNL     1      -9.162  15.865  68.924  0.00  0.00    -0.270 OA
BRANCH  12  13
ATOM     13  C   UNL     1      -8.574  16.743  68.111  0.00  0.00    +0.186 C 
BRANCH  13  14
ATOM     14  C   UNL     1      -6.992  16.935  68.513  0.00  0.00    +0.180 C 
ATOM     15  C   UNL     1      -6.483  17.144  66.886  0.00  0.00    +0.215 C 
ATOM     16  O   UNL     1      -7.399  18.310  66.570  0.00  0.00    -0.217 OA
ATOM     17  C   UNL     1      -5.238  17.955  67.566  0.00  0.00    +0.209 C 
ATOM     18  F   UNL     1      -4.573  18.306  66.475  0.00  0.00    -0.233 F 
ATOM     19  C   UNL     1      -4.666  17.212  68.637  0.00  0.00    +0.043 C 
ATOM     20  C   UNL     1      -6.183  19.186  68.081  0.00  0.00    +0.241 C 
ATOM     21  O   UNL     1      -7.200  18.362  68.814  0.00  0.00    -0.331 OA
BRANCH  20  22
ATOM     22  N   UNL     1      -5.330  19.464  69.399  0.00  0.00    -0.253 N 
ATOM     23  C   UNL     1      -4.458  20.494  69.232  0.00  0.00    +0.355 A 
ATOM     24  O   UNL     1      -4.056  20.958  68.161  0.00  0.00    -0.244 OA
ATOM     25  N   UNL     1      -3.745  20.819  70.338  0.00  0.00    -0.153 NA
ATOM     26  C   UNL     1      -4.204  20.471  71.561  0.00  0.00    +0.285 A 
ATOM     27  O   UNL     1      -3.426  20.256  72.541  0.00  0.00    -0.265 OA
ATOM     28  C   UNL     1      -5.567  20.212  71.622  0.00  0.00    +0.081 A 
ATOM     29  C   UNL     1      -6.159  19.767  70.444  0.00  0.00    +0.087 A 
ENDBRANCH  20  22
ENDBRANCH  13  14
ENDBRANCH  12  13
ENDBRANCH   1  12
BRANCH   1  30
ATOM     30  O   UNL     1     -11.299  14.463  69.741  0.00  0.00    -0.411 OA
BRANCH  30  31
ATOM     31  C   UNL     1     -12.136  14.984  70.705  0.00  0.00    +0.148 A 
ATOM     32  C   UNL     1     -13.225  14.230  71.126  0.00  0.00    +0.037 A 
ATOM     33  C   UNL     1     -13.570  14.193  72.474  0.00  0.00    +0.003 A 
ATOM     34  C   UNL     1     -12.917  14.990  73.398  0.00  0.00    +0.000 A 
ATOM     35  C   UNL     1     -12.140  16.016  72.884  0.00  0.00    +0.003 A 
ATOM     36  C   UNL     1     -11.769  16.016  71.558  0.00  0.00    +0.037 A 
ENDBRANCH  30  31
ENDBRANCH   1  30
TORSDOF 11
ENDMDL
MODEL 6
REMARK VINA RESULT:      -7.4      2.252      4.428
REMARK  Name = 
REMARK  11 active torsions:
REMARK  status: ('A' for Active; 'I' for Inactive)
REMARK    1  A    between atoms: C_2  and  O_4
REMARK    2  A    between atoms: O_4  and  C_5
REMARK    3  A    between atoms: C_5  and  C_7
REMARK    4  A    between atoms: C_7  and  N_9
REMARK    5  A    between atoms: N_9  and  P_10
REMARK    6  A    between atoms: P_10  and  O_12
REMARK    7  A    between atoms: P_10  and  O_30
REMARK    8  A    between atoms: O_12  and  C_13
REMARK    9  A    between atoms: C_13  and  C_14
REMARK   10  A    between atoms: C_16  and  N_17
REMARK   11  A    between atoms: O_30  and  C_31
REMARK                            x       y       z     vdW  Elec       q    Type
REMARK                         _______ _______ _______ _____ _____    ______ ____
ROOT
ATOM      1  P   UNL     1     -11.237  15.309  68.144  0.00  0.00    +0.480 P 
ATOM      2  O   UNL     1     -11.757  15.227  66.744  0.00  0.00    -0.227 OA
ENDROOT
BRANCH   1   3
ATOM      3  N   UNL     1     -10.739  13.727  68.732  0.00  0.00    -0.101 NA
BRANCH   3   4
ATOM      4  C   UNL     1     -10.332  12.936  67.433  0.00  0.00    +0.183 C 
ATOM      5  C   UNL     1      -9.600  11.759  68.315  0.00  0.00    +0.031 C 
BRANCH   4   6
ATOM      6  C   UNL     1     -11.737  12.145  67.392  0.00  0.00    +0.333 C 
ATOM      7  O   UNL     1     -11.724  11.062  68.056  0.00  0.00    -0.249 OA
BRANCH   6   8
ATOM      8  O   UNL     1     -12.085  11.958  66.048  0.00  0.00    -0.451 OA
BRANCH   8  10
ATOM      9  C   UNL     1     -10.602  10.960  64.420  0.00  0.00    +0.047 C 
ATOM     10  C   UNL     1     -11.182  12.223  64.987  0.00  0.00    +0.169 C 
ATOM     11  C   UNL     1     -11.860  12.950  63.859  0.00  0.00    +0.047 C 
ENDBRANCH   8  10
ENDBRANCH   6   8
ENDBRANCH   4   6
ENDBRANCH   3   4
ENDBRANCH   1   3
BRANCH   1  12
ATOM     12  O   UNL     1      -9.877  16.295  68.189  0.00  0.00    -0.270 OA
BRANCH  12  13
ATOM     13  C   UNL     1      -9.843  17.218  67.228  0.00  0.00    +0.186 C 
BRANCH  13  14
ATOM     14  C   UNL     1      -8.318  17.801  67.039  0.00  0.00    +0.180 C 
ATOM     15  C   UNL     1      -8.843  19.410  66.747  0.00  0.00    +0.215 C 
ATOM     16  O   UNL     1      -9.630  19.567  68.034  0.00  0.00    -0.217 OA
ATOM     17  C   UNL     1      -7.354  19.806  67.293  0.00  0.00    +0.209 C 
ATOM     18  F   UNL     1      -7.423  21.126  67.202  0.00  0.00    -0.233 F 
ATOM     19  C   UNL     1      -6.351  19.020  66.658  0.00  0.00    +0.043 C 
ATOM     20  C   UNL     1      -7.668  19.321  68.822  0.00  0.00    +0.241 C 
ATOM     21  O   UNL     1      -8.146  17.936  68.496  0.00  0.00    -0.331 OA
BRANCH  20  22
ATOM     22  N   UNL     1      -6.178  18.833  69.114  0.00  0.00    -0.253 N 
ATOM     23  C   UNL     1      -5.517  19.688  69.937  0.00  0.00    +0.355 A 
ATOM     24  O   UNL     1      -5.809  20.864  70.174  0.00  0.00    -0.244 OA
ATOM     25  N   UNL     1      -4.263  19.297  70.273  0.00  0.00    -0.153 NA
ATOM     26  C   UNL     1      -3.917  17.995  70.179  0.00  0.00    +0.285 A 
ATOM     27  O   UNL     1      -2.722  17.624  69.959  0.00  0.00    -0.265 OA
ATOM     28  C   UNL     1      -4.983  17.104  70.182  0.00  0.00    +0.081 A 
ATOM     29  C   UNL     1      -6.192  17.596  69.698  0.00  0.00    +0.087 A 
ENDBRANCH  20  22
ENDBRANCH  13  14
ENDBRANCH  12  13
ENDBRANCH   1  12
BRANCH   1  30
ATOM     30  O   UNL     1     -12.334  16.023  69.235  0.00  0.00    -0.411 OA
BRANCH  30  31
ATOM     31  C   UNL     1     -12.415  15.500  70.508  0.00  0.00    +0.148 A 
ATOM     32  C   UNL     1     -11.578  16.006  71.495  0.00  0.00    +0.037 A 
ATOM     33  C   UNL     1     -12.063  16.216  72.782  0.00  0.00    +0.003 A 
ATOM     34  C   UNL     1     -13.342  15.819  73.135  0.00  0.00    +0.000 A 
ATOM     35  C   UNL     1     -13.979  14.955  72.259  0.00  0.00    +0.003 A 
ATOM     36  C   UNL     1     -13.514  14.791  70.974  0.00  0.00    +0.037 A 
ENDBRANCH  30  31
ENDBRANCH   1  30
TORSDOF 11
ENDMDL
MODEL 7
REMARK VINA RESULT:      -7.4      2.324      4.867
REMARK  Name = 
REMARK  11 active torsions:
REMARK  status: ('A' for Active; 'I' for Inactive)
REMARK    1  A    between atoms: C_2  and  O_4
REMARK    2  A    between atoms: O_4  and  C_5
REMARK    3  A    between atoms: C_5  and  C_7
REMARK    4  A    between atoms: C_7  and  N_9
REMARK    5  A    between atoms: N_9  and  P_10
REMARK    6  A    between atoms: P_10  and  O_12
REMARK    7  A    between atoms: P_10  and  O_30
REMARK    8  A    between atoms: O_12  and  C_13
REMARK    9  A    between atoms: C_13  and  C_14
REMARK   10  A    between atoms: C_16  and  N_17
REMARK   11  A    between atoms: O_30  and  C_31
REMARK                            x       y       z     vdW  Elec       q    Type
REMARK                         _______ _______ _______ _____ _____    ______ ____
ROOT
ATOM      1  P   UNL     1     -11.063  14.999  68.361  0.00  0.00    +0.480 P 
ATOM      2  O   UNL     1     -12.043  16.106  68.137  0.00  0.00    -0.227 OA
ENDROOT
BRANCH   1   3
ATOM      3  N   UNL     1     -11.063  13.866  67.014  0.00  0.00    -0.101 NA
BRANCH   3   4
ATOM      4  C   UNL     1     -11.897  14.590  65.893  0.00  0.00    +0.183 C 
ATOM      5  C   UNL     1     -10.532  15.099  65.132  0.00  0.00    +0.031 C 
BRANCH   4   6
ATOM      6  C   UNL     1     -11.992  13.249  65.001  0.00  0.00    +0.333 C 
ATOM      7  O   UNL     1     -13.161  12.754  64.961  0.00  0.00    -0.249 OA
BRANCH   6   8
ATOM      8  O   UNL     1     -11.032  12.347  65.480  0.00  0.00    -0.451 OA
BRANCH   8  10
ATOM      9  C   UNL     1     -10.176  11.668  63.323  0.00  0.00    +0.047 C 
ATOM     10  C   UNL     1     -10.574  11.249  64.709  0.00  0.00    +0.169 C 
ATOM     11  C   UNL     1      -9.373  10.599  65.340  0.00  0.00    +0.047 C 
ENDBRANCH   8  10
ENDBRANCH   6   8
ENDBRANCH   4   6
ENDBRANCH   3   4
ENDBRANCH   1   3
BRANCH   1  12
ATOM     12  O   UNL     1      -9.509  15.626  68.468  0.00  0.00    -0.270 OA
BRANCH  12  13
ATOM     13  C   UNL     1      -9.464  16.910  68.824  0.00  0.00    +0.186 C 
BRANCH  13  14
ATOM     14  C   UNL     1      -9.477  17.880  67.497  0.00  0.00    +0.180 C 
ATOM     15  C   UNL     1     -10.124  19.228  68.344  0.00  0.00    +0.215 C 
ATOM     16  O   UNL     1      -9.041  19.297  69.404  0.00  0.00    -0.217 OA
ATOM     17  C   UNL     1      -9.399  20.092  67.162  0.00  0.00    +0.209 C 
ATOM     18  F   UNL     1      -9.722  21.319  67.548  0.00  0.00    -0.233 F 
ATOM     19  C   UNL     1      -9.704  19.561  65.878  0.00  0.00    +0.043 C 
ATOM     20  C   UNL     1      -7.890  19.714  67.664  0.00  0.00    +0.241 C 
ATOM     21  O   UNL     1      -8.056  18.223  67.686  0.00  0.00    -0.331 OA
BRANCH  20  22
ATOM     22  N   UNL     1      -7.261  19.710  66.198  0.00  0.00    -0.253 N 
ATOM     23  C   UNL     1      -6.383  20.732  66.019  0.00  0.00    +0.355 A 
ATOM     24  O   UNL     1      -6.299  21.763  66.694  0.00  0.00    -0.244 OA
ATOM     25  N   UNL     1      -5.769  20.749  64.811  0.00  0.00    -0.153 NA
ATOM     26  C   UNL     1      -5.693  19.615  64.080  0.00  0.00    +0.285 A 
ATOM     27  O   UNL     1      -5.634  19.628  62.812  0.00  0.00    -0.265 OA
ATOM     28  C   UNL     1      -5.845  18.440  64.805  0.00  0.00    +0.081 A 
ATOM     29  C   UNL     1      -6.603  18.533  65.969  0.00  0.00    +0.087 A 
ENDBRANCH  20  22
ENDBRANCH  13  14
ENDBRANCH  12  13
ENDBRANCH   1  12
BRANCH   1  30
ATOM     30  O   UNL     1     -11.303  14.167  69.829  0.00  0.00    -0.411 OA
BRANCH  30  31
ATOM     31  C   UNL     1     -12.132  14.739  70.770  0.00  0.00    +0.148 A 
ATOM     32  C   UNL     1     -13.113  13.954  71.364  0.00  0.00    +0.037 A 
ATOM     33  C   UNL     1     -13.376  14.077  72.725  0.00  0.00    +0.003 A 
ATOM     34  C   UNL     1     -12.756  15.053  73.485  0.00  0.00    +0.000 A 
ATOM     35  C   UNL     1     -12.118  16.064  72.784  0.00  0.00    +0.003 A 
ATOM     36  C   UNL     1     -11.825  15.911  71.447  0.00  0.00    +0.037 A 
ENDBRANCH  30  31
ENDBRANCH   1  30
TORSDOF 11
ENDMDL
MODEL 8
REMARK VINA RESULT:      -7.4      3.188      9.057
REMARK  Name = 
REMARK  11 active torsions:
REMARK  status: ('A' for Active; 'I' for Inactive)
REMARK    1  A    between atoms: C_2  and  O_4
REMARK    2  A    between atoms: O_4  and  C_5
REMARK    3  A    between atoms: C_5  and  C_7
REMARK    4  A    between atoms: C_7  and  N_9
REMARK    5  A    between atoms: N_9  and  P_10
REMARK    6  A    between atoms: P_10  and  O_12
REMARK    7  A    between atoms: P_10  and  O_30
REMARK    8  A    between atoms: O_12  and  C_13
REMARK    9  A    between atoms: C_13  and  C_14
REMARK   10  A    between atoms: C_16  and  N_17
REMARK   11  A    between atoms: O_30  and  C_31
REMARK                            x       y       z     vdW  Elec       q    Type
REMARK                         _______ _______ _______ _____ _____    ______ ____
ROOT
ATOM      1  P   UNL     1     -10.961  15.515  68.352  0.00  0.00    +0.480 P 
ATOM      2  O   UNL     1      -9.701  15.081  69.031  0.00  0.00    -0.227 OA
ENDROOT
BRANCH   1   3
ATOM      3  N   UNL     1     -10.628  16.676  67.072  0.00  0.00    -0.101 NA
BRANCH   3   4
ATOM      4  C   UNL     1      -9.202  17.244  67.419  0.00  0.00    +0.183 C 
ATOM      5  C   UNL     1      -8.508  16.398  66.193  0.00  0.00    +0.031 C 
BRANCH   4   6
ATOM      6  C   UNL     1      -9.424  18.551  66.500  0.00  0.00    +0.333 C 
ATOM      7  O   UNL     1     -10.437  18.464  65.740  0.00  0.00    -0.249 OA
BRANCH   6   8
ATOM      8  O   UNL     1      -8.233  18.791  65.801  0.00  0.00    -0.451 OA
BRANCH   8  10
ATOM      9  C   UNL     1      -7.078  20.353  67.240  0.00  0.00    +0.047 C 
ATOM     10  C   UNL     1      -7.562  20.039  65.854  0.00  0.00    +0.169 C 
ATOM     11  C   UNL     1      -6.361  20.054  64.948  0.00  0.00    +0.047 C 
ENDBRANCH   8  10
ENDBRANCH   6   8
ENDBRANCH   4   6
ENDBRANCH   3   4
ENDBRANCH   1   3
BRANCH   1  12
ATOM     12  O   UNL     1     -11.704  14.193  67.630  0.00  0.00    -0.270 OA
BRANCH  12  13
ATOM     13  C   UNL     1     -10.892  13.467  66.861  0.00  0.00    +0.186 C 
BRANCH  13  14
ATOM     14  C   UNL     1     -11.087  11.863  67.167  0.00  0.00    +0.180 C 
ATOM     15  C   UNL     1      -9.455  11.475  66.795  0.00  0.00    +0.215 C 
ATOM     16  O   UNL     1      -8.823  12.431  67.788  0.00  0.00    -0.217 OA
ATOM     17  C   UNL     1      -9.720  10.199  67.781  0.00  0.00    +0.209 C 
ATOM     18  F   UNL     1      -8.529   9.620  67.726  0.00  0.00    -0.233 F 
ATOM     19  C   UNL     1     -10.937   9.540  67.450  0.00  0.00    +0.043 C 
ATOM     20  C   UNL     1      -9.844  11.126  69.122  0.00  0.00    +0.241 C 
ATOM     21  O   UNL     1     -10.889  12.074  68.612  0.00  0.00    -0.331 OA
BRANCH  20  22
ATOM     22  N   UNL     1     -10.919  10.186  69.833  0.00  0.00    -0.253 N 
ATOM     23  C   UNL     1     -10.361   9.426  70.811  0.00  0.00    +0.355 A 
ATOM     24  O   UNL     1      -9.163   9.162  70.952  0.00  0.00    -0.244 OA
ATOM     25  N   UNL     1     -11.236   8.647  71.494  0.00  0.00    -0.153 NA
ATOM     26  C   UNL     1     -12.549   8.963  71.506  0.00  0.00    +0.285 A 
ATOM     27  O   UNL     1     -13.457   8.085  71.640  0.00  0.00    -0.265 OA
ATOM     28  C   UNL     1     -12.836  10.288  71.202  0.00  0.00    +0.081 A 
ATOM     29  C   UNL     1     -11.914  10.942  70.390  0.00  0.00    +0.087 A 
ENDBRANCH  20  22
ENDBRANCH  13  14
ENDBRANCH  12  13
ENDBRANCH   1  12
BRANCH   1  30
ATOM     30  O   UNL     1     -12.128  16.143  69.425  0.00  0.00    -0.411 OA
BRANCH  30  31
ATOM     31  C   UNL     1     -12.259  15.546  70.661  0.00  0.00    +0.148 A 
ATOM     32  C   UNL     1     -11.686  16.163  71.766  0.00  0.00    +0.037 A 
ATOM     33  C   UNL     1     -12.367  16.196  72.980  0.00  0.00    +0.003 A 
ATOM     34  C   UNL     1     -13.565  15.522  73.142  0.00  0.00    +0.000 A 
ATOM     35  C   UNL     1     -13.883  14.592  72.166  0.00  0.00    +0.003 A 
ATOM     36  C   UNL     1     -13.231  14.599  70.953  0.00  0.00    +0.037 A 
ENDBRANCH  30  31
ENDBRANCH   1  30
TORSDOF 11
ENDMDL
MODEL 9
REMARK VINA RESULT:      -7.4      1.969      3.859
REMARK  Name = 
REMARK  11 active torsions:
REMARK  status: ('A' for Active; 'I' for Inactive)
REMARK    1  A    between atoms: C_2  and  O_4
REMARK    2  A    between atoms: O_4  and  C_5
REMARK    3  A    between atoms: C_5  and  C_7
REMARK    4  A    between atoms: C_7  and  N_9
REMARK    5  A    between atoms: N_9  and  P_10
REMARK    6  A    between atoms: P_10  and  O_12
REMARK    7  A    between atoms: P_10  and  O_30
REMARK    8  A    between atoms: O_12  and  C_13
REMARK    9  A    between atoms: C_13  and  C_14
REMARK   10  A    between atoms: C_16  and  N_17
REMARK   11  A    between atoms: O_30  and  C_31
REMARK                            x       y       z     vdW  Elec       q    Type
REMARK                         _______ _______ _______ _____ _____    ______ ____
ROOT
ATOM      1  P   UNL     1     -11.235  15.324  68.203  0.00  0.00    +0.480 P 
ATOM      2  O   UNL     1     -11.691  15.201  66.784  0.00  0.00    -0.227 OA
ENDROOT
BRANCH   1   3
ATOM      3  N   UNL     1     -10.614  13.792  68.808  0.00  0.00    -0.101 NA
BRANCH   3   4
ATOM      4  C   UNL     1     -10.098  13.044  67.523  0.00  0.00    +0.183 C 
ATOM      5  C   UNL     1      -8.882  12.327  68.364  0.00  0.00    +0.031 C 
BRANCH   4   6
ATOM      6  C   UNL     1     -11.103  11.803  67.759  0.00  0.00    +0.333 C 
ATOM      7  O   UNL     1     -12.044  11.751  66.909  0.00  0.00    -0.249 OA
BRANCH   6   8
ATOM      8  O   UNL     1     -11.562  11.869  69.082  0.00  0.00    -0.451 OA
BRANCH   8  10
ATOM      9  C   UNL     1     -10.935   9.737  70.035  0.00  0.00    +0.047 C 
ATOM     10  C   UNL     1     -12.034  10.727  69.777  0.00  0.00    +0.169 C 
ATOM     11  C   UNL     1     -12.619  11.102  71.111  0.00  0.00    +0.047 C 
ENDBRANCH   8  10
ENDBRANCH   6   8
ENDBRANCH   4   6
ENDBRANCH   3   4
ENDBRANCH   1   3
BRANCH   1  12
ATOM     12  O   UNL     1      -9.976  16.432  68.302  0.00  0.00    -0.270 OA
BRANCH  12  13
ATOM     13  C   UNL     1      -9.989  17.357  67.342  0.00  0.00    +0.186 C 
BRANCH  13  14
ATOM     14  C   UNL     1      -8.475  17.941  67.080  0.00  0.00    +0.180 C 
ATOM     15  C   UNL     1      -9.009  19.561  66.874  0.00  0.00    +0.215 C 
ATOM     16  O   UNL     1      -9.716  19.678  68.210  0.00  0.00    -0.217 OA
ATOM     17  C   UNL     1      -7.489  19.934  67.341  0.00  0.00    +0.209 C 
ATOM     18  F   UNL     1      -7.557  21.257  67.298  0.00  0.00    -0.233 F 
ATOM     19  C   UNL     1      -6.529  19.167  66.621  0.00  0.00    +0.043 C 
ATOM     20  C   UNL     1      -7.712  19.400  68.869  0.00  0.00    +0.241 C 
ATOM     21  O   UNL     1      -8.215  18.028  68.528  0.00  0.00    -0.331 OA
BRANCH  20  22
ATOM     22  N   UNL     1      -6.210  18.898  69.055  0.00  0.00    -0.253 N 
ATOM     23  C   UNL     1      -5.506  19.704  69.893  0.00  0.00    +0.355 A 
ATOM     24  O   UNL     1      -5.784  20.862  70.215  0.00  0.00    -0.244 OA
ATOM     25  N   UNL     1      -4.236  19.296  70.139  0.00  0.00    -0.153 NA
ATOM     26  C   UNL     1      -3.897  18.002  69.950  0.00  0.00    +0.285 A 
ATOM     27  O   UNL     1      -2.716  17.648  69.646  0.00  0.00    -0.265 OA
ATOM     28  C   UNL     1      -4.962  17.111  69.953  0.00  0.00    +0.081 A 
ATOM     29  C   UNL     1      -6.194  17.628  69.563  0.00  0.00    +0.087 A 
ENDBRANCH  20  22
ENDBRANCH  13  14
ENDBRANCH  12  13
ENDBRANCH   1  12
BRANCH   1  30
ATOM     30  O   UNL     1     -12.435  15.928  69.252  0.00  0.00    -0.411 OA
BRANCH  30  31
ATOM     31  C   UNL     1     -12.474  15.440  70.541  0.00  0.00    +0.148 A 
ATOM     32  C   UNL     1     -11.633  15.999  71.495  0.00  0.00    +0.037 A 
ATOM     33  C   UNL     1     -12.098  16.231  72.786  0.00  0.00    +0.003 A 
ATOM     34  C   UNL     1     -13.356  15.807  73.177  0.00  0.00    +0.000 A 
ATOM     35  C   UNL     1     -13.985  14.900  72.339  0.00  0.00    +0.003 A 
ATOM     36  C   UNL     1     -13.542  14.713  71.050  0.00  0.00    +0.037 A 
ENDBRANCH  30  31
ENDBRANCH   1  30
TORSDOF 11
ENDMDL
