MODEL 1
REMARK VINA RESULT:      -6.6      0.000      0.000
REMARK  Name = 
REMARK  7 active torsions:
REMARK  status: ('A' for Active; 'I' for Inactive)
REMARK    1  A    between atoms: O_2  and  C_3
REMARK    2  A    between atoms: C_6  and  C_7
REMARK    3  A    between atoms: N_15  and  C_16
REMARK    4  A    between atoms: C_16  and  C_17
REMARK    5  A    between atoms: C_17  and  N_18
REMARK    6  A    between atoms: C_23  and  O_24
REMARK    7  A    between atoms: O_24  and  C_25
REMARK                            x       y       z     vdW  Elec       q    Type
REMARK                         _______ _______ _______ _____ _____    ______ ____
ROOT
ATOM      1  C   UNL     1      -8.802  16.241  67.835  0.00  0.00    +0.123 C 
ATOM      2  C   UNL     1     -10.339  16.419  67.160  0.00  0.00    +0.259 C 
ATOM      3  C   UNL     1     -11.050  15.791  68.463  0.00  0.00    +0.271 C 
ATOM      4  O   UNL     1     -11.925  16.610  68.879  0.00  0.00    -0.271 OA
ATOM      5  N   UNL     1     -11.132  14.474  68.894  0.00  0.00    -0.254 N 
ATOM      6  C   UNL     1     -10.506  13.327  68.310  0.00  0.00    +0.060 A 
ATOM      7  C   UNL     1      -9.256  13.278  67.702  0.00  0.00    +0.039 A 
ATOM      8  C   UNL     1      -9.008  12.182  66.884  0.00  0.00    +0.007 A 
ATOM      9  C   UNL     1     -10.003  11.295  66.506  0.00  0.00    +0.001 A 
ATOM     10  C   UNL     1     -11.199  11.297  67.168  0.00  0.00    +0.001 A 
ATOM     11  C   UNL     1     -11.347  12.227  68.192  0.00  0.00    +0.015 A 
ATOM     12  S   UNL     1      -8.184  14.599  67.155  0.00  0.00    -0.105 S 
ENDROOT
BRANCH   1  16
ATOM     13  C   UNL     1      -6.356  19.316  66.459  0.00  0.00    +0.139 A 
ATOM     14  C   UNL     1      -5.862  18.017  66.430  0.00  0.00    +0.037 A 
ATOM     15  C   UNL     1      -6.705  16.934  66.652  0.00  0.00    -0.000 A 
ATOM     16  C   UNL     1      -8.082  17.106  66.767  0.00  0.00    -0.008 A 
ATOM     17  C   UNL     1      -8.537  18.345  66.425  0.00  0.00    -0.000 A 
ATOM     18  C   UNL     1      -7.710  19.434  66.175  0.00  0.00    +0.037 A 
BRANCH  13  20
ATOM     19  C   UNL     1      -5.901  21.060  67.446  0.00  0.00    +0.252 C 
ATOM     20  O   UNL     1      -5.656  20.337  67.112  0.00  0.00    -0.471 OA
ENDBRANCH  13  20
ENDBRANCH   1  16
BRANCH   2  21
ATOM     21  O   UNL     1     -10.360  15.120  66.335  0.00  0.00    -0.441 OA
BRANCH  21  22
ATOM     22  C   UNL     1     -11.045  15.258  65.151  0.00  0.00    +0.318 C 
ATOM     23  O   UNL     1     -10.932  16.388  64.585  0.00  0.00    -0.250 OA
ATOM     24  C   UNL     1     -12.022  14.247  64.691  0.00  0.00    +0.121 C 
ENDBRANCH  21  22
ENDBRANCH   2  21
BRANCH   5  25
ATOM     25  C   UNL     1     -12.324  14.111  69.658  0.00  0.00    +0.116 C 
BRANCH  25  26
ATOM     26  C   UNL     1     -12.163  14.173  71.123  0.00  0.00    +0.094 C 
BRANCH  26  27
ATOM     27  N   UNL     1     -12.861  15.235  71.791  0.00  0.00    -0.269 NA
ATOM     28  C   UNL     1     -12.566  15.253  73.223  0.00  0.00    +0.090 C 
ATOM     29  C   UNL     1     -14.279  14.891  71.693  0.00  0.00    +0.090 C 
ENDBRANCH  26  27
ENDBRANCH  25  26
ENDBRANCH   5  25
TORSDOF 7
ENDMDL
MODEL 2
REMARK VINA RESULT:      -6.6      1.341      1.932
REMARK  Name = 
REMARK  7 active torsions:
REMARK  status: ('A' for Active; 'I' for Inactive)
REMARK    1  A    between atoms: O_2  and  C_3
REMARK    2  A    between atoms: C_6  and  C_7
REMARK    3  A    between atoms: N_15  and  C_16
REMARK    4  A    between atoms: C_16  and  C_17
REMARK    5  A    between atoms: C_17  and  N_18
REMARK    6  A    between atoms: C_23  and  O_24
REMARK    7  A    between atoms: O_24  and  C_25
REMARK                            x       y       z     vdW  Elec       q    Type
REMARK                         _______ _______ _______ _____ _____    ______ ____
ROOT
ATOM      1  C   UNL     1      -8.188  15.778  69.002  0.00  0.00    +0.123 C 
ATOM      2  C   UNL     1      -9.479  16.764  68.546  0.00  0.00    +0.259 C 
ATOM      3  C   UNL     1     -10.525  15.903  69.419  0.00  0.00    +0.271 C 
ATOM      4  O   UNL     1     -11.139  16.689  70.203  0.00  0.00    -0.271 OA
ATOM      5  N   UNL     1     -11.083  14.655  69.178  0.00  0.00    -0.254 N 
ATOM      6  C   UNL     1     -10.785  13.763  68.098  0.00  0.00    +0.060 A 
ATOM      7  C   UNL     1      -9.547  13.566  67.497  0.00  0.00    +0.039 A 
ATOM      8  C   UNL     1      -9.555  12.953  66.250  0.00  0.00    +0.007 A 
ATOM      9  C   UNL     1     -10.721  12.743  65.531  0.00  0.00    +0.001 A 
ATOM     10  C   UNL     1     -11.931  12.859  66.156  0.00  0.00    +0.001 A 
ATOM     11  C   UNL     1     -11.911  13.206  67.502  0.00  0.00    +0.015 A 
ATOM     12  S   UNL     1      -8.044  14.526  67.605  0.00  0.00    -0.105 S 
ENDROOT
BRANCH   1  16
ATOM     13  C   UNL     1      -6.596  18.671  66.468  0.00  0.00    +0.139 A 
ATOM     14  C   UNL     1      -6.930  19.042  67.765  0.00  0.00    +0.037 A 
ATOM     15  C   UNL     1      -7.242  18.080  68.719  0.00  0.00    -0.000 A 
ATOM     16  C   UNL     1      -7.090  16.723  68.447  0.00  0.00    -0.008 A 
ATOM     17  C   UNL     1      -6.418  16.439  67.296  0.00  0.00    -0.000 A 
ATOM     18  C   UNL     1      -6.076  17.390  66.342  0.00  0.00    +0.037 A 
BRANCH  13  20
ATOM     19  C   UNL     1      -6.815  19.979  64.899  0.00  0.00    +0.252 C 
ATOM     20  O   UNL     1      -7.116  19.359  65.366  0.00  0.00    -0.471 OA
ENDBRANCH  13  20
ENDBRANCH   1  16
BRANCH   2  21
ATOM     21  O   UNL     1      -9.803  16.081  67.205  0.00  0.00    -0.441 OA
BRANCH  21  22
ATOM     22  C   UNL     1     -10.264  16.967  66.260  0.00  0.00    +0.318 C 
ATOM     23  O   UNL     1     -10.443  16.484  65.101  0.00  0.00    -0.250 OA
ATOM     24  C   UNL     1     -10.326  18.423  66.518  0.00  0.00    +0.121 C 
ENDBRANCH  21  22
ENDBRANCH   2  21
BRANCH   5  25
ATOM     25  C   UNL     1     -12.422  14.423  69.719  0.00  0.00    +0.116 C 
BRANCH  25  26
ATOM     26  C   UNL     1     -12.452  13.691  70.999  0.00  0.00    +0.094 C 
BRANCH  26  27
ATOM     27  N   UNL     1     -13.423  14.137  71.959  0.00  0.00    -0.269 NA
ATOM     28  C   UNL     1     -14.361  15.090  71.368  0.00  0.00    +0.090 C 
ATOM     29  C   UNL     1     -12.667  14.902  72.950  0.00  0.00    +0.090 C 
ENDBRANCH  26  27
ENDBRANCH  25  26
ENDBRANCH   5  25
TORSDOF 7
ENDMDL
MODEL 3
REMARK VINA RESULT:      -6.4      2.684      7.038
REMARK  Name = 
REMARK  7 active torsions:
REMARK  status: ('A' for Active; 'I' for Inactive)
REMARK    1  A    between atoms: O_2  and  C_3
REMARK    2  A    between atoms: C_6  and  C_7
REMARK    3  A    between atoms: N_15  and  C_16
REMARK    4  A    between atoms: C_16  and  C_17
REMARK    5  A    between atoms: C_17  and  N_18
REMARK    6  A    between atoms: C_23  and  O_24
REMARK    7  A    between atoms: O_24  and  C_25
REMARK                            x       y       z     vdW  Elec       q    Type
REMARK                         _______ _______ _______ _____ _____    ______ ____
ROOT
ATOM      1  C   UNL     1      -9.758  14.994  68.961  0.00  0.00    +0.123 C 
ATOM      2  C   UNL     1      -9.320  14.645  67.369  0.00  0.00    +0.259 C 
ATOM      3  C   UNL     1      -7.883  15.352  67.545  0.00  0.00    +0.271 C 
ATOM      4  O   UNL     1      -6.982  14.522  67.215  0.00  0.00    -0.271 OA
ATOM      5  N   UNL     1      -7.544  16.697  67.593  0.00  0.00    -0.254 N 
ATOM      6  C   UNL     1      -8.434  17.820  67.587  0.00  0.00    +0.060 A 
ATOM      7  C   UNL     1      -9.689  17.891  68.180  0.00  0.00    +0.039 A 
ATOM      8  C   UNL     1     -10.524  18.912  67.742  0.00  0.00    +0.007 A 
ATOM      9  C   UNL     1     -10.232  19.687  66.630  0.00  0.00    +0.001 A 
ATOM     10  C   UNL     1      -8.969  19.670  66.107  0.00  0.00    +0.001 A 
ATOM     11  C   UNL     1      -8.042  18.842  66.731  0.00  0.00    +0.015 A 
ATOM     12  S   UNL     1     -10.735  16.597  68.832  0.00  0.00    -0.105 S 
ENDROOT
BRANCH   1  16
ATOM     13  C   UNL     1     -12.051  11.709  70.088  0.00  0.00    +0.139 A 
ATOM     14  C   UNL     1     -12.374  12.951  70.620  0.00  0.00    +0.037 A 
ATOM     15  C   UNL     1     -11.802  14.111  70.108  0.00  0.00    -0.000 A 
ATOM     16  C   UNL     1     -11.009  14.076  68.965  0.00  0.00    -0.008 A 
ATOM     17  C   UNL     1     -11.030  12.895  68.286  0.00  0.00    -0.000 A 
ATOM     18  C   UNL     1     -11.617  11.732  68.770  0.00  0.00    +0.037 A 
BRANCH  13  20
ATOM     19  C   UNL     1     -12.298  10.051  71.276  0.00  0.00    +0.252 C 
ATOM     20  O   UNL     1     -11.797  10.614  70.921  0.00  0.00    -0.471 OA
ENDBRANCH  13  20
ENDBRANCH   1  16
BRANCH   2  21
ATOM     21  O   UNL     1     -10.000  15.848  66.693  0.00  0.00    -0.441 OA
BRANCH  21  22
ATOM     22  C   UNL     1     -10.364  15.587  65.393  0.00  0.00    +0.318 C 
ATOM     23  O   UNL     1     -10.796  16.583  64.738  0.00  0.00    -0.250 OA
ATOM     24  C   UNL     1     -10.461  14.206  64.872  0.00  0.00    +0.121 C 
ENDBRANCH  21  22
ENDBRANCH   2  21
BRANCH   5  25
ATOM     25  C   UNL     1      -6.217  17.055  67.093  0.00  0.00    +0.116 C 
BRANCH  25  26
ATOM     26  C   UNL     1      -5.189  17.225  68.136  0.00  0.00    +0.094 C 
BRANCH  26  27
ATOM     27  N   UNL     1      -5.671  17.411  69.476  0.00  0.00    -0.269 NA
ATOM     28  C   UNL     1      -5.384  18.758  69.966  0.00  0.00    +0.090 C 
ATOM     29  C   UNL     1      -4.867  16.517  70.307  0.00  0.00    +0.090 C 
ENDBRANCH  26  27
ENDBRANCH  25  26
ENDBRANCH   5  25
TORSDOF 7
ENDMDL
MODEL 4
REMARK VINA RESULT:      -6.4      1.803      2.350
REMARK  Name = 
REMARK  7 active torsions:
REMARK  status: ('A' for Active; 'I' for Inactive)
REMARK    1  A    between atoms: O_2  and  C_3
REMARK    2  A    between atoms: C_6  and  C_7
REMARK    3  A    between atoms: N_15  and  C_16
REMARK    4  A    between atoms: C_16  and  C_17
REMARK    5  A    between atoms: C_17  and  N_18
REMARK    6  A    between atoms: C_23  and  O_24
REMARK    7  A    between atoms: O_24  and  C_25
REMARK                            x       y       z     vdW  Elec       q    Type
REMARK                         _______ _______ _______ _____ _____    ______ ____
ROOT
ATOM      1  C   UNL     1      -8.409  16.683  68.535  0.00  0.00    +0.123 C 
ATOM      2  C   UNL     1      -9.834  17.574  68.387  0.00  0.00    +0.259 C 
ATOM      3  C   UNL     1     -10.685  16.458  69.179  0.00  0.00    +0.271 C 
ATOM      4  O   UNL     1     -11.284  17.019  70.147  0.00  0.00    -0.271 OA
ATOM      5  N   UNL     1     -11.140  15.214  68.764  0.00  0.00    -0.254 N 
ATOM      6  C   UNL     1     -10.876  14.563  67.516  0.00  0.00    +0.060 A 
ATOM      7  C   UNL     1      -9.699  14.620  66.779  0.00  0.00    +0.039 A 
ATOM      8  C   UNL     1      -9.784  14.235  65.446  0.00  0.00    +0.007 A 
ATOM      9  C   UNL     1     -10.996  14.017  64.810  0.00  0.00    +0.001 A 
ATOM     10  C   UNL     1     -12.135  13.880  65.553  0.00  0.00    +0.001 A 
ATOM     11  C   UNL     1     -12.000  13.989  66.934  0.00  0.00    +0.015 A 
ATOM     12  S   UNL     1      -8.296  15.717  66.925  0.00  0.00    -0.105 S 
ENDROOT
BRANCH   1  16
ATOM     13  C   UNL     1      -5.085  19.183  68.700  0.00  0.00    +0.139 A 
ATOM     14  C   UNL     1      -5.099  18.168  67.751  0.00  0.00    +0.037 A 
ATOM     15  C   UNL     1      -6.266  17.457  67.493  0.00  0.00    -0.000 A 
ATOM     16  C   UNL     1      -7.478  17.833  68.066  0.00  0.00    -0.008 A 
ATOM     17  C   UNL     1      -7.468  19.044  68.691  0.00  0.00    -0.000 A 
ATOM     18  C   UNL     1      -6.316  19.781  68.936  0.00  0.00    +0.037 A 
BRANCH  13  20
ATOM     19  C   UNL     1      -3.265  18.970  69.629  0.00  0.00    +0.252 C 
ATOM     20  O   UNL     1      -4.029  19.301  69.611  0.00  0.00    -0.471 OA
ENDBRANCH  13  20
ENDBRANCH   1  16
BRANCH   2  21
ATOM     21  O   UNL     1     -10.235  17.101  66.979  0.00  0.00    -0.441 OA
BRANCH  21  22
ATOM     22  C   UNL     1     -10.610  18.139  66.160  0.00  0.00    +0.318 C 
ATOM     23  O   UNL     1     -10.918  17.813  64.973  0.00  0.00    -0.250 OA
ATOM     24  C   UNL     1     -10.444  19.552  66.565  0.00  0.00    +0.121 C 
ENDBRANCH  21  22
ENDBRANCH   2  21
BRANCH   5  25
ATOM     25  C   UNL     1     -12.380  14.736  69.373  0.00  0.00    +0.116 C 
BRANCH  25  26
ATOM     26  C   UNL     1     -12.207  14.027  70.655  0.00  0.00    +0.094 C 
BRANCH  26  27
ATOM     27  N   UNL     1     -13.239  14.226  71.633  0.00  0.00    -0.269 NA
ATOM     28  C   UNL     1     -12.761  15.025  72.760  0.00  0.00    +0.090 C 
ATOM     29  C   UNL     1     -13.511  12.900  72.187  0.00  0.00    +0.090 C 
ENDBRANCH  26  27
ENDBRANCH  25  26
ENDBRANCH   5  25
TORSDOF 7
ENDMDL
MODEL 5
REMARK VINA RESULT:      -6.2      2.214      4.489
REMARK  Name = 
REMARK  7 active torsions:
REMARK  status: ('A' for Active; 'I' for Inactive)
REMARK    1  A    between atoms: O_2  and  C_3
REMARK    2  A    between atoms: C_6  and  C_7
REMARK    3  A    between atoms: N_15  and  C_16
REMARK    4  A    between atoms: C_16  and  C_17
REMARK    5  A    between atoms: C_17  and  N_18
REMARK    6  A    between atoms: C_23  and  O_24
REMARK    7  A    between atoms: O_24  and  C_25
REMARK                            x       y       z     vdW  Elec       q    Type
REMARK                         _______ _______ _______ _____ _____    ______ ____
ROOT
ATOM      1  C   UNL     1      -9.746  17.484  66.583  0.00  0.00    +0.123 C 
ATOM      2  C   UNL     1      -8.831  16.066  66.605  0.00  0.00    +0.259 C 
ATOM      3  C   UNL     1     -10.098  15.170  66.169  0.00  0.00    +0.271 C 
ATOM      4  O   UNL     1      -9.784  14.503  65.136  0.00  0.00    -0.271 OA
ATOM      5  N   UNL     1     -11.198  14.753  66.905  0.00  0.00    -0.254 N 
ATOM      6  C   UNL     1     -11.528  15.105  68.253  0.00  0.00    +0.060 A 
ATOM      7  C   UNL     1     -11.304  16.329  68.873  0.00  0.00    +0.039 A 
ATOM      8  C   UNL     1     -11.351  16.338  70.262  0.00  0.00    +0.007 A 
ATOM      9  C   UNL     1     -11.396  15.173  71.012  0.00  0.00    +0.001 A 
ATOM     10  C   UNL     1     -11.699  13.987  70.404  0.00  0.00    +0.001 A 
ATOM     11  C   UNL     1     -11.931  14.027  69.033  0.00  0.00    +0.015 A 
ATOM     12  S   UNL     1     -10.290  17.712  68.369  0.00  0.00    -0.105 S 
ENDROOT
BRANCH   1  16
ATOM     13  C   UNL     1      -6.033  18.750  67.975  0.00  0.00    +0.139 A 
ATOM     14  C   UNL     1      -6.112  18.228  66.690  0.00  0.00    +0.037 A 
ATOM     15  C   UNL     1      -7.347  18.009  66.089  0.00  0.00    -0.000 A 
ATOM     16  C   UNL     1      -8.526  18.436  66.694  0.00  0.00    -0.008 A 
ATOM     17  C   UNL     1      -8.356  19.258  67.767  0.00  0.00    -0.000 A 
ATOM     18  C   UNL     1      -7.128  19.509  68.367  0.00  0.00    +0.037 A 
BRANCH  13  20
ATOM     19  C   UNL     1      -5.248  17.731  69.577  0.00  0.00    +0.252 C 
ATOM     20  O   UNL     1      -5.139  18.221  68.912  0.00  0.00    -0.471 OA
ENDBRANCH  13  20
ENDBRANCH   1  16
BRANCH   2  21
ATOM     21  O   UNL     1      -8.943  15.764  68.110  0.00  0.00    -0.441 OA
BRANCH  21  22
ATOM     22  C   UNL     1      -7.825  15.137  68.606  0.00  0.00    +0.318 C 
ATOM     23  O   UNL     1      -7.702  15.160  69.869  0.00  0.00    -0.250 OA
ATOM     24  C   UNL     1      -6.733  14.671  67.724  0.00  0.00    +0.121 C 
ENDBRANCH  21  22
ENDBRANCH   2  21
BRANCH   5  25
ATOM     25  C   UNL     1     -11.798  13.477  66.516  0.00  0.00    +0.116 C 
BRANCH  25  26
ATOM     26  C   UNL     1     -12.751  13.559  65.393  0.00  0.00    +0.094 C 
BRANCH  26  27
ATOM     27  N   UNL     1     -12.682  12.498  64.428  0.00  0.00    -0.269 NA
ATOM     28  C   UNL     1     -11.610  11.556  64.743  0.00  0.00    +0.090 C 
ATOM     29  C   UNL     1     -12.280  13.137  63.176  0.00  0.00    +0.090 C 
ENDBRANCH  26  27
ENDBRANCH  25  26
ENDBRANCH   5  25
TORSDOF 7
ENDMDL
MODEL 6
REMARK VINA RESULT:      -6.1      2.614      5.699
REMARK  Name = 
REMARK  7 active torsions:
REMARK  status: ('A' for Active; 'I' for Inactive)
REMARK    1  A    between atoms: O_2  and  C_3
REMARK    2  A    between atoms: C_6  and  C_7
REMARK    3  A    between atoms: N_15  and  C_16
REMARK    4  A    between atoms: C_16  and  C_17
REMARK    5  A    between atoms: C_17  and  N_18
REMARK    6  A    between atoms: C_23  and  O_24
REMARK    7  A    between atoms: O_24  and  C_25
REMARK                            x       y       z     vdW  Elec       q    Type
REMARK                         _______ _______ _______ _____ _____    ______ ____
ROOT
ATOM      1  C   UNL     1     -11.898  12.882  66.511  0.00  0.00    +0.123 C 
ATOM      2  C   UNL     1     -10.738  12.512  67.679  0.00  0.00    +0.259 C 
ATOM      3  C   UNL     1     -11.477  13.420  68.787  0.00  0.00    +0.271 C 
ATOM      4  O   UNL     1     -11.695  12.707  69.813  0.00  0.00    -0.271 OA
ATOM      5  N   UNL     1     -11.525  14.800  68.931  0.00  0.00    -0.254 N 
ATOM      6  C   UNL     1     -10.983  15.786  68.045  0.00  0.00    +0.060 A 
ATOM      7  C   UNL     1     -10.917  15.714  66.658  0.00  0.00    +0.039 A 
ATOM      8  C   UNL     1     -10.032  16.585  66.034  0.00  0.00    +0.007 A 
ATOM      9  C   UNL     1      -9.102  17.333  66.739  0.00  0.00    +0.001 A 
ATOM     10  C   UNL     1      -9.226  17.463  68.094  0.00  0.00    +0.001 A 
ATOM     11  C   UNL     1     -10.296  16.806  68.693  0.00  0.00    +0.015 A 
ATOM     12  S   UNL     1     -11.154  14.325  65.559  0.00  0.00    -0.105 S 
ENDROOT
BRANCH   1  16
ATOM     13  C   UNL     1      -9.119  10.557  64.461  0.00  0.00    +0.139 A 
ATOM     14  C   UNL     1      -9.847   9.964  65.486  0.00  0.00    +0.037 A 
ATOM     15  C   UNL     1     -10.942  10.614  66.044  0.00  0.00    -0.000 A 
ATOM     16  C   UNL     1     -11.426  11.801  65.502  0.00  0.00    -0.008 A 
ATOM     17  C   UNL     1     -10.902  12.136  64.290  0.00  0.00    -0.000 A 
ATOM     18  C   UNL     1      -9.824  11.484  63.704  0.00  0.00    +0.037 A 
BRANCH  13  20
ATOM     19  C   UNL     1      -7.172   9.945  64.694  0.00  0.00    +0.252 C 
ATOM     20  O   UNL     1      -7.720  10.527  64.462  0.00  0.00    -0.471 OA
ENDBRANCH  13  20
ENDBRANCH   1  16
BRANCH   2  21
ATOM     21  O   UNL     1      -9.694  13.572  67.286  0.00  0.00    -0.441 OA
BRANCH  21  22
ATOM     22  C   UNL     1      -8.409  13.182  67.581  0.00  0.00    +0.318 C 
ATOM     23  O   UNL     1      -8.279  11.980  67.963  0.00  0.00    -0.250 OA
ATOM     24  C   UNL     1      -7.298  14.154  67.665  0.00  0.00    +0.121 C 
ENDBRANCH  21  22
ENDBRANCH   2  21
BRANCH   5  25
ATOM     25  C   UNL     1     -11.657  15.310  70.294  0.00  0.00    +0.116 C 
BRANCH  25  26
ATOM     26  C   UNL     1     -13.044  15.562  70.728  0.00  0.00    +0.094 C 
BRANCH  26  27
ATOM     27  N   UNL     1     -13.273  15.557  72.146  0.00  0.00    -0.269 NA
ATOM     28  C   UNL     1     -12.069  15.933  72.884  0.00  0.00    +0.090 C 
ATOM     29  C   UNL     1     -13.520  14.159  72.495  0.00  0.00    +0.090 C 
ENDBRANCH  26  27
ENDBRANCH  25  26
ENDBRANCH   5  25
TORSDOF 7
ENDMDL
MODEL 7
REMARK VINA RESULT:      -6.0      2.523      3.289
REMARK  Name = 
REMARK  7 active torsions:
REMARK  status: ('A' for Active; 'I' for Inactive)
REMARK    1  A    between atoms: O_2  and  C_3
REMARK    2  A    between atoms: C_6  and  C_7
REMARK    3  A    between atoms: N_15  and  C_16
REMARK    4  A    between atoms: C_16  and  C_17
REMARK    5  A    between atoms: C_17  and  N_18
REMARK    6  A    between atoms: C_23  and  O_24
REMARK    7  A    between atoms: O_24  and  C_25
REMARK                            x       y       z     vdW  Elec       q    Type
REMARK                         _______ _______ _______ _____ _____    ______ ____
ROOT
ATOM      1  C   UNL     1      -9.857  14.314  68.148  0.00  0.00    +0.123 C 
ATOM      2  C   UNL     1     -11.461  13.940  67.781  0.00  0.00    +0.259 C 
ATOM      3  C   UNL     1     -11.490  12.739  68.856  0.00  0.00    +0.271 C 
ATOM      4  O   UNL     1     -12.468  12.926  69.642  0.00  0.00    -0.271 OA
ATOM      5  N   UNL     1     -10.933  11.470  68.800  0.00  0.00    -0.254 N 
ATOM      6  C   UNL     1     -10.092  10.933  67.772  0.00  0.00    +0.060 A 
ATOM      7  C   UNL     1      -9.137  11.622  67.033  0.00  0.00    +0.039 A 
ATOM      8  C   UNL     1      -8.711  11.019  65.855  0.00  0.00    +0.007 A 
ATOM      9  C   UNL     1      -9.344   9.909  65.317  0.00  0.00    +0.001 A 
ATOM     10  C   UNL     1     -10.219   9.191  66.083  0.00  0.00    +0.001 A 
ATOM     11  C   UNL     1     -10.436   9.645  67.381  0.00  0.00    +0.015 A 
ATOM     12  S   UNL     1      -8.856  13.378  66.858  0.00  0.00    -0.105 S 
ENDROOT
BRANCH   1  16
ATOM     13  C   UNL     1      -8.758  18.259  67.404  0.00  0.00    +0.139 A 
ATOM     14  C   UNL     1      -8.191  17.259  66.624  0.00  0.00    +0.037 A 
ATOM     15  C   UNL     1      -8.688  15.961  66.666  0.00  0.00    -0.000 A 
ATOM     16  C   UNL     1      -9.848  15.658  67.373  0.00  0.00    -0.008 A 
ATOM     17  C   UNL     1     -10.553  16.739  67.810  0.00  0.00    -0.000 A 
ATOM     18  C   UNL     1     -10.084  18.046  67.755  0.00  0.00    +0.037 A 
BRANCH  13  20
ATOM     19  C   UNL     1      -7.441  19.080  68.751  0.00  0.00    +0.252 C 
ATOM     20  O   UNL     1      -7.956  19.169  68.101  0.00  0.00    -0.471 OA
ENDBRANCH  13  20
ENDBRANCH   1  16
BRANCH   2  21
ATOM     21  O   UNL     1     -11.196  13.043  66.559  0.00  0.00    -0.441 OA
BRANCH  21  22
ATOM     22  C   UNL     1     -12.119  13.229  65.558  0.00  0.00    +0.318 C 
ATOM     23  O   UNL     1     -12.959  14.158  65.757  0.00  0.00    -0.250 OA
ATOM     24  C   UNL     1     -12.264  12.270  64.441  0.00  0.00    +0.121 C 
ENDBRANCH  21  22
ENDBRANCH   2  21
BRANCH   5  25
ATOM     25  C   UNL     1     -11.634  10.415  69.531  0.00  0.00    +0.116 C 
BRANCH  25  26
ATOM     26  C   UNL     1     -10.950   9.948  70.751  0.00  0.00    +0.094 C 
BRANCH  26  27
ATOM     27  N   UNL     1     -11.779   9.315  71.737  0.00  0.00    -0.269 NA
ATOM     28  C   UNL     1     -12.114   7.944  71.354  0.00  0.00    +0.090 C 
ATOM     29  C   UNL     1     -13.045  10.045  71.709  0.00  0.00    +0.090 C 
ENDBRANCH  26  27
ENDBRANCH  25  26
ENDBRANCH   5  25
TORSDOF 7
ENDMDL
MODEL 8
REMARK VINA RESULT:      -6.0      2.215      4.531
REMARK  Name = 
REMARK  7 active torsions:
REMARK  status: ('A' for Active; 'I' for Inactive)
REMARK    1  A    between atoms: O_2  and  C_3
REMARK    2  A    between atoms: C_6  and  C_7
REMARK    3  A    between atoms: N_15  and  C_16
REMARK    4  A    between atoms: C_16  and  C_17
REMARK    5  A    between atoms: C_17  and  N_18
REMARK    6  A    between atoms: C_23  and  O_24
REMARK    7  A    between atoms: O_24  and  C_25
REMARK                            x       y       z     vdW  Elec       q    Type
REMARK                         _______ _______ _______ _____ _____    ______ ____
ROOT
ATOM      1  C   UNL     1      -9.517  17.288  66.573  0.00  0.00    +0.123 C 
ATOM      2  C   UNL     1      -8.744  15.789  66.613  0.00  0.00    +0.259 C 
ATOM      3  C   UNL     1     -10.094  15.015  66.193  0.00  0.00    +0.271 C 
ATOM      4  O   UNL     1      -9.850  14.306  65.169  0.00  0.00    -0.271 OA
ATOM      5  N   UNL     1     -11.227  14.716  66.937  0.00  0.00    -0.254 N 
ATOM      6  C   UNL     1     -11.516  15.118  68.281  0.00  0.00    +0.060 A 
ATOM      7  C   UNL     1     -11.172  16.323  68.882  0.00  0.00    +0.039 A 
ATOM      8  C   UNL     1     -11.213  16.356  70.271  0.00  0.00    +0.007 A 
ATOM      9  C   UNL     1     -11.368  15.212  71.038  0.00  0.00    +0.001 A 
ATOM     10  C   UNL     1     -11.786  14.052  70.447  0.00  0.00    +0.001 A 
ATOM     11  C   UNL     1     -12.018  14.095  69.076  0.00  0.00    +0.015 A 
ATOM     12  S   UNL     1     -10.031  17.594  68.357  0.00  0.00    -0.105 S 
ENDROOT
BRANCH   1  16
ATOM     13  C   UNL     1      -6.593  19.929  65.230  0.00  0.00    +0.139 A 
ATOM     14  C   UNL     1      -7.513  20.385  66.166  0.00  0.00    +0.037 A 
ATOM     15  C   UNL     1      -8.357  19.495  66.821  0.00  0.00    -0.000 A 
ATOM     16  C   UNL     1      -8.210  18.119  66.667  0.00  0.00    -0.008 A 
ATOM     17  C   UNL     1      -7.069  17.731  66.031  0.00  0.00    -0.000 A 
ATOM     18  C   UNL     1      -6.200  18.607  65.392  0.00  0.00    +0.037 A 
BRANCH  13  20
ATOM     19  C   UNL     1      -5.729  20.737  63.550  0.00  0.00    +0.252 C 
ATOM     20  O   UNL     1      -6.405  20.603  64.018  0.00  0.00    -0.471 OA
ENDBRANCH  13  20
ENDBRANCH   1  16
BRANCH   2  21
ATOM     21  O   UNL     1      -8.879  15.521  68.122  0.00  0.00    -0.441 OA
BRANCH  21  22
ATOM     22  C   UNL     1      -7.815  14.814  68.630  0.00  0.00    +0.318 C 
ATOM     23  O   UNL     1      -7.615  14.949  69.875  0.00  0.00    -0.250 OA
ATOM     24  C   UNL     1      -6.840  14.131  67.751  0.00  0.00    +0.121 C 
ENDBRANCH  21  22
ENDBRANCH   2  21
BRANCH   5  25
ATOM     25  C   UNL     1     -11.949  13.500  66.567  0.00  0.00    +0.116 C 
BRANCH  25  26
ATOM     26  C   UNL     1     -12.803  13.626  65.371  0.00  0.00    +0.094 C 
BRANCH  26  27
ATOM     27  N   UNL     1     -12.756  12.532  64.443  0.00  0.00    -0.269 NA
ATOM     28  C   UNL     1     -11.755  11.541  64.833  0.00  0.00    +0.090 C 
ATOM     29  C   UNL     1     -12.265  13.105  63.190  0.00  0.00    +0.090 C 
ENDBRANCH  26  27
ENDBRANCH  25  26
ENDBRANCH   5  25
TORSDOF 7
ENDMDL
MODEL 9
REMARK VINA RESULT:      -5.8      2.277      4.634
REMARK  Name = 
REMARK  7 active torsions:
REMARK  status: ('A' for Active; 'I' for Inactive)
REMARK    1  A    between atoms: O_2  and  C_3
REMARK    2  A    between atoms: C_6  and  C_7
REMARK    3  A    between atoms: N_15  and  C_16
REMARK    4  A    between atoms: C_16  and  C_17
REMARK    5  A    between atoms: C_17  and  N_18
REMARK    6  A    between atoms: C_23  and  O_24
REMARK    7  A    between atoms: O_24  and  C_25
REMARK                            x       y       z     vdW  Elec       q    Type
REMARK                         _______ _______ _______ _____ _____    ______ ____
ROOT
ATOM      1  C   UNL     1      -8.502  16.075  67.186  0.00  0.00    +0.123 C 
ATOM      2  C   UNL     1      -9.256  15.217  68.428  0.00  0.00    +0.259 C 
ATOM      3  C   UNL     1      -8.756  13.804  67.837  0.00  0.00    +0.271 C 
ATOM      4  O   UNL     1      -8.140  13.178  68.753  0.00  0.00    -0.271 OA
ATOM      5  N   UNL     1      -9.205  13.079  66.742  0.00  0.00    -0.254 N 
ATOM      6  C   UNL     1     -10.198  13.470  65.787  0.00  0.00    +0.060 A 
ATOM      7  C   UNL     1     -10.434  14.754  65.309  0.00  0.00    +0.039 A 
ATOM      8  C   UNL     1     -11.661  14.969  64.692  0.00  0.00    +0.007 A 
ATOM      9  C   UNL     1     -12.689  14.041  64.736  0.00  0.00    +0.001 A 
ATOM     10  C   UNL     1     -12.426  12.758  65.130  0.00  0.00    +0.001 A 
ATOM     11  C   UNL     1     -11.114  12.468  65.487  0.00  0.00    +0.015 A 
ATOM     12  S   UNL     1      -9.860  16.335  65.910  0.00  0.00    -0.105 S 
ENDROOT
BRANCH   1  16
ATOM     13  C   UNL     1      -7.772  20.134  67.749  0.00  0.00    +0.139 A 
ATOM     14  C   UNL     1      -8.952  19.758  67.119  0.00  0.00    +0.037 A 
ATOM     15  C   UNL     1      -9.358  18.428  67.113  0.00  0.00    -0.000 A 
ATOM     16  C   UNL     1      -8.678  17.465  67.853  0.00  0.00    -0.008 A 
ATOM     17  C   UNL     1      -7.759  17.958  68.730  0.00  0.00    -0.000 A 
ATOM     18  C   UNL     1      -7.358  19.288  68.769  0.00  0.00    +0.037 A 
BRANCH  13  20
ATOM     19  C   UNL     1      -6.071  21.165  67.235  0.00  0.00    +0.252 C 
ATOM     20  O   UNL     1      -6.888  21.034  67.143  0.00  0.00    -0.471 OA
ENDBRANCH  13  20
ENDBRANCH   1  16
BRANCH   2  21
ATOM     21  O   UNL     1     -10.665  15.149  67.813  0.00  0.00    -0.441 OA
BRANCH  21  22
ATOM     22  C   UNL     1     -11.657  15.158  68.765  0.00  0.00    +0.318 C 
ATOM     23  O   UNL     1     -12.063  16.307  69.117  0.00  0.00    -0.250 OA
ATOM     24  C   UNL     1     -12.057  13.932  69.488  0.00  0.00    +0.121 C 
ENDBRANCH  21  22
ENDBRANCH   2  21
BRANCH   5  25
ATOM     25  C   UNL     1      -9.075  11.624  66.824  0.00  0.00    +0.116 C 
BRANCH  25  26
ATOM     26  C   UNL     1      -7.881  11.072  66.157  0.00  0.00    +0.094 C 
BRANCH  26  27
ATOM     27  N   UNL     1      -7.987   9.717  65.692  0.00  0.00    -0.269 NA
ATOM     28  C   UNL     1      -7.802   9.632  64.244  0.00  0.00    +0.090 C 
ATOM     29  C   UNL     1      -9.379   9.333  65.927  0.00  0.00    +0.090 C 
ENDBRANCH  26  27
ENDBRANCH  25  26
ENDBRANCH   5  25
TORSDOF 7
ENDMDL
