MODEL 1
REMARK VINA RESULT:      -7.0      0.000      0.000
REMARK  Name = 
REMARK  5 active torsions:
REMARK  status: ('A' for Active; 'I' for Inactive)
REMARK    1  A    between atoms: C_2  and  C_3
REMARK    2  A    between atoms: CA_4  and  C_5
REMARK    3  A    between atoms: CA_11  and  N_12
REMARK    4  A    between atoms: C_13  and  C_15
REMARK    5  A    between atoms: C_15  and  C_18
REMARK                            x       y       z     vdW  Elec       q    Type
REMARK                         _______ _______ _______ _____ _____    ______ ____
ROOT
ATOM      1  C   UNL     1     -11.109  12.351  66.489  0.00  0.00    +0.009 C 
ATOM      2  C   UNL     1     -11.585  13.174  67.649  0.00  0.00    +0.087 C 
ATOM      3  S   UNL     1     -10.966  14.885  67.513  0.00  0.00    -0.114 S 
ATOM      4  C   UNL     1      -9.671  14.705  66.119  0.00  0.00    +0.157 C 
ATOM      5  N   UNL     1     -10.752  14.323  65.115  0.00  0.00    -0.242 N 
ATOM      6  C   UNL     1     -11.327  15.651  65.037  0.00  0.00    +0.253 C 
ATOM      7  O   UNL     1     -11.901  16.115  64.001  0.00  0.00    -0.273 OA
ATOM      8  CA  UNL     1      -9.804  16.171  65.279  0.00  0.00    +0.201 C 
ATOM      9  CA  UNL     1     -11.182  12.969  65.309  0.00  0.00    +0.132 C 
ENDROOT
BRANCH   8  10
ATOM     10  N   UNL     1     -10.145  17.061  66.564  0.00  0.00    -0.190 NA
ATOM     11  C   UNL     1      -9.985  18.450  66.369  0.00  0.00    +0.288 C 
ATOM     12  O   UNL     1     -10.634  18.895  65.373  0.00  0.00    -0.267 OA
BRANCH  11  13
ATOM     13  C   UNL     1      -8.951  19.272  67.015  0.00  0.00    +0.197 C 
ATOM     14  N   UNL     1      -9.384  20.058  67.957  0.00  0.00    -0.023 NA
ATOM     15  O   UNL     1     -10.587  19.856  68.602  0.00  0.00    -0.143 OA
BRANCH  13  16
ATOM     16  C   UNL     1      -7.790  19.783  66.252  0.00  0.00    +0.115 A 
ATOM     17  N   UNL     1      -7.153  18.936  65.420  0.00  0.00    -0.220 NA
ATOM     18  C   UNL     1      -6.238  19.575  64.655  0.00  0.00    +0.201 A 
ATOM     19  N   UNL     1      -5.706  19.166  63.386  0.00  0.00    -0.100 NA
ATOM     20  S   UNL     1      -5.530  20.573  65.864  0.00  0.00    -0.048 S 
ATOM     21  C   UNL     1      -6.869  20.572  66.941  0.00  0.00    +0.059 A 
ENDBRANCH  13  16
ENDBRANCH  11  13
ENDBRANCH   8  10
BRANCH   9  22
ATOM     22  C   UNL     1     -11.518  12.276  64.066  0.00  0.00    +0.401 C 
ATOM     23  OXT UNL     1     -10.516  11.889  63.169  0.00  0.00    -0.239 OA
ATOM     24  O   UNL     1     -12.640  12.509  63.526  0.00  0.00    -0.239 OA
ENDBRANCH   9  22
BRANCH   1  26
ATOM     25  C   UNL     1     -10.945  10.308  67.601  0.00  0.00    -0.000 C 
ATOM     26  C   UNL     1     -11.311  10.913  66.553  0.00  0.00    -0.002 C 
ENDBRANCH   1  26
TORSDOF 5
ENDMDL
MODEL 2
REMARK VINA RESULT:      -6.9      4.300      5.664
REMARK  Name = 
REMARK  5 active torsions:
REMARK  status: ('A' for Active; 'I' for Inactive)
REMARK    1  A    between atoms: C_2  and  C_3
REMARK    2  A    between atoms: CA_4  and  C_5
REMARK    3  A    between atoms: CA_11  and  N_12
REMARK    4  A    between atoms: C_13  and  C_15
REMARK    5  A    between atoms: C_15  and  C_18
REMARK                            x       y       z     vdW  Elec       q    Type
REMARK                         _______ _______ _______ _____ _____    ______ ____
ROOT
ATOM      1  C   UNL     1     -10.429  10.630  66.322  0.00  0.00    +0.009 C 
ATOM      2  C   UNL     1     -11.309  10.680  67.535  0.00  0.00    +0.087 C 
ATOM      3  S   UNL     1     -11.628  12.410  68.020  0.00  0.00    -0.114 S 
ATOM      4  C   UNL     1     -10.352  13.341  66.945  0.00  0.00    +0.157 C 
ATOM      5  N   UNL     1     -11.045  12.887  65.666  0.00  0.00    -0.242 N 
ATOM      6  C   UNL     1     -12.204  13.738  65.840  0.00  0.00    +0.253 C 
ATOM      7  O   UNL     1     -12.883  14.219  64.877  0.00  0.00    -0.273 OA
ATOM      8  CA  UNL     1     -11.162  14.774  66.541  0.00  0.00    +0.201 C 
ATOM      9  CA  UNL     1     -10.745  11.515  65.375  0.00  0.00    +0.132 C 
ENDROOT
BRANCH   8  10
ATOM     10  N   UNL     1     -11.966  14.897  67.919  0.00  0.00    -0.190 NA
ATOM     11  C   UNL     1     -11.556  15.970  68.739  0.00  0.00    +0.288 C 
ATOM     12  O   UNL     1     -11.577  17.092  68.146  0.00  0.00    -0.267 OA
BRANCH  11  13
ATOM     13  C   UNL     1     -10.869  15.821  70.030  0.00  0.00    +0.197 C 
ATOM     14  N   UNL     1      -9.630  15.434  69.951  0.00  0.00    -0.023 NA
ATOM     15  O   UNL     1      -8.881  15.560  68.799  0.00  0.00    -0.143 OA
BRANCH  13  16
ATOM     16  C   UNL     1     -11.596  15.366  71.236  0.00  0.00    +0.115 A 
ATOM     17  N   UNL     1     -12.702  14.615  71.068  0.00  0.00    -0.220 NA
ATOM     18  C   UNL     1     -13.156  14.118  72.242  0.00  0.00    +0.201 A 
ATOM     19  N   UNL     1     -13.975  12.958  72.452  0.00  0.00    -0.100 NA
ATOM     20  S   UNL     1     -12.999  15.531  73.208  0.00  0.00    -0.048 S 
ATOM     21  C   UNL     1     -11.794  16.300  72.254  0.00  0.00    +0.059 A 
ENDBRANCH  13  16
ENDBRANCH  11  13
ENDBRANCH   8  10
BRANCH   9  22
ATOM     22  C   UNL     1     -10.626  11.230  63.946  0.00  0.00    +0.401 C 
ATOM     23  OXT UNL     1      -9.397  11.358  63.290  0.00  0.00    -0.239 OA
ATOM     24  O   UNL     1     -11.635  11.421  63.204  0.00  0.00    -0.239 OA
ENDBRANCH   9  22
BRANCH   1  26
ATOM     25  C   UNL     1     -10.213   8.327  66.619  0.00  0.00    -0.000 C 
ATOM     26  C   UNL     1      -9.884   9.339  65.935  0.00  0.00    -0.002 C 
ENDBRANCH   1  26
TORSDOF 5
ENDMDL
MODEL 3
REMARK VINA RESULT:      -6.8      2.577      7.685
REMARK  Name = 
REMARK  5 active torsions:
REMARK  status: ('A' for Active; 'I' for Inactive)
REMARK    1  A    between atoms: C_2  and  C_3
REMARK    2  A    between atoms: CA_4  and  C_5
REMARK    3  A    between atoms: CA_11  and  N_12
REMARK    4  A    between atoms: C_13  and  C_15
REMARK    5  A    between atoms: C_15  and  C_18
REMARK                            x       y       z     vdW  Elec       q    Type
REMARK                         _______ _______ _______ _____ _____    ______ ____
ROOT
ATOM      1  C   UNL     1      -8.420  17.487  67.712  0.00  0.00    +0.009 C 
ATOM      2  C   UNL     1      -7.607  16.377  67.119  0.00  0.00    +0.087 C 
ATOM      3  S   UNL     1      -8.695  15.040  66.519  0.00  0.00    -0.114 S 
ATOM      4  C   UNL     1     -10.368  15.545  67.291  0.00  0.00    +0.157 C 
ATOM      5  N   UNL     1     -10.401  16.827  66.469  0.00  0.00    -0.242 N 
ATOM      6  C   UNL     1     -10.661  16.163  65.208  0.00  0.00    +0.253 C 
ATOM      7  O   UNL     1     -11.313  16.689  64.250  0.00  0.00    -0.273 OA
ATOM      8  CA  UNL     1     -11.492  15.089  66.107  0.00  0.00    +0.201 C 
ATOM      9  CA  UNL     1      -9.507  17.810  67.008  0.00  0.00    +0.132 C 
ENDROOT
BRANCH   8  10
ATOM     10  N   UNL     1     -10.682  13.805  65.604  0.00  0.00    -0.190 NA
ATOM     11  C   UNL     1     -11.339  12.576  65.832  0.00  0.00    +0.288 C 
ATOM     12  O   UNL     1     -12.513  12.539  65.352  0.00  0.00    -0.267 OA
BRANCH  11  13
ATOM     13  C   UNL     1     -10.886  11.549  66.781  0.00  0.00    +0.197 C 
ATOM     14  N   UNL     1     -10.529  10.421  66.240  0.00  0.00    -0.023 NA
ATOM     15  O   UNL     1     -10.185  10.308  64.909  0.00  0.00    -0.143 OA
BRANCH  13  16
ATOM     16  C   UNL     1     -11.479  11.440  68.133  0.00  0.00    +0.115 A 
ATOM     17  N   UNL     1     -11.321  12.474  68.982  0.00  0.00    -0.220 NA
ATOM     18  C   UNL     1     -12.063  12.322  70.104  0.00  0.00    +0.201 A 
ATOM     19  N   UNL     1     -12.529  13.342  71.000  0.00  0.00    -0.100 NA
ATOM     20  S   UNL     1     -11.737  10.662  70.415  0.00  0.00    -0.048 S 
ATOM     21  C   UNL     1     -11.319  10.229  68.806  0.00  0.00    +0.059 A 
ENDBRANCH  13  16
ENDBRANCH  11  13
ENDBRANCH   8  10
BRANCH   9  22
ATOM     22  C   UNL     1     -10.000  19.182  66.887  0.00  0.00    +0.401 C 
ATOM     23  OXT UNL     1     -10.978  19.671  67.759  0.00  0.00    -0.239 OA
ATOM     24  O   UNL     1     -10.001  19.726  65.742  0.00  0.00    -0.239 OA
ENDBRANCH   9  22
BRANCH   1  26
ATOM     25  C   UNL     1      -6.531  18.285  68.822  0.00  0.00    -0.000 C 
ATOM     26  C   UNL     1      -7.713  18.525  68.445  0.00  0.00    -0.002 C 
ENDBRANCH   1  26
TORSDOF 5
ENDMDL
MODEL 4
REMARK VINA RESULT:      -6.5      2.892      3.439
REMARK  Name = 
REMARK  5 active torsions:
REMARK  status: ('A' for Active; 'I' for Inactive)
REMARK    1  A    between atoms: C_2  and  C_3
REMARK    2  A    between atoms: CA_4  and  C_5
REMARK    3  A    between atoms: CA_11  and  N_12
REMARK    4  A    between atoms: C_13  and  C_15
REMARK    5  A    between atoms: C_15  and  C_18
REMARK                            x       y       z     vdW  Elec       q    Type
REMARK                         _______ _______ _______ _____ _____    ______ ____
ROOT
ATOM      1  C   UNL     1     -12.289  13.521  70.536  0.00  0.00    +0.009 C 
ATOM      2  C   UNL     1     -12.936  14.855  70.313  0.00  0.00    +0.087 C 
ATOM      3  S   UNL     1     -11.884  15.904  69.253  0.00  0.00    -0.114 S 
ATOM      4  C   UNL     1     -10.253  14.909  69.242  0.00  0.00    +0.157 C 
ATOM      5  N   UNL     1     -10.929  13.741  68.534  0.00  0.00    -0.242 N 
ATOM      6  C   UNL     1     -11.058  14.421  67.261  0.00  0.00    +0.253 C 
ATOM      7  O   UNL     1     -11.050  13.828  66.136  0.00  0.00    -0.273 OA
ATOM      8  CA  UNL     1      -9.664  15.154  67.672  0.00  0.00    +0.201 C 
ATOM      9  CA  UNL     1     -11.741  12.986  69.443  0.00  0.00    +0.132 C 
ENDROOT
BRANCH   8  10
ATOM     10  N   UNL     1     -10.221  16.646  67.522  0.00  0.00    -0.190 NA
ATOM     11  C   UNL     1      -9.655  17.375  66.454  0.00  0.00    +0.288 C 
ATOM     12  O   UNL     1      -9.753  16.783  65.335  0.00  0.00    -0.267 OA
BRANCH  11  13
ATOM     13  C   UNL     1      -8.764  18.533  66.611  0.00  0.00    +0.197 C 
ATOM     14  N   UNL     1      -9.263  19.667  66.213  0.00  0.00    -0.023 NA
ATOM     15  O   UNL     1     -10.618  19.874  66.062  0.00  0.00    -0.143 OA
BRANCH  13  16
ATOM     16  C   UNL     1      -7.298  18.400  66.455  0.00  0.00    +0.115 A 
ATOM     17  N   UNL     1      -6.786  18.421  65.209  0.00  0.00    -0.220 NA
ATOM     18  C   UNL     1      -5.433  18.477  65.222  0.00  0.00    +0.201 A 
ATOM     19  N   UNL     1      -4.560  18.962  64.193  0.00  0.00    -0.100 NA
ATOM     20  S   UNL     1      -5.131  17.312  66.450  0.00  0.00    -0.048 S 
ATOM     21  C   UNL     1      -6.659  17.429  67.228  0.00  0.00    +0.059 A 
ENDBRANCH  13  16
ENDBRANCH  11  13
ENDBRANCH   8  10
BRANCH   9  22
ATOM     22  C   UNL     1     -11.747  11.549  69.171  0.00  0.00    +0.401 C 
ATOM     23  OXT UNL     1     -10.764  10.713  69.712  0.00  0.00    -0.239 OA
ATOM     24  O   UNL     1     -12.230  11.143  68.072  0.00  0.00    -0.239 OA
ENDBRANCH   9  22
BRANCH   1  26
ATOM     25  C   UNL     1     -13.668  13.157  72.380  0.00  0.00    -0.000 C 
ATOM     26  C   UNL     1     -12.872  12.647  71.541  0.00  0.00    -0.002 C 
ENDBRANCH   1  26
TORSDOF 5
ENDMDL
MODEL 5
REMARK VINA RESULT:      -6.5      3.082      3.614
REMARK  Name = 
REMARK  5 active torsions:
REMARK  status: ('A' for Active; 'I' for Inactive)
REMARK    1  A    between atoms: C_2  and  C_3
REMARK    2  A    between atoms: CA_4  and  C_5
REMARK    3  A    between atoms: CA_11  and  N_12
REMARK    4  A    between atoms: C_13  and  C_15
REMARK    5  A    between atoms: C_15  and  C_18
REMARK                            x       y       z     vdW  Elec       q    Type
REMARK                         _______ _______ _______ _____ _____    ______ ____
ROOT
ATOM      1  C   UNL     1     -11.425  14.674  68.661  0.00  0.00    +0.009 C 
ATOM      2  C   UNL     1     -11.552  16.066  69.203  0.00  0.00    +0.087 C 
ATOM      3  S   UNL     1     -10.364  17.181  68.381  0.00  0.00    -0.114 S 
ATOM      4  C   UNL     1      -9.247  15.928  67.467  0.00  0.00    +0.157 C 
ATOM      5  N   UNL     1     -10.412  15.467  66.600  0.00  0.00    -0.242 N 
ATOM      6  C   UNL     1     -10.474  16.683  65.814  0.00  0.00    +0.253 C 
ATOM      7  O   UNL     1     -10.864  16.726  64.604  0.00  0.00    -0.273 OA
ATOM      8  CA  UNL     1      -8.861  16.735  66.028  0.00  0.00    +0.201 C 
ATOM      9  CA  UNL     1     -11.295  14.609  67.335  0.00  0.00    +0.132 C 
ENDROOT
BRANCH   8  10
ATOM     10  N   UNL     1      -8.836  18.201  66.668  0.00  0.00    -0.190 NA
ATOM     11  C   UNL     1      -7.579  18.841  66.607  0.00  0.00    +0.288 C 
ATOM     12  O   UNL     1      -7.099  18.894  65.434  0.00  0.00    -0.267 OA
BRANCH  11  13
ATOM     13  C   UNL     1      -6.736  19.142  67.774  0.00  0.00    +0.197 C 
ATOM     14  N   UNL     1      -6.353  20.381  67.869  0.00  0.00    -0.023 NA
ATOM     15  O   UNL     1      -6.996  21.413  67.217  0.00  0.00    -0.143 OA
BRANCH  13  16
ATOM     16  C   UNL     1      -5.783  18.144  68.308  0.00  0.00    +0.115 A 
ATOM     17  N   UNL     1      -5.598  18.091  69.641  0.00  0.00    -0.220 NA
ATOM     18  C   UNL     1      -4.849  17.022  70.003  0.00  0.00    +0.201 A 
ATOM     19  N   UNL     1      -4.810  16.363  71.278  0.00  0.00    -0.100 NA
ATOM     20  S   UNL     1      -3.636  17.122  68.789  0.00  0.00    -0.048 S 
ATOM     21  C   UNL     1      -4.565  18.002  67.641  0.00  0.00    +0.059 A 
ENDBRANCH  13  16
ENDBRANCH  11  13
ENDBRANCH   8  10
BRANCH   9  22
ATOM     22  C   UNL     1     -11.880  13.539  66.528  0.00  0.00    +0.401 C 
ATOM     23  OXT UNL     1     -11.126  12.415  66.173  0.00  0.00    -0.239 OA
ATOM     24  O   UNL     1     -12.797  13.833  65.704  0.00  0.00    -0.239 OA
ENDBRANCH   9  22
BRANCH   1  26
ATOM     25  C   UNL     1     -12.307  13.735  70.605  0.00  0.00    -0.000 C 
ATOM     26  C   UNL     1     -12.129  13.610  69.360  0.00  0.00    -0.002 C 
ENDBRANCH   1  26
TORSDOF 5
ENDMDL
MODEL 6
REMARK VINA RESULT:      -6.4      2.739      3.614
REMARK  Name = 
REMARK  5 active torsions:
REMARK  status: ('A' for Active; 'I' for Inactive)
REMARK    1  A    between atoms: C_2  and  C_3
REMARK    2  A    between atoms: CA_4  and  C_5
REMARK    3  A    between atoms: CA_11  and  N_12
REMARK    4  A    between atoms: C_13  and  C_15
REMARK    5  A    between atoms: C_15  and  C_18
REMARK                            x       y       z     vdW  Elec       q    Type
REMARK                         _______ _______ _______ _____ _____    ______ ____
ROOT
ATOM      1  C   UNL     1      -9.144  13.338  67.032  0.00  0.00    +0.009 C 
ATOM      2  C   UNL     1      -8.174  13.785  68.084  0.00  0.00    +0.087 C 
ATOM      3  S   UNL     1      -8.326  15.581  68.369  0.00  0.00    -0.114 S 
ATOM      4  C   UNL     1      -9.416  16.104  66.889  0.00  0.00    +0.157 C 
ATOM      5  N   UNL     1     -10.579  15.264  67.403  0.00  0.00    -0.242 N 
ATOM      6  C   UNL     1     -10.879  16.134  68.523  0.00  0.00    +0.253 C 
ATOM      7  O   UNL     1     -12.043  16.280  69.015  0.00  0.00    -0.273 OA
ATOM      8  CA  UNL     1     -10.384  17.334  67.540  0.00  0.00    +0.201 C 
ATOM      9  CA  UNL     1     -10.363  13.870  67.146  0.00  0.00    +0.132 C 
ENDROOT
BRANCH   8  10
ATOM     10  N   UNL     1      -9.270  17.903  68.538  0.00  0.00    -0.190 NA
ATOM     11  C   UNL     1      -9.029  19.288  68.411  0.00  0.00    +0.288 C 
ATOM     12  O   UNL     1     -10.079  19.993  68.518  0.00  0.00    -0.267 OA
BRANCH  11  13
ATOM     13  C   UNL     1      -7.784  19.877  67.897  0.00  0.00    +0.197 C 
ATOM     14  N   UNL     1      -7.598  19.736  66.617  0.00  0.00    -0.023 NA
ATOM     15  O   UNL     1      -8.626  19.460  65.740  0.00  0.00    -0.143 OA
BRANCH  13  16
ATOM     16  C   UNL     1      -6.550  19.896  68.715  0.00  0.00    +0.115 A 
ATOM     17  N   UNL     1      -6.666  19.712  70.044  0.00  0.00    -0.220 NA
ATOM     18  C   UNL     1      -5.458  19.569  70.639  0.00  0.00    +0.201 A 
ATOM     19  N   UNL     1      -5.158  18.923  71.885  0.00  0.00    -0.100 NA
ATOM     20  S   UNL     1      -4.613  20.832  69.834  0.00  0.00    -0.048 S 
ATOM     21  C   UNL     1      -5.617  20.897  68.441  0.00  0.00    +0.059 A 
ENDBRANCH  13  16
ENDBRANCH  11  13
ENDBRANCH   8  10
BRANCH   9  22
ATOM     22  C   UNL     1     -11.586  13.135  66.825  0.00  0.00    +0.401 C 
ATOM     23  OXT UNL     1     -12.487  13.625  65.874  0.00  0.00    -0.239 OA
ATOM     24  O   UNL     1     -12.116  12.419  67.726  0.00  0.00    -0.239 OA
ENDBRANCH   9  22
BRANCH   1  26
ATOM     25  C   UNL     1      -8.422  11.131  67.240  0.00  0.00    -0.000 C 
ATOM     26  C   UNL     1      -9.003  11.987  66.513  0.00  0.00    -0.002 C 
ENDBRANCH   1  26
TORSDOF 5
ENDMDL
MODEL 7
REMARK VINA RESULT:      -6.4      2.747      7.421
REMARK  Name = 
REMARK  5 active torsions:
REMARK  status: ('A' for Active; 'I' for Inactive)
REMARK    1  A    between atoms: C_2  and  C_3
REMARK    2  A    between atoms: CA_4  and  C_5
REMARK    3  A    between atoms: CA_11  and  N_12
REMARK    4  A    between atoms: C_13  and  C_15
REMARK    5  A    between atoms: C_15  and  C_18
REMARK                            x       y       z     vdW  Elec       q    Type
REMARK                         _______ _______ _______ _____ _____    ______ ____
ROOT
ATOM      1  C   UNL     1      -8.592  17.143  67.536  0.00  0.00    +0.009 C 
ATOM      2  C   UNL     1      -7.816  16.027  66.904  0.00  0.00    +0.087 C 
ATOM      3  S   UNL     1      -8.949  14.756  66.247  0.00  0.00    -0.114 S 
ATOM      4  C   UNL     1     -10.608  15.294  67.028  0.00  0.00    +0.157 C 
ATOM      5  N   UNL     1     -10.587  16.607  66.257  0.00  0.00    -0.242 N 
ATOM      6  C   UNL     1     -10.862  16.003  64.969  0.00  0.00    +0.253 C 
ATOM      7  O   UNL     1     -11.487  16.590  64.029  0.00  0.00    -0.273 OA
ATOM      8  CA  UNL     1     -11.739  14.927  65.820  0.00  0.00    +0.201 C 
ATOM      9  CA  UNL     1      -9.661  17.534  66.839  0.00  0.00    +0.132 C 
ENDROOT
BRANCH   8  10
ATOM     10  N   UNL     1     -10.974  13.634  65.272  0.00  0.00    -0.190 NA
ATOM     11  C   UNL     1     -11.701  12.430  65.399  0.00  0.00    +0.288 C 
ATOM     12  O   UNL     1     -12.855  12.482  64.872  0.00  0.00    -0.267 OA
BRANCH  11  13
ATOM     13  C   UNL     1     -11.341  11.327  66.301  0.00  0.00    +0.197 C 
ATOM     14  N   UNL     1     -11.518  11.572  67.566  0.00  0.00    -0.023 NA
ATOM     15  O   UNL     1     -12.352  12.572  68.022  0.00  0.00    -0.143 OA
BRANCH  13  16
ATOM     16  C   UNL     1     -10.218  10.415  65.986  0.00  0.00    +0.115 A 
ATOM     17  N   UNL     1      -9.993  10.105  64.695  0.00  0.00    -0.220 NA
ATOM     18  C   UNL     1      -8.835   9.420  64.536  0.00  0.00    +0.201 A 
ATOM     19  N   UNL     1      -8.028   9.313  63.355  0.00  0.00    -0.100 NA
ATOM     20  S   UNL     1      -8.988   8.329  65.856  0.00  0.00    -0.048 S 
ATOM     21  C   UNL     1     -10.066   9.286  66.792  0.00  0.00    +0.059 A 
ENDBRANCH  13  16
ENDBRANCH  11  13
ENDBRANCH   8  10
BRANCH   9  22
ATOM     22  C   UNL     1     -10.101  18.927  66.769  0.00  0.00    +0.401 C 
ATOM     23  OXT UNL     1     -11.191  19.373  67.524  0.00  0.00    -0.239 OA
ATOM     24  O   UNL     1      -9.917  19.567  65.691  0.00  0.00    -0.239 OA
ENDBRANCH   9  22
BRANCH   1  26
ATOM     25  C   UNL     1      -6.591  18.038  68.332  0.00  0.00    -0.000 C 
ATOM     26  C   UNL     1      -7.852  18.124  68.314  0.00  0.00    -0.002 C 
ENDBRANCH   1  26
TORSDOF 5
ENDMDL
MODEL 8
REMARK VINA RESULT:      -6.3      2.995      8.140
REMARK  Name = 
REMARK  5 active torsions:
REMARK  status: ('A' for Active; 'I' for Inactive)
REMARK    1  A    between atoms: C_2  and  C_3
REMARK    2  A    between atoms: CA_4  and  C_5
REMARK    3  A    between atoms: CA_11  and  N_12
REMARK    4  A    between atoms: C_13  and  C_15
REMARK    5  A    between atoms: C_15  and  C_18
REMARK                            x       y       z     vdW  Elec       q    Type
REMARK                         _______ _______ _______ _____ _____    ______ ____
ROOT
ATOM      1  C   UNL     1      -4.450  19.093  68.246  0.00  0.00    +0.009 C 
ATOM      2  C   UNL     1      -4.890  19.348  66.836  0.00  0.00    +0.087 C 
ATOM      3  S   UNL     1      -6.465  18.491  66.496  0.00  0.00    -0.114 S 
ATOM      4  C   UNL     1      -6.608  17.350  68.023  0.00  0.00    +0.157 C 
ATOM      5  N   UNL     1      -6.710  18.551  68.954  0.00  0.00    -0.242 N 
ATOM      6  C   UNL     1      -8.046  18.924  68.535  0.00  0.00    +0.253 C 
ATOM      7  O   UNL     1      -8.892  19.501  69.291  0.00  0.00    -0.273 OA
ATOM      8  CA  UNL     1      -8.274  17.325  68.329  0.00  0.00    +0.201 C 
ATOM      9  CA  UNL     1      -5.428  19.164  69.150  0.00  0.00    +0.132 C 
ENDROOT
BRANCH   8  10
ATOM     10  N   UNL     1      -8.721  17.427  66.796  0.00  0.00    -0.190 NA
ATOM     11  C   UNL     1      -9.950  16.797  66.505  0.00  0.00    +0.288 C 
ATOM     12  O   UNL     1     -10.905  17.193  67.241  0.00  0.00    -0.267 OA
BRANCH  11  13
ATOM     13  C   UNL     1     -10.095  15.590  65.678  0.00  0.00    +0.197 C 
ATOM     14  N   UNL     1     -10.925  15.703  64.683  0.00  0.00    -0.023 NA
ATOM     15  O   UNL     1     -11.312  16.923  64.169  0.00  0.00    -0.143 OA
BRANCH  13  16
ATOM     16  C   UNL     1     -10.005  14.238  66.274  0.00  0.00    +0.115 A 
ATOM     17  N   UNL     1     -11.079  13.758  66.929  0.00  0.00    -0.220 NA
ATOM     18  C   UNL     1     -10.927  12.454  67.259  0.00  0.00    +0.201 A 
ATOM     19  N   UNL     1     -11.952  11.485  67.526  0.00  0.00    -0.100 NA
ATOM     20  S   UNL     1      -9.304  12.509  67.824  0.00  0.00    -0.048 S 
ATOM     21  C   UNL     1      -8.833  13.918  66.961  0.00  0.00    +0.059 A 
ENDBRANCH  13  16
ENDBRANCH  11  13
ENDBRANCH   8  10
BRANCH   9  22
ATOM     22  C   UNL     1      -5.232  19.696  70.498  0.00  0.00    +0.401 C 
ATOM     23  OXT UNL     1      -4.963  18.841  71.573  0.00  0.00    -0.239 OA
ATOM     24  O   UNL     1      -5.826  20.768  70.819  0.00  0.00    -0.239 OA
ENDBRANCH   9  22
BRANCH   1  26
ATOM     25  C   UNL     1      -2.365  19.995  67.720  0.00  0.00    -0.000 C 
ATOM     26  C   UNL     1      -3.106  19.504  68.619  0.00  0.00    -0.002 C 
ENDBRANCH   1  26
TORSDOF 5
ENDMDL
MODEL 9
REMARK VINA RESULT:      -6.3      3.208      7.566
REMARK  Name = 
REMARK  5 active torsions:
REMARK  status: ('A' for Active; 'I' for Inactive)
REMARK    1  A    between atoms: C_2  and  C_3
REMARK    2  A    between atoms: CA_4  and  C_5
REMARK    3  A    between atoms: CA_11  and  N_12
REMARK    4  A    between atoms: C_13  and  C_15
REMARK    5  A    between atoms: C_15  and  C_18
REMARK                            x       y       z     vdW  Elec       q    Type
REMARK                         _______ _______ _______ _____ _____    ______ ____
ROOT
ATOM      1  C   UNL     1      -5.937  18.453  66.881  0.00  0.00    +0.009 C 
ATOM      2  C   UNL     1      -6.655  17.677  65.818  0.00  0.00    +0.087 C 
ATOM      3  S   UNL     1      -8.327  17.216  66.385  0.00  0.00    -0.114 S 
ATOM      4  C   UNL     1      -8.219  17.633  68.247  0.00  0.00    +0.157 C 
ATOM      5  N   UNL     1      -8.023  19.113  67.940  0.00  0.00    -0.242 N 
ATOM      6  C   UNL     1      -9.385  19.334  67.500  0.00  0.00    +0.253 C 
ATOM      7  O   UNL     1      -9.998  20.443  67.618  0.00  0.00    -0.273 OA
ATOM      8  CA  UNL     1      -9.775  18.203  68.604  0.00  0.00    +0.201 C 
ATOM      9  CA  UNL     1      -6.686  19.374  67.491  0.00  0.00    +0.132 C 
ENDROOT
BRANCH   8  10
ATOM     10  N   UNL     1     -10.537  17.240  67.578  0.00  0.00    -0.190 NA
ATOM     11  C   UNL     1     -11.187  16.142  68.184  0.00  0.00    +0.288 C 
ATOM     12  O   UNL     1     -11.989  16.481  69.107  0.00  0.00    -0.267 OA
BRANCH  11  13
ATOM     13  C   UNL     1     -10.783  14.738  68.023  0.00  0.00    +0.197 C 
ATOM     14  N   UNL     1      -9.772  14.371  68.755  0.00  0.00    -0.023 NA
ATOM     15  O   UNL     1      -9.377  15.062  69.882  0.00  0.00    -0.143 OA
BRANCH  13  16
ATOM     16  C   UNL     1     -10.896  14.053  66.716  0.00  0.00    +0.115 A 
ATOM     17  N   UNL     1     -11.981  13.285  66.493  0.00  0.00    -0.220 NA
ATOM     18  C   UNL     1     -12.048  12.872  65.205  0.00  0.00    +0.201 A 
ATOM     19  N   UNL     1     -13.209  12.458  64.470  0.00  0.00    -0.100 NA
ATOM     20  S   UNL     1     -10.401  12.435  64.978  0.00  0.00    -0.048 S 
ATOM     21  C   UNL     1      -9.750  13.434  66.216  0.00  0.00    +0.059 A 
ENDBRANCH  13  16
ENDBRANCH  11  13
ENDBRANCH   8  10
BRANCH   9  22
ATOM     22  C   UNL     1      -6.158  20.663  67.936  0.00  0.00    +0.401 C 
ATOM     23  OXT UNL     1      -5.840  20.881  69.281  0.00  0.00    -0.239 OA
ATOM     24  O   UNL     1      -6.498  21.708  67.305  0.00  0.00    -0.239 OA
ENDBRANCH   9  22
BRANCH   1  26
ATOM     25  C   UNL     1      -4.080  18.781  65.510  0.00  0.00    -0.000 C 
ATOM     26  C   UNL     1      -4.517  18.701  66.694  0.00  0.00    -0.002 C 
ENDBRANCH   1  26
TORSDOF 5
ENDMDL
