MODEL 1
REMARK VINA RESULT:      -6.2      0.000      0.000
REMARK  Name = 
REMARK  6 active torsions:
REMARK  status: ('A' for Active; 'I' for Inactive)
REMARK    1  A    between atoms: C_2  and  O_4
REMARK    2  A    between atoms: O_4  and  C_5
REMARK    3  A    between atoms: N_12  and  C_13
REMARK    4  A    between atoms: C_13  and  C_14
REMARK    5  A    between atoms: C_13  and  C_19
REMARK    6  A    between atoms: C_14  and  C_16
REMARK                            x       y       z     vdW  Elec       q    Type
REMARK                         _______ _______ _______ _____ _____    ______ ____
ROOT
ATOM      1  C   UNL     1      -5.569  18.503  68.764  0.00  0.00    +0.178 A 
ATOM      2  S   UNL     1      -5.309  17.358  67.510  0.00  0.00    -0.055 S 
ATOM      3  C   UNL     1      -6.895  16.707  67.413  0.00  0.00    +0.009 A 
ATOM      4  C   UNL     1      -7.408  15.374  66.955  0.00  0.00    +0.050 C 
ATOM      5  C   UNL     1      -8.204  14.840  68.112  0.00  0.00    +0.078 C 
ATOM      6  N   UNL     1      -9.349  15.723  68.358  0.00  0.00    -0.260 NA
ATOM      7  C   UNL     1      -8.751  16.806  69.137  0.00  0.00    +0.100 C 
ATOM      8  C   UNL     1      -7.498  17.316  68.497  0.00  0.00    -0.000 A 
ATOM      9  C   UNL     1      -6.930  18.554  68.759  0.00  0.00    +0.042 A 
ENDROOT
BRANCH   1  10
ATOM     10  O   UNL     1      -4.621  19.109  69.602  0.00  0.00    -0.417 OA
BRANCH  10  12
ATOM     11  C   UNL     1      -5.353  20.174  71.722  0.00  0.00    +0.122 C 
ATOM     12  C   UNL     1      -4.819  19.075  70.987  0.00  0.00    +0.323 C 
ATOM     13  O   UNL     1      -4.957  17.907  71.465  0.00  0.00    -0.250 OA
ENDBRANCH  10  12
ENDBRANCH   1  10
BRANCH   6  14
ATOM     14  C   UNL     1      -9.552  16.511  67.002  0.00  0.00    +0.141 C 
BRANCH  14  15
ATOM     15  C   UNL     1     -10.751  15.575  66.468  0.00  0.00    +0.027 A 
ATOM     16  C   UNL     1     -10.981  15.476  65.155  0.00  0.00    +0.138 A 
ATOM     17  F   UNL     1     -11.189  16.690  64.567  0.00  0.00    -0.204 F 
ATOM     18  C   UNL     1     -11.768  14.402  64.745  0.00  0.00    +0.029 A 
ATOM     19  C   UNL     1     -12.143  13.410  65.642  0.00  0.00    +0.002 A 
ATOM     20  C   UNL     1     -12.076  13.671  67.005  0.00  0.00    -0.000 A 
ATOM     21  C   UNL     1     -11.201  14.667  67.420  0.00  0.00    -0.000 A 
ENDBRANCH  14  15
BRANCH  14  22
ATOM     22  C   UNL     1     -10.522  17.650  67.616  0.00  0.00    +0.169 C 
ATOM     23  O   UNL     1     -11.497  17.049  68.074  0.00  0.00    -0.294 OA
BRANCH  22  24
ATOM     24  C   UNL     1     -10.556  18.960  67.280  0.00  0.00    +0.059 C 
ATOM     25  C   UNL     1     -10.485  19.557  65.966  0.00  0.00    +0.008 C 
ATOM     26  C   UNL     1     -10.039  20.246  67.291  0.00  0.00    +0.008 C 
ENDBRANCH  22  24
ENDBRANCH  14  22
ENDBRANCH   6  14
TORSDOF 6
ENDMDL
MODEL 2
REMARK VINA RESULT:      -6.1      4.059      5.791
REMARK  Name = 
REMARK  6 active torsions:
REMARK  status: ('A' for Active; 'I' for Inactive)
REMARK    1  A    between atoms: C_2  and  O_4
REMARK    2  A    between atoms: O_4  and  C_5
REMARK    3  A    between atoms: N_12  and  C_13
REMARK    4  A    between atoms: C_13  and  C_14
REMARK    5  A    between atoms: C_13  and  C_19
REMARK    6  A    between atoms: C_14  and  C_16
REMARK                            x       y       z     vdW  Elec       q    Type
REMARK                         _______ _______ _______ _____ _____    ______ ____
ROOT
ATOM      1  C   UNL     1     -11.706  15.526  71.176  0.00  0.00    +0.178 A 
ATOM      2  S   UNL     1     -12.191  13.902  70.893  0.00  0.00    -0.055 S 
ATOM      3  C   UNL     1     -11.606  13.728  69.288  0.00  0.00    +0.009 A 
ATOM      4  C   UNL     1     -12.030  12.840  68.156  0.00  0.00    +0.050 C 
ATOM      5  C   UNL     1     -12.324  13.770  67.015  0.00  0.00    +0.078 C 
ATOM      6  N   UNL     1     -11.091  14.465  66.629  0.00  0.00    -0.260 NA
ATOM      7  C   UNL     1     -11.011  15.540  67.618  0.00  0.00    +0.100 C 
ATOM      8  C   UNL     1     -11.210  15.022  69.008  0.00  0.00    -0.000 A 
ATOM      9  C   UNL     1     -10.816  15.687  70.159  0.00  0.00    +0.042 A 
ENDROOT
BRANCH   1  10
ATOM     10  O   UNL     1     -12.194  16.428  72.133  0.00  0.00    -0.417 OA
BRANCH  10  12
ATOM     11  C   UNL     1     -12.472  15.568  74.446  0.00  0.00    +0.122 C 
ATOM     12  C   UNL     1     -12.995  15.944  73.175  0.00  0.00    +0.323 C 
ATOM     13  O   UNL     1     -14.211  16.303  73.106  0.00  0.00    -0.250 OA
ENDBRANCH  10  12
ENDBRANCH   1  10
BRANCH   6  14
ATOM     14  C   UNL     1      -9.922  13.560  67.190  0.00  0.00    +0.141 C 
BRANCH  14  15
ATOM     15  C   UNL     1      -9.747  12.696  65.841  0.00  0.00    +0.027 A 
ATOM     16  C   UNL     1      -9.230  11.466  65.903  0.00  0.00    +0.138 A 
ATOM     17  F   UNL     1      -8.004  11.442  66.502  0.00  0.00    -0.204 F 
ATOM     18  C   UNL     1      -9.436  10.651  64.791  0.00  0.00    +0.029 A 
ATOM     19  C   UNL     1     -10.273  11.055  63.758  0.00  0.00    +0.002 A 
ATOM     20  C   UNL     1     -10.593  12.401  63.635  0.00  0.00    -0.000 A 
ATOM     21  C   UNL     1     -10.497  13.186  64.777  0.00  0.00    -0.000 A 
ENDBRANCH  14  15
BRANCH  14  22
ATOM     22  C   UNL     1      -8.730  14.600  66.852  0.00  0.00    +0.169 C 
ATOM     23  O   UNL     1      -9.023  15.104  65.765  0.00  0.00    -0.294 OA
BRANCH  22  24
ATOM     24  C   UNL     1      -7.468  14.578  67.336  0.00  0.00    +0.059 C 
ATOM     25  C   UNL     1      -7.007  14.150  68.638  0.00  0.00    +0.008 C 
ATOM     26  C   UNL     1      -6.290  15.195  67.730  0.00  0.00    +0.008 C 
ENDBRANCH  22  24
ENDBRANCH  14  22
ENDBRANCH   6  14
TORSDOF 6
ENDMDL
MODEL 3
REMARK VINA RESULT:      -6.1      3.605      5.737
REMARK  Name = 
REMARK  6 active torsions:
REMARK  status: ('A' for Active; 'I' for Inactive)
REMARK    1  A    between atoms: C_2  and  O_4
REMARK    2  A    between atoms: O_4  and  C_5
REMARK    3  A    between atoms: N_12  and  C_13
REMARK    4  A    between atoms: C_13  and  C_14
REMARK    5  A    between atoms: C_13  and  C_19
REMARK    6  A    between atoms: C_14  and  C_16
REMARK                            x       y       z     vdW  Elec       q    Type
REMARK                         _______ _______ _______ _____ _____    ______ ____
ROOT
ATOM      1  C   UNL     1      -9.199  17.195  66.407  0.00  0.00    +0.178 A 
ATOM      2  S   UNL     1      -8.466  16.705  67.882  0.00  0.00    -0.055 S 
ATOM      3  C   UNL     1      -9.370  15.272  68.162  0.00  0.00    +0.009 A 
ATOM      4  C   UNL     1      -9.712  14.531  69.420  0.00  0.00    +0.050 C 
ATOM      5  C   UNL     1     -11.211  14.430  69.422  0.00  0.00    +0.078 C 
ATOM      6  N   UNL     1     -11.642  13.628  68.273  0.00  0.00    -0.260 NA
ATOM      7  C   UNL     1     -11.606  14.597  67.178  0.00  0.00    +0.100 C 
ATOM      8  C   UNL     1     -10.316  15.354  67.158  0.00  0.00    -0.000 A 
ATOM      9  C   UNL     1      -9.821  16.037  66.056  0.00  0.00    +0.042 A 
ENDROOT
BRANCH   1  10
ATOM     10  O   UNL     1      -9.211  18.469  65.821  0.00  0.00    -0.417 OA
BRANCH  10  12
ATOM     11  C   UNL     1      -9.989  20.341  67.255  0.00  0.00    +0.122 C 
ATOM     12  C   UNL     1     -10.192  19.388  66.214  0.00  0.00    +0.323 C 
ATOM     13  O   UNL     1     -11.050  19.650  65.317  0.00  0.00    -0.250 OA
ENDBRANCH  10  12
ENDBRANCH   1  10
BRANCH   6  14
ATOM     14  C   UNL     1     -10.367  12.786  67.865  0.00  0.00    +0.141 C 
BRANCH  14  15
ATOM     15  C   UNL     1     -10.761  11.491  68.741  0.00  0.00    +0.027 A 
ATOM     16  C   UNL     1      -9.836  10.566  69.012  0.00  0.00    +0.138 A 
ATOM     17  F   UNL     1      -9.248  10.068  67.886  0.00  0.00    -0.204 F 
ATOM     18  C   UNL     1     -10.130   9.683  70.049  0.00  0.00    +0.029 A 
ATOM     19  C   UNL     1     -11.250   9.871  70.849  0.00  0.00    +0.002 A 
ATOM     20  C   UNL     1     -12.276  10.689  70.393  0.00  0.00    -0.000 A 
ATOM     21  C   UNL     1     -11.952  11.648  69.442  0.00  0.00    -0.000 A 
ENDBRANCH  14  15
BRANCH  14  22
ATOM     22  C   UNL     1     -10.981  12.215  66.481  0.00  0.00    +0.169 C 
ATOM     23  O   UNL     1     -12.027  11.639  66.791  0.00  0.00    -0.294 OA
BRANCH  22  24
ATOM     24  C   UNL     1     -10.309  11.956  65.337  0.00  0.00    +0.059 C 
ATOM     25  C   UNL     1     -10.484  12.550  64.031  0.00  0.00    +0.008 C 
ATOM     26  C   UNL     1      -9.922  11.121  64.299  0.00  0.00    +0.008 C 
ENDBRANCH  22  24
ENDBRANCH  14  22
ENDBRANCH   6  14
TORSDOF 6
ENDMDL
MODEL 4
REMARK VINA RESULT:      -6.1      3.417      6.558
REMARK  Name = 
REMARK  6 active torsions:
REMARK  status: ('A' for Active; 'I' for Inactive)
REMARK    1  A    between atoms: C_2  and  O_4
REMARK    2  A    between atoms: O_4  and  C_5
REMARK    3  A    between atoms: N_12  and  C_13
REMARK    4  A    between atoms: C_13  and  C_14
REMARK    5  A    between atoms: C_13  and  C_19
REMARK    6  A    between atoms: C_14  and  C_16
REMARK                            x       y       z     vdW  Elec       q    Type
REMARK                         _______ _______ _______ _____ _____    ______ ____
ROOT
ATOM      1  C   UNL     1     -11.809  11.880  69.187  0.00  0.00    +0.178 A 
ATOM      2  S   UNL     1     -12.344  13.298  69.997  0.00  0.00    -0.055 S 
ATOM      3  C   UNL     1     -11.316  14.442  69.233  0.00  0.00    +0.009 A 
ATOM      4  C   UNL     1     -10.789  15.774  69.679  0.00  0.00    +0.050 C 
ATOM      5  C   UNL     1      -9.296  15.665  69.564  0.00  0.00    +0.078 C 
ATOM      6  N   UNL     1      -8.934  15.465  68.157  0.00  0.00    -0.260 NA
ATOM      7  C   UNL     1      -9.155  14.031  67.974  0.00  0.00    +0.100 C 
ATOM      8  C   UNL     1     -10.491  13.610  68.501  0.00  0.00    -0.000 A 
ATOM      9  C   UNL     1     -11.147  12.443  68.139  0.00  0.00    +0.042 A 
ENDROOT
BRANCH   1  10
ATOM     10  O   UNL     1     -11.949  10.543  69.585  0.00  0.00    -0.417 OA
BRANCH  10  12
ATOM     11  C   UNL     1     -13.061  10.102  71.761  0.00  0.00    +0.122 C 
ATOM     12  C   UNL     1     -11.897  10.232  70.949  0.00  0.00    +0.323 C 
ATOM     13  O   UNL     1     -10.845   9.616  71.303  0.00  0.00    -0.250 OA
ENDBRANCH  10  12
ENDBRANCH   1  10
BRANCH   6  14
ATOM     14  C   UNL     1     -10.182  15.987  67.339  0.00  0.00    +0.141 C 
BRANCH  14  15
ATOM     15  C   UNL     1      -9.584  17.464  67.088  0.00  0.00    +0.027 A 
ATOM     16  C   UNL     1     -10.375  18.428  66.608  0.00  0.00    +0.138 A 
ATOM     17  F   UNL     1     -10.969  18.079  65.429  0.00  0.00    -0.204 F 
ATOM     18  C   UNL     1      -9.915  19.735  66.753  0.00  0.00    +0.029 A 
ATOM     19  C   UNL     1      -8.777  20.010  67.502  0.00  0.00    +0.002 A 
ATOM     20  C   UNL     1      -7.885  18.981  67.779  0.00  0.00    -0.000 A 
ATOM     21  C   UNL     1      -8.379  17.684  67.746  0.00  0.00    -0.000 A 
ENDBRANCH  14  15
BRANCH  14  22
ATOM     22  C   UNL     1      -9.705  15.394  65.911  0.00  0.00    +0.169 C 
ATOM     23  O   UNL     1      -8.724  16.065  65.581  0.00  0.00    -0.294 OA
BRANCH  22  24
ATOM     24  C   UNL     1     -10.455  14.701  65.025  0.00  0.00    +0.059 C 
ATOM     25  C   UNL     1     -11.886  14.743  64.825  0.00  0.00    +0.008 C 
ATOM     26  C   UNL     1     -10.970  13.523  64.506  0.00  0.00    +0.008 C 
ENDBRANCH  22  24
ENDBRANCH  14  22
ENDBRANCH   6  14
TORSDOF 6
ENDMDL
MODEL 5
REMARK VINA RESULT:      -6.0      2.779      6.684
REMARK  Name = 
REMARK  6 active torsions:
REMARK  status: ('A' for Active; 'I' for Inactive)
REMARK    1  A    between atoms: C_2  and  O_4
REMARK    2  A    between atoms: O_4  and  C_5
REMARK    3  A    between atoms: N_12  and  C_13
REMARK    4  A    between atoms: C_13  and  C_14
REMARK    5  A    between atoms: C_13  and  C_19
REMARK    6  A    between atoms: C_14  and  C_16
REMARK                            x       y       z     vdW  Elec       q    Type
REMARK                         _______ _______ _______ _____ _____    ______ ____
ROOT
ATOM      1  C   UNL     1     -11.545  14.186  67.164  0.00  0.00    +0.178 A 
ATOM      2  S   UNL     1     -10.802  14.183  68.713  0.00  0.00    -0.055 S 
ATOM      3  C   UNL     1      -9.485  15.231  68.376  0.00  0.00    +0.009 A 
ATOM      4  C   UNL     1      -8.124  15.365  68.994  0.00  0.00    +0.050 C 
ATOM      5  C   UNL     1      -7.157  15.212  67.855  0.00  0.00    +0.078 C 
ATOM      6  N   UNL     1      -7.352  16.313  66.906  0.00  0.00    -0.260 NA
ATOM      7  C   UNL     1      -8.502  15.859  66.125  0.00  0.00    +0.100 C 
ATOM      8  C   UNL     1      -9.614  15.388  67.009  0.00  0.00    -0.000 A 
ATOM      9  C   UNL     1     -10.938  15.272  66.613  0.00  0.00    +0.042 A 
ENDROOT
BRANCH   1  10
ATOM     10  O   UNL     1     -12.442  13.251  66.625  0.00  0.00    -0.417 OA
BRANCH  10  12
ATOM     11  C   UNL     1     -11.036  11.863  65.121  0.00  0.00    +0.122 C 
ATOM     12  C   UNL     1     -12.167  12.693  65.370  0.00  0.00    +0.323 C 
ATOM     13  O   UNL     1     -13.186  12.561  64.625  0.00  0.00    -0.250 OA
ENDBRANCH  10  12
ENDBRANCH   1  10
BRANCH   6  14
ATOM     14  C   UNL     1      -8.082  17.442  67.739  0.00  0.00    +0.141 C 
BRANCH  14  15
ATOM     15  C   UNL     1      -6.735  18.256  68.092  0.00  0.00    +0.027 A 
ATOM     16  C   UNL     1      -6.723  19.103  69.125  0.00  0.00    +0.138 A 
ATOM     17  F   UNL     1      -7.700  20.053  69.036  0.00  0.00    -0.204 F 
ATOM     18  C   UNL     1      -5.469  19.490  69.593  0.00  0.00    +0.029 A 
ATOM     19  C   UNL     1      -4.312  18.892  69.108  0.00  0.00    +0.002 A 
ATOM     20  C   UNL     1      -4.363  18.202  67.903  0.00  0.00    -0.000 A 
ATOM     21  C   UNL     1      -5.600  17.717  67.498  0.00  0.00    -0.000 A 
ENDBRANCH  14  15
BRANCH  14  22
ATOM     22  C   UNL     1      -8.475  18.360  66.466  0.00  0.00    +0.169 C 
ATOM     23  O   UNL     1      -7.443  18.470  65.800  0.00  0.00    -0.294 OA
BRANCH  22  24
ATOM     24  C   UNL     1      -9.505  19.231  66.377  0.00  0.00    +0.059 C 
ATOM     25  C   UNL     1     -10.563  19.480  67.330  0.00  0.00    +0.008 C 
ATOM     26  C   UNL     1     -10.670  19.704  65.791  0.00  0.00    +0.008 C 
ENDBRANCH  22  24
ENDBRANCH  14  22
ENDBRANCH   6  14
TORSDOF 6
ENDMDL
MODEL 6
REMARK VINA RESULT:      -6.0      2.585      4.197
REMARK  Name = 
REMARK  6 active torsions:
REMARK  status: ('A' for Active; 'I' for Inactive)
REMARK    1  A    between atoms: C_2  and  O_4
REMARK    2  A    between atoms: O_4  and  C_5
REMARK    3  A    between atoms: N_12  and  C_13
REMARK    4  A    between atoms: C_13  and  C_14
REMARK    5  A    between atoms: C_13  and  C_19
REMARK    6  A    between atoms: C_14  and  C_16
REMARK                            x       y       z     vdW  Elec       q    Type
REMARK                         _______ _______ _______ _____ _____    ______ ____
ROOT
ATOM      1  C   UNL     1      -9.741  18.402  68.344  0.00  0.00    +0.178 A 
ATOM      2  S   UNL     1     -10.166  18.280  66.684  0.00  0.00    -0.055 S 
ATOM      3  C   UNL     1     -10.330  16.574  66.578  0.00  0.00    +0.009 A 
ATOM      4  C   UNL     1     -10.192  15.621  65.428  0.00  0.00    +0.050 C 
ATOM      5  C   UNL     1      -9.166  14.617  65.869  0.00  0.00    +0.078 C 
ATOM      6  N   UNL     1      -9.680  13.881  67.028  0.00  0.00    -0.260 NA
ATOM      7  C   UNL     1      -9.406  14.798  68.134  0.00  0.00    +0.100 C 
ATOM      8  C   UNL     1      -9.873  16.186  67.823  0.00  0.00    -0.000 A 
ATOM      9  C   UNL     1     -10.114  17.166  68.775  0.00  0.00    +0.042 A 
ENDROOT
BRANCH   1  10
ATOM     10  O   UNL     1      -9.097  19.459  69.004  0.00  0.00    -0.417 OA
BRANCH  10  12
ATOM     11  C   UNL     1      -6.710  18.788  69.135  0.00  0.00    +0.122 C 
ATOM     12  C   UNL     1      -7.741  19.694  68.748  0.00  0.00    +0.323 C 
ATOM     13  O   UNL     1      -7.523  20.472  67.770  0.00  0.00    -0.250 OA
ENDBRANCH  10  12
ENDBRANCH   1  10
BRANCH   6  14
ATOM     14  C   UNL     1     -11.249  14.070  66.967  0.00  0.00    +0.141 C 
BRANCH  14  15
ATOM     15  C   UNL     1     -11.491  12.923  65.861  0.00  0.00    +0.027 A 
ATOM     16  C   UNL     1     -12.346  13.138  64.857  0.00  0.00    +0.138 A 
ATOM     17  F   UNL     1     -13.593  13.479  65.296  0.00  0.00    -0.204 F 
ATOM     18  C   UNL     1     -12.243  12.282  63.763  0.00  0.00    +0.029 A 
ATOM     19  C   UNL     1     -11.200  11.371  63.667  0.00  0.00    +0.002 A 
ATOM     20  C   UNL     1     -10.489  11.035  64.813  0.00  0.00    -0.000 A 
ATOM     21  C   UNL     1     -10.500  11.947  65.860  0.00  0.00    -0.000 A 
ENDBRANCH  14  15
BRANCH  14  22
ATOM     22  C   UNL     1     -11.580  13.121  68.235  0.00  0.00    +0.169 C 
ATOM     23  O   UNL     1     -12.087  12.100  67.765  0.00  0.00    -0.294 OA
BRANCH  22  24
ATOM     24  C   UNL     1     -11.758  13.508  69.518  0.00  0.00    +0.059 C 
ATOM     25  C   UNL     1     -12.352  12.770  70.610  0.00  0.00    +0.008 C 
ATOM     26  C   UNL     1     -12.315  14.324  70.491  0.00  0.00    +0.008 C 
ENDBRANCH  22  24
ENDBRANCH  14  22
ENDBRANCH   6  14
TORSDOF 6
ENDMDL
MODEL 7
REMARK VINA RESULT:      -6.0      4.653      6.532
REMARK  Name = 
REMARK  6 active torsions:
REMARK  status: ('A' for Active; 'I' for Inactive)
REMARK    1  A    between atoms: C_2  and  O_4
REMARK    2  A    between atoms: O_4  and  C_5
REMARK    3  A    between atoms: N_12  and  C_13
REMARK    4  A    between atoms: C_13  and  C_14
REMARK    5  A    between atoms: C_13  and  C_19
REMARK    6  A    between atoms: C_14  and  C_16
REMARK                            x       y       z     vdW  Elec       q    Type
REMARK                         _______ _______ _______ _____ _____    ______ ____
ROOT
ATOM      1  C   UNL     1     -11.654  15.375  70.219  0.00  0.00    +0.178 A 
ATOM      2  S   UNL     1     -11.587  16.047  68.639  0.00  0.00    -0.055 S 
ATOM      3  C   UNL     1     -11.039  14.662  67.786  0.00  0.00    +0.009 A 
ATOM      4  C   UNL     1     -10.268  14.509  66.509  0.00  0.00    +0.050 C 
ATOM      5  C   UNL     1      -9.068  13.681  66.869  0.00  0.00    +0.078 C 
ATOM      6  N   UNL     1      -9.513  12.355  67.309  0.00  0.00    -0.260 NA
ATOM      7  C   UNL     1      -9.893  12.594  68.701  0.00  0.00    +0.100 C 
ATOM      8  C   UNL     1     -10.779  13.794  68.829  0.00  0.00    -0.000 A 
ATOM      9  C   UNL     1     -11.604  14.049  69.914  0.00  0.00    +0.042 A 
ENDROOT
BRANCH   1  10
ATOM     10  O   UNL     1     -11.655  16.044  71.452  0.00  0.00    -0.417 OA
BRANCH  10  12
ATOM     11  C   UNL     1     -12.442  15.795  73.794  0.00  0.00    +0.122 C 
ATOM     12  C   UNL     1     -12.655  15.746  72.386  0.00  0.00    +0.323 C 
ATOM     13  O   UNL     1     -13.837  15.902  71.950  0.00  0.00    -0.250 OA
ENDBRANCH  10  12
ENDBRANCH   1  10
BRANCH   6  14
ATOM     14  C   UNL     1     -10.966  12.193  66.707  0.00  0.00    +0.141 C 
BRANCH  14  15
ATOM     15  C   UNL     1     -10.477  11.530  65.322  0.00  0.00    +0.027 A 
ATOM     16  C   UNL     1     -11.061  11.884  64.173  0.00  0.00    +0.138 A 
ATOM     17  F   UNL     1     -12.413  11.704  64.196  0.00  0.00    -0.204 F 
ATOM     18  C   UNL     1     -10.372  11.564  63.005  0.00  0.00    +0.029 A 
ATOM     19  C   UNL     1      -9.081  11.055  63.056  0.00  0.00    +0.002 A 
ATOM     20  C   UNL     1      -8.619  10.502  64.245  0.00  0.00    -0.000 A 
ATOM     21  C   UNL     1      -9.234  10.914  65.420  0.00  0.00    -0.000 A 
ENDBRANCH  14  15
BRANCH  14  22
ATOM     22  C   UNL     1     -11.292  10.785  67.434  0.00  0.00    +0.169 C 
ATOM     23  O   UNL     1     -12.281  10.993  68.140  0.00  0.00    -0.294 OA
BRANCH  22  24
ATOM     24  C   UNL     1     -10.433   9.763  67.652  0.00  0.00    +0.059 C 
ATOM     25  C   UNL     1     -10.579   8.369  67.298  0.00  0.00    +0.008 C 
ATOM     26  C   UNL     1      -9.721   8.910  68.482  0.00  0.00    +0.008 C 
ENDBRANCH  22  24
ENDBRANCH  14  22
ENDBRANCH   6  14
TORSDOF 6
ENDMDL
MODEL 8
REMARK VINA RESULT:      -5.8      2.850      6.915
REMARK  Name = 
REMARK  6 active torsions:
REMARK  status: ('A' for Active; 'I' for Inactive)
REMARK    1  A    between atoms: C_2  and  O_4
REMARK    2  A    between atoms: O_4  and  C_5
REMARK    3  A    between atoms: N_12  and  C_13
REMARK    4  A    between atoms: C_13  and  C_14
REMARK    5  A    between atoms: C_13  and  C_19
REMARK    6  A    between atoms: C_14  and  C_16
REMARK                            x       y       z     vdW  Elec       q    Type
REMARK                         _______ _______ _______ _____ _____    ______ ____
ROOT
ATOM      1  C   UNL     1      -9.269  15.212  66.071  0.00  0.00    +0.178 A 
ATOM      2  S   UNL     1      -8.169  14.797  67.325  0.00  0.00    -0.055 S 
ATOM      3  C   UNL     1      -7.331  16.291  67.444  0.00  0.00    +0.009 A 
ATOM      4  C   UNL     1      -5.946  16.631  67.912  0.00  0.00    +0.050 C 
ATOM      5  C   UNL     1      -5.315  17.370  66.767  0.00  0.00    +0.078 C 
ATOM      6  N   UNL     1      -6.050  18.617  66.534  0.00  0.00    -0.260 NA
ATOM      7  C   UNL     1      -7.196  18.167  65.744  0.00  0.00    +0.100 C 
ATOM      8  C   UNL     1      -7.857  16.978  66.367  0.00  0.00    -0.000 A 
ATOM      9  C   UNL     1      -9.154  16.568  66.095  0.00  0.00    +0.042 A 
ENDROOT
BRANCH   1  10
ATOM     10  O   UNL     1      -9.984  14.356  65.220  0.00  0.00    -0.417 OA
BRANCH  10  12
ATOM     11  C   UNL     1     -12.032  14.058  66.592  0.00  0.00    +0.122 C 
ATOM     12  C   UNL     1     -11.376  14.281  65.346  0.00  0.00    +0.323 C 
ATOM     13  O   UNL     1     -12.015  14.882  64.429  0.00  0.00    -0.250 OA
ENDBRANCH  10  12
ENDBRANCH   1  10
BRANCH   6  14
ATOM     14  C   UNL     1      -6.813  18.898  67.891  0.00  0.00    +0.141 C 
BRANCH  14  15
ATOM     15  C   UNL     1      -5.668  19.851  68.507  0.00  0.00    +0.027 A 
ATOM     16  C   UNL     1      -5.538  19.961  69.832  0.00  0.00    +0.138 A 
ATOM     17  F   UNL     1      -6.694  20.354  70.441  0.00  0.00    -0.204 F 
ATOM     18  C   UNL     1      -4.335  20.493  70.293  0.00  0.00    +0.029 A 
ATOM     19  C   UNL     1      -3.283  20.736  69.420  0.00  0.00    +0.002 A 
ATOM     20  C   UNL     1      -3.541  20.821  68.058  0.00  0.00    -0.000 A 
ATOM     21  C   UNL     1      -4.683  20.188  67.585  0.00  0.00    -0.000 A 
ENDBRANCH  14  15
BRANCH  14  22
ATOM     22  C   UNL     1      -7.720  20.111  67.323  0.00  0.00    +0.169 C 
ATOM     23  O   UNL     1      -6.979  21.097  67.290  0.00  0.00    -0.294 OA
BRANCH  22  24
ATOM     24  C   UNL     1      -9.069  20.205  67.355  0.00  0.00    +0.059 C 
ATOM     25  C   UNL     1      -9.996  19.578  68.271  0.00  0.00    +0.008 C 
ATOM     26  C   UNL     1     -10.329  20.010  66.810  0.00  0.00    +0.008 C 
ENDBRANCH  22  24
ENDBRANCH  14  22
ENDBRANCH   6  14
TORSDOF 6
ENDMDL
MODEL 9
REMARK VINA RESULT:      -5.8      3.561      6.250
REMARK  Name = 
REMARK  6 active torsions:
REMARK  status: ('A' for Active; 'I' for Inactive)
REMARK    1  A    between atoms: C_2  and  O_4
REMARK    2  A    between atoms: O_4  and  C_5
REMARK    3  A    between atoms: N_12  and  C_13
REMARK    4  A    between atoms: C_13  and  C_14
REMARK    5  A    between atoms: C_13  and  C_19
REMARK    6  A    between atoms: C_14  and  C_16
REMARK                            x       y       z     vdW  Elec       q    Type
REMARK                         _______ _______ _______ _____ _____    ______ ____
ROOT
ATOM      1  C   UNL     1     -12.278  14.596  70.756  0.00  0.00    +0.178 A 
ATOM      2  S   UNL     1     -11.595  16.150  71.026  0.00  0.00    -0.055 S 
ATOM      3  C   UNL     1     -10.711  16.306  69.563  0.00  0.00    +0.009 A 
ATOM      4  C   UNL     1      -9.484  17.095  69.211  0.00  0.00    +0.050 C 
ATOM      5  C   UNL     1      -8.512  16.088  68.667  0.00  0.00    +0.078 C 
ATOM      6  N   UNL     1      -9.060  15.501  67.440  0.00  0.00    -0.260 NA
ATOM      7  C   UNL     1      -9.978  14.487  67.957  0.00  0.00    +0.100 C 
ATOM      8  C   UNL     1     -10.872  15.047  69.019  0.00  0.00    -0.000 A 
ATOM      9  C   UNL     1     -12.073  14.477  69.416  0.00  0.00    +0.042 A 
ENDROOT
BRANCH   1  10
ATOM     10  O   UNL     1     -12.797  13.696  71.699  0.00  0.00    -0.417 OA
BRANCH  10  12
ATOM     11  C   UNL     1     -14.990  14.857  71.615  0.00  0.00    +0.122 C 
ATOM     12  C   UNL     1     -14.120  13.852  72.130  0.00  0.00    +0.323 C 
ATOM     13  O   UNL     1     -14.636  12.800  72.617  0.00  0.00    -0.250 OA
ENDBRANCH  10  12
ENDBRANCH   1  10
BRANCH   6  14
ATOM     14  C   UNL     1     -10.140  16.543  66.940  0.00  0.00    +0.141 C 
BRANCH  14  15
ATOM     15  C   UNL     1      -9.069  17.573  66.313  0.00  0.00    +0.027 A 
ATOM     16  C   UNL     1      -9.270  18.889  66.425  0.00  0.00    +0.138 A 
ATOM     17  F   UNL     1     -10.477  19.279  65.920  0.00  0.00    -0.204 F 
ATOM     18  C   UNL     1      -8.165  19.705  66.196  0.00  0.00    +0.029 A 
ATOM     19  C   UNL     1      -6.899  19.159  66.025  0.00  0.00    +0.002 A 
ATOM     20  C   UNL     1      -6.783  17.814  65.695  0.00  0.00    -0.000 A 
ATOM     21  C   UNL     1      -7.843  16.981  66.032  0.00  0.00    -0.000 A 
ENDBRANCH  14  15
BRANCH  14  22
ATOM     22  C   UNL     1     -10.456  15.795  65.540  0.00  0.00    +0.169 C 
ATOM     23  O   UNL     1     -10.671  16.692  64.722  0.00  0.00    -0.294 OA
BRANCH  22  24
ATOM     24  C   UNL     1     -10.895  14.527  65.375  0.00  0.00    +0.059 C 
ATOM     25  C   UNL     1     -10.335  13.477  64.554  0.00  0.00    +0.008 C 
ATOM     26  C   UNL     1     -11.835  13.594  64.964  0.00  0.00    +0.008 C 
ENDBRANCH  22  24
ENDBRANCH  14  22
ENDBRANCH   6  14
TORSDOF 6
ENDMDL
