MODEL 1
REMARK VINA RESULT:      -7.6      0.000      0.000
REMARK  Name = 
REMARK  6 active torsions:
REMARK  status: ('A' for Active; 'I' for Inactive)
REMARK    1  A    between atoms: C_2  and  C_3
REMARK    2  A    between atoms: C_8  and  C_9
REMARK    3  A    between atoms: C_12  and  N_13
REMARK    4  A    between atoms: N_13  and  C_14
REMARK    5  A    between atoms: C_14  and  C_15
REMARK    6  A    between atoms: C_15  and  C_17
REMARK                            x       y       z     vdW  Elec       q    Type
REMARK                         _______ _______ _______ _____ _____    ______ ____
ROOT
ATOM      1  C   UNL     1     -11.632  11.635  68.422  0.00  0.00    +0.126 C 
ENDROOT
BRANCH   1   2
ATOM      2  C   UNL     1     -10.813  13.107  68.399  0.00  0.00    +0.192 C 
ATOM      3  O   UNL     1     -12.110  13.933  68.191  0.00  0.00    -0.217 OA
BRANCH   2   4
ATOM      4  C   UNL     1     -10.551  12.984  66.766  0.00  0.00    +0.011 A 
ATOM      5  C   UNL     1     -10.117  14.206  66.261  0.00  0.00    +0.020 A 
ATOM      6  C   UNL     1     -10.709  14.822  65.165  0.00  0.00    +0.123 A 
ATOM      7  N   UNL     1     -10.475  16.128  64.877  0.00  0.00    -0.205 NA
ATOM      8  C   UNL     1      -9.731  16.862  65.737  0.00  0.00    +0.279 A 
ATOM      9  C   UNL     1      -8.770  16.166  66.449  0.00  0.00    +0.063 A 
ATOM     10  O   UNL     1      -9.956  18.097  65.919  0.00  0.00    -0.265 OA
ATOM     11  C   UNL     1     -11.806  14.226  64.553  0.00  0.00    +0.213 A 
ATOM     12  O   UNL     1     -12.800  15.012  63.959  0.00  0.00    -0.285 OA
ATOM     13  C   UNL     1     -12.089  12.928  64.938  0.00  0.00    +0.043 A 
ATOM     14  C   UNL     1      -9.140  14.910  66.909  0.00  0.00    +0.006 A 
ATOM     15  C   UNL     1     -11.648  12.414  66.151  0.00  0.00    +0.002 A 
ENDBRANCH   2   4
ENDBRANCH   1   2
BRANCH   1  16
ATOM     16  N   UNL     1     -12.078  11.466  69.766  0.00  0.00    -0.216 NA
BRANCH  16  22
ATOM     17  C   UNL     1     -11.086   6.238  72.081  0.00  0.00    -0.026 A 
ATOM     18  C   UNL     1     -10.442   6.141  70.854  0.00  0.00    -0.026 A 
ATOM     19  C   UNL     1      -9.888   7.324  70.380  0.00  0.00    -0.009 A 
ATOM     20  C   UNL     1     -10.231   8.558  70.923  0.00  0.00    -0.025 A 
ATOM     21  C   UNL     1     -10.254   9.869  70.199  0.00  0.00    +0.044 C 
ATOM     22  C   UNL     1     -11.761  10.092  70.139  0.00  0.00    +0.082 C 
ATOM     23  C   UNL     1     -12.111   9.820  71.598  0.00  0.00    +0.044 C 
ATOM     24  C   UNL     1     -11.244   8.631  71.876  0.00  0.00    -0.025 A 
ATOM     25  C   UNL     1     -11.432   7.471  72.617  0.00  0.00    -0.009 A 
BRANCH  18  26
ATOM     26  C   UNL     1     -10.197   4.838  70.215  0.00  0.00    +0.026 C 
ATOM     27  C   UNL     1      -9.888   4.953  68.732  0.00  0.00    +0.005 C 
ENDBRANCH  18  26
BRANCH  17  29
ATOM     28  C   UNL     1     -11.188   4.911  73.312  0.00  0.00    +0.005 C 
ATOM     29  C   UNL     1     -11.155   5.030  72.957  0.00  0.00    +0.026 C 
ENDBRANCH  17  29
ENDBRANCH  16  22
ENDBRANCH   1  16
TORSDOF 6
ENDMDL
MODEL 2
REMARK VINA RESULT:      -7.5      2.020      3.791
REMARK  Name = 
REMARK  6 active torsions:
REMARK  status: ('A' for Active; 'I' for Inactive)
REMARK    1  A    between atoms: C_2  and  C_3
REMARK    2  A    between atoms: C_8  and  C_9
REMARK    3  A    between atoms: C_12  and  N_13
REMARK    4  A    between atoms: N_13  and  C_14
REMARK    5  A    between atoms: C_14  and  C_15
REMARK    6  A    between atoms: C_15  and  C_17
REMARK                            x       y       z     vdW  Elec       q    Type
REMARK                         _______ _______ _______ _____ _____    ______ ____
ROOT
ATOM      1  C   UNL     1      -9.547  12.359  66.448  0.00  0.00    +0.126 C 
ENDROOT
BRANCH   1   2
ATOM      2  C   UNL     1     -10.692  13.563  66.172  0.00  0.00    +0.192 C 
ATOM      3  O   UNL     1     -10.154  13.882  64.752  0.00  0.00    -0.217 OA
BRANCH   2   4
ATOM      4  C   UNL     1      -9.718  14.708  66.871  0.00  0.00    +0.011 A 
ATOM      5  C   UNL     1     -10.247  15.098  68.097  0.00  0.00    +0.020 A 
ATOM      6  C   UNL     1     -10.457  16.428  68.440  0.00  0.00    +0.123 A 
ATOM      7  N   UNL     1     -11.238  16.771  69.497  0.00  0.00    -0.205 NA
ATOM      8  C   UNL     1     -11.902  15.796  70.160  0.00  0.00    +0.279 A 
ATOM      9  C   UNL     1     -11.294  14.553  70.171  0.00  0.00    +0.063 A 
ATOM     10  O   UNL     1     -13.040  16.006  70.678  0.00  0.00    -0.265 OA
ATOM     11  C   UNL     1     -10.165  17.428  67.519  0.00  0.00    +0.213 A 
ATOM     12  O   UNL     1     -10.911  18.611  67.497  0.00  0.00    -0.285 OA
ATOM     13  C   UNL     1      -9.456  17.035  66.398  0.00  0.00    +0.043 A 
ATOM     14  C   UNL     1     -10.691  14.157  68.986  0.00  0.00    +0.006 A 
ATOM     15  C   UNL     1      -9.444  15.715  65.967  0.00  0.00    +0.002 A 
ENDBRANCH   2   4
ENDBRANCH   1   2
BRANCH   1  16
ATOM     16  N   UNL     1     -10.194  11.131  66.117  0.00  0.00    -0.216 NA
BRANCH  16  22
ATOM     17  C   UNL     1     -12.338   9.273  71.179  0.00  0.00    -0.026 A 
ATOM     18  C   UNL     1     -11.130   8.591  71.106  0.00  0.00    -0.026 A 
ATOM     19  C   UNL     1     -10.105   9.270  70.460  0.00  0.00    -0.009 A 
ATOM     20  C   UNL     1     -10.355  10.389  69.671  0.00  0.00    -0.025 A 
ATOM     21  C   UNL     1      -9.562  10.827  68.478  0.00  0.00    +0.044 C 
ATOM     22  C   UNL     1     -10.570  10.506  67.380  0.00  0.00    +0.082 C 
ATOM     23  C   UNL     1     -11.808  11.166  67.978  0.00  0.00    +0.044 C 
ATOM     24  C   UNL     1     -11.670  10.768  69.414  0.00  0.00    -0.025 A 
ATOM     25  C   UNL     1     -12.587  10.385  70.385  0.00  0.00    -0.009 A 
BRANCH  18  26
ATOM     26  C   UNL     1     -10.912   7.333  71.838  0.00  0.00    +0.026 C 
ATOM     27  C   UNL     1     -11.129   6.100  70.976  0.00  0.00    +0.005 C 
ENDBRANCH  18  26
BRANCH  17  29
ATOM     28  C   UNL     1     -13.625   8.975  72.421  0.00  0.00    +0.005 C 
ATOM     29  C   UNL     1     -13.265   8.980  72.314  0.00  0.00    +0.026 C 
ENDBRANCH  17  29
ENDBRANCH  16  22
ENDBRANCH   1  16
TORSDOF 6
ENDMDL
MODEL 3
REMARK VINA RESULT:      -7.5      5.025      7.556
REMARK  Name = 
REMARK  6 active torsions:
REMARK  status: ('A' for Active; 'I' for Inactive)
REMARK    1  A    between atoms: C_2  and  C_3
REMARK    2  A    between atoms: C_8  and  C_9
REMARK    3  A    between atoms: C_12  and  N_13
REMARK    4  A    between atoms: N_13  and  C_14
REMARK    5  A    between atoms: C_14  and  C_15
REMARK    6  A    between atoms: C_15  and  C_17
REMARK                            x       y       z     vdW  Elec       q    Type
REMARK                         _______ _______ _______ _____ _____    ______ ____
ROOT
ATOM      1  C   UNL     1     -10.606  17.828  67.613  0.00  0.00    +0.126 C 
ENDROOT
BRANCH   1   2
ATOM      2  C   UNL     1      -9.769  18.747  68.750  0.00  0.00    +0.192 C 
ATOM      3  O   UNL     1     -10.356  20.089  68.236  0.00  0.00    -0.217 OA
BRANCH   2   4
ATOM      4  C   UNL     1      -8.453  18.863  67.749  0.00  0.00    +0.011 A 
ATOM      5  C   UNL     1      -7.354  18.244  68.336  0.00  0.00    +0.020 A 
ATOM      6  C   UNL     1      -6.121  18.869  68.474  0.00  0.00    +0.123 A 
ATOM      7  N   UNL     1      -5.166  18.373  69.302  0.00  0.00    -0.205 NA
ATOM      8  C   UNL     1      -5.468  17.307  70.081  0.00  0.00    +0.279 A 
ATOM      9  C   UNL     1      -6.408  16.432  69.566  0.00  0.00    +0.063 A 
ATOM     10  O   UNL     1      -4.963  17.168  71.236  0.00  0.00    -0.265 OA
ATOM     11  C   UNL     1      -5.965  20.182  68.046  0.00  0.00    +0.213 A 
ATOM     12  O   UNL     1      -5.077  21.042  68.701  0.00  0.00    -0.285 OA
ATOM     13  C   UNL     1      -6.999  20.702  67.287  0.00  0.00    +0.043 A 
ATOM     14  C   UNL     1      -7.485  17.009  68.909  0.00  0.00    +0.006 A 
ATOM     15  C   UNL     1      -8.281  20.171  67.339  0.00  0.00    +0.002 A 
ENDBRANCH   2   4
ENDBRANCH   1   2
BRANCH   1  16
ATOM     16  N   UNL     1     -11.190  16.751  68.344  0.00  0.00    -0.216 NA
BRANCH  16  22
ATOM     17  C   UNL     1     -10.107  11.667  65.764  0.00  0.00    -0.026 A 
ATOM     18  C   UNL     1     -10.577  12.436  64.708  0.00  0.00    -0.026 A 
ATOM     19  C   UNL     1     -10.272  13.790  64.778  0.00  0.00    -0.009 A 
ATOM     20  C   UNL     1      -9.823  14.376  65.958  0.00  0.00    -0.025 A 
ATOM     21  C   UNL     1     -10.047  15.794  66.383  0.00  0.00    +0.044 C 
ATOM     22  C   UNL     1     -11.035  15.557  67.520  0.00  0.00    +0.082 C 
ATOM     23  C   UNL     1     -10.291  14.459  68.272  0.00  0.00    +0.044 C 
ATOM     24  C   UNL     1      -9.797  13.625  67.130  0.00  0.00    -0.025 A 
ATOM     25  C   UNL     1      -9.666  12.255  66.943  0.00  0.00    -0.009 A 
BRANCH  18  26
ATOM     26  C   UNL     1     -11.176  11.818  63.514  0.00  0.00    +0.026 C 
ATOM     27  C   UNL     1     -12.687  11.972  63.461  0.00  0.00    +0.005 C 
ENDBRANCH  18  26
BRANCH  17  29
ATOM     28  C   UNL     1      -9.819   9.879  65.683  0.00  0.00    +0.005 C 
ATOM     29  C   UNL     1      -9.811  10.222  65.529  0.00  0.00    +0.026 C 
ENDBRANCH  17  29
ENDBRANCH  16  22
ENDBRANCH   1  16
TORSDOF 6
ENDMDL
MODEL 4
REMARK VINA RESULT:      -7.5      4.572      9.362
REMARK  Name = 
REMARK  6 active torsions:
REMARK  status: ('A' for Active; 'I' for Inactive)
REMARK    1  A    between atoms: C_2  and  C_3
REMARK    2  A    between atoms: C_8  and  C_9
REMARK    3  A    between atoms: C_12  and  N_13
REMARK    4  A    between atoms: N_13  and  C_14
REMARK    5  A    between atoms: C_14  and  C_15
REMARK    6  A    between atoms: C_15  and  C_17
REMARK                            x       y       z     vdW  Elec       q    Type
REMARK                         _______ _______ _______ _____ _____    ______ ____
ROOT
ATOM      1  C   UNL     1     -11.118  15.155  69.305  0.00  0.00    +0.126 C 
ENDROOT
BRANCH   1   2
ATOM      2  C   UNL     1     -11.966  13.917  68.539  0.00  0.00    +0.192 C 
ATOM      3  O   UNL     1     -11.687  12.896  69.674  0.00  0.00    -0.217 OA
BRANCH   2   4
ATOM      4  C   UNL     1     -10.613  13.454  67.700  0.00  0.00    +0.011 A 
ATOM      5  C   UNL     1     -10.928  13.267  66.358  0.00  0.00    +0.020 A 
ATOM      6  C   UNL     1     -10.605  12.108  65.661  0.00  0.00    +0.123 A 
ATOM      7  N   UNL     1     -11.173  11.824  64.461  0.00  0.00    -0.205 NA
ATOM      8  C   UNL     1     -12.147  12.638  63.991  0.00  0.00    +0.279 A 
ATOM      9  C   UNL     1     -12.063  13.964  64.378  0.00  0.00    +0.063 A 
ATOM     10  O   UNL     1     -13.107  12.187  63.297  0.00  0.00    -0.265 OA
ATOM     11  C   UNL     1      -9.970  11.065  66.324  0.00  0.00    +0.213 A 
ATOM     12  O   UNL     1     -10.206   9.738  65.946  0.00  0.00    -0.285 OA
ATOM     13  C   UNL     1      -9.489  11.349  67.589  0.00  0.00    +0.043 A 
ATOM     14  C   UNL     1     -11.680  14.195  65.691  0.00  0.00    +0.006 A 
ATOM     15  C   UNL     1      -9.993  12.401  68.342  0.00  0.00    +0.002 A 
ENDBRANCH   2   4
ENDBRANCH   1   2
BRANCH   1  16
ATOM     16  N   UNL     1     -11.628  16.368  68.752  0.00  0.00    -0.216 NA
BRANCH  16  22
ATOM     17  C   UNL     1      -7.268  19.786  67.027  0.00  0.00    -0.026 A 
ATOM     18  C   UNL     1      -6.930  19.527  68.349  0.00  0.00    -0.026 A 
ATOM     19  C   UNL     1      -7.306  18.276  68.823  0.00  0.00    -0.009 A 
ATOM     20  C   UNL     1      -8.225  17.484  68.141  0.00  0.00    -0.025 A 
ATOM     21  C   UNL     1      -9.168  16.496  68.753  0.00  0.00    +0.044 C 
ATOM     22  C   UNL     1     -10.480  17.243  68.539  0.00  0.00    +0.082 C 
ATOM     23  C   UNL     1     -10.325  17.603  67.066  0.00  0.00    +0.044 C 
ATOM     24  C   UNL     1      -8.882  18.000  67.027  0.00  0.00    -0.025 A 
ATOM     25  C   UNL     1      -8.190  18.997  66.351  0.00  0.00    -0.009 A 
BRANCH  18  26
ATOM     26  C   UNL     1      -6.064  20.438  69.113  0.00  0.00    +0.026 C 
ATOM     27  C   UNL     1      -5.927  20.042  70.574  0.00  0.00    +0.005 C 
ENDBRANCH  18  26
BRANCH  17  29
ATOM     28  C   UNL     1      -6.282  20.812  65.904  0.00  0.00    +0.005 C 
ATOM     29  C   UNL     1      -6.430  20.742  66.242  0.00  0.00    +0.026 C 
ENDBRANCH  17  29
ENDBRANCH  16  22
ENDBRANCH   1  16
TORSDOF 6
ENDMDL
MODEL 5
REMARK VINA RESULT:      -7.4      3.014      9.511
REMARK  Name = 
REMARK  6 active torsions:
REMARK  status: ('A' for Active; 'I' for Inactive)
REMARK    1  A    between atoms: C_2  and  C_3
REMARK    2  A    between atoms: C_8  and  C_9
REMARK    3  A    between atoms: C_12  and  N_13
REMARK    4  A    between atoms: N_13  and  C_14
REMARK    5  A    between atoms: C_14  and  C_15
REMARK    6  A    between atoms: C_15  and  C_17
REMARK                            x       y       z     vdW  Elec       q    Type
REMARK                         _______ _______ _______ _____ _____    ______ ____
ROOT
ATOM      1  C   UNL     1      -9.833  11.840  68.063  0.00  0.00    +0.126 C 
ENDROOT
BRANCH   1   2
ATOM      2  C   UNL     1     -10.727  10.426  68.262  0.00  0.00    +0.192 C 
ATOM      3  O   UNL     1     -12.078  11.125  67.952  0.00  0.00    -0.217 OA
BRANCH   2   4
ATOM      4  C   UNL     1     -10.882  10.703  69.889  0.00  0.00    +0.011 A 
ATOM      5  C   UNL     1     -10.694   9.517  70.592  0.00  0.00    +0.020 A 
ATOM      6  C   UNL     1     -11.595   9.054  71.544  0.00  0.00    +0.123 A 
ATOM      7  N   UNL     1     -11.552   7.774  71.993  0.00  0.00    -0.205 NA
ATOM      8  C   UNL     1     -10.676   6.912  71.424  0.00  0.00    +0.279 A 
ATOM      9  C   UNL     1      -9.511   7.474  70.933  0.00  0.00    +0.063 A 
ATOM     10  O   UNL     1     -10.949   5.680  71.297  0.00  0.00    -0.265 OA
ATOM     11  C   UNL     1     -12.759   9.772  71.794  0.00  0.00    +0.213 A 
ATOM     12  O   UNL     1     -13.933   9.111  72.171  0.00  0.00    -0.285 OA
ATOM     13  C   UNL     1     -12.825  11.038  71.239  0.00  0.00    +0.043 A 
ATOM     14  C   UNL     1      -9.646   8.694  70.287  0.00  0.00    +0.006 A 
ATOM     15  C   UNL     1     -12.049  11.396  70.144  0.00  0.00    +0.002 A 
ENDBRANCH   2   4
ENDBRANCH   1   2
BRANCH   1  16
ATOM     16  N   UNL     1     -10.494  12.569  67.029  0.00  0.00    -0.216 NA
BRANCH  16  22
ATOM     17  C   UNL     1      -8.624  17.895  68.375  0.00  0.00    -0.026 A 
ATOM     18  C   UNL     1      -9.956  18.125  68.059  0.00  0.00    -0.026 A 
ATOM     19  C   UNL     1     -10.827  17.088  68.371  0.00  0.00    -0.009 A 
ATOM     20  C   UNL     1     -10.362  15.810  68.667  0.00  0.00    -0.025 A 
ATOM     21  C   UNL     1     -11.082  14.523  68.408  0.00  0.00    +0.044 C 
ATOM     22  C   UNL     1     -10.218  13.980  67.276  0.00  0.00    +0.082 C 
ATOM     23  C   UNL     1      -8.840  14.175  67.898  0.00  0.00    +0.044 C 
ATOM     24  C   UNL     1      -9.007  15.523  68.527  0.00  0.00    -0.025 A 
ATOM     25  C   UNL     1      -8.161  16.618  68.664  0.00  0.00    -0.009 A 
BRANCH  18  26
ATOM     26  C   UNL     1     -10.424  19.448  67.616  0.00  0.00    +0.026 C 
ATOM     27  C   UNL     1     -10.428  19.599  66.104  0.00  0.00    +0.005 C 
ENDBRANCH  18  26
BRANCH  17  29
ATOM     28  C   UNL     1      -7.397  19.166  68.785  0.00  0.00    +0.005 C 
ATOM     29  C   UNL     1      -7.743  19.063  68.680  0.00  0.00    +0.026 C 
ENDBRANCH  17  29
ENDBRANCH  16  22
ENDBRANCH   1  16
TORSDOF 6
ENDMDL
MODEL 6
REMARK VINA RESULT:      -7.4      3.895      6.321
REMARK  Name = 
REMARK  6 active torsions:
REMARK  status: ('A' for Active; 'I' for Inactive)
REMARK    1  A    between atoms: C_2  and  C_3
REMARK    2  A    between atoms: C_8  and  C_9
REMARK    3  A    between atoms: C_12  and  N_13
REMARK    4  A    between atoms: N_13  and  C_14
REMARK    5  A    between atoms: C_14  and  C_15
REMARK    6  A    between atoms: C_15  and  C_17
REMARK                            x       y       z     vdW  Elec       q    Type
REMARK                         _______ _______ _______ _____ _____    ______ ____
ROOT
ATOM      1  C   UNL     1      -7.473  14.974  67.997  0.00  0.00    +0.126 C 
ENDROOT
BRANCH   1   2
ATOM      2  C   UNL     1      -7.078  16.183  66.893  0.00  0.00    +0.192 C 
ATOM      3  O   UNL     1      -5.552  16.035  67.133  0.00  0.00    -0.217 OA
BRANCH   2   4
ATOM      4  C   UNL     1      -7.216  17.352  68.060  0.00  0.00    +0.011 A 
ATOM      5  C   UNL     1      -8.310  18.168  67.789  0.00  0.00    +0.020 A 
ATOM      6  C   UNL     1      -8.224  19.554  67.746  0.00  0.00    +0.123 A 
ATOM      7  N   UNL     1      -9.211  20.306  67.194  0.00  0.00    -0.205 NA
ATOM      8  C   UNL     1     -10.246  19.679  66.586  0.00  0.00    +0.279 A 
ATOM      9  C   UNL     1     -10.575  18.433  67.090  0.00  0.00    +0.063 A 
ATOM     10  O   UNL     1     -10.825  20.184  65.578  0.00  0.00    -0.265 OA
ATOM     11  C   UNL     1      -6.995  20.172  67.944  0.00  0.00    +0.213 A 
ATOM     12  O   UNL     1      -6.695  21.377  67.298  0.00  0.00    -0.285 OA
ATOM     13  C   UNL     1      -5.974  19.363  68.410  0.00  0.00    +0.043 A 
ATOM     14  C   UNL     1      -9.511  17.615  67.441  0.00  0.00    +0.006 A 
ATOM     15  C   UNL     1      -6.002  17.985  68.244  0.00  0.00    +0.002 A 
ENDBRANCH   2   4
ENDBRANCH   1   2
BRANCH   1  16
ATOM     16  N   UNL     1      -8.365  14.100  67.306  0.00  0.00    -0.216 NA
BRANCH  16  22
ATOM     17  C   UNL     1     -12.343  11.703  70.785  0.00  0.00    -0.026 A 
ATOM     18  C   UNL     1     -12.564  13.060  70.981  0.00  0.00    -0.026 A 
ATOM     19  C   UNL     1     -12.326  13.865  69.874  0.00  0.00    -0.009 A 
ATOM     20  C   UNL     1     -11.615  13.398  68.772  0.00  0.00    -0.025 A 
ATOM     21  C   UNL     1     -10.764  14.219  67.854  0.00  0.00    +0.044 C 
ATOM     22  C   UNL     1      -9.389  13.706  68.268  0.00  0.00    +0.082 C 
ATOM     23  C   UNL     1      -9.655  12.205  68.210  0.00  0.00    +0.044 C 
ATOM     24  C   UNL     1     -11.019  12.140  68.823  0.00  0.00    -0.025 A 
ATOM     25  C   UNL     1     -11.629  11.240  69.688  0.00  0.00    -0.009 A 
BRANCH  18  26
ATOM     26  C   UNL     1     -13.197  13.566  72.209  0.00  0.00    +0.026 C 
ATOM     27  C   UNL     1     -13.717  14.987  72.066  0.00  0.00    +0.005 C 
ENDBRANCH  18  26
BRANCH  17  29
ATOM     28  C   UNL     1     -13.107  10.378  71.759  0.00  0.00    +0.005 C 
ATOM     29  C   UNL     1     -13.115  10.720  71.605  0.00  0.00    +0.026 C 
ENDBRANCH  17  29
ENDBRANCH  16  22
ENDBRANCH   1  16
TORSDOF 6
ENDMDL
MODEL 7
REMARK VINA RESULT:      -7.4      2.653      4.459
REMARK  Name = 
REMARK  6 active torsions:
REMARK  status: ('A' for Active; 'I' for Inactive)
REMARK    1  A    between atoms: C_2  and  C_3
REMARK    2  A    between atoms: C_8  and  C_9
REMARK    3  A    between atoms: C_12  and  N_13
REMARK    4  A    between atoms: N_13  and  C_14
REMARK    5  A    between atoms: C_14  and  C_15
REMARK    6  A    between atoms: C_15  and  C_17
REMARK                            x       y       z     vdW  Elec       q    Type
REMARK                         _______ _______ _______ _____ _____    ______ ____
ROOT
ATOM      1  C   UNL     1     -11.228  10.270  69.728  0.00  0.00    +0.126 C 
ENDROOT
BRANCH   1   2
ATOM      2  C   UNL     1     -12.421  11.399  69.352  0.00  0.00    +0.192 C 
ATOM      3  O   UNL     1     -11.946  11.553  67.883  0.00  0.00    -0.217 OA
BRANCH   2   4
ATOM      4  C   UNL     1     -11.460  12.648  69.864  0.00  0.00    +0.011 A 
ATOM      5  C   UNL     1     -12.214  13.556  70.601  0.00  0.00    +0.020 A 
ATOM      6  C   UNL     1     -12.223  14.920  70.334  0.00  0.00    +0.123 A 
ATOM      7  N   UNL     1     -13.175  15.736  70.855  0.00  0.00    -0.205 NA
ATOM      8  C   UNL     1     -14.189  15.185  71.564  0.00  0.00    +0.279 A 
ATOM      9  C   UNL     1     -13.886  14.016  72.239  0.00  0.00    +0.063 A 
ATOM     10  O   UNL     1     -15.354  15.683  71.547  0.00  0.00    -0.265 OA
ATOM     11  C   UNL     1     -11.482  15.416  69.267  0.00  0.00    +0.213 A 
ATOM     12  O   UNL     1     -11.924  16.537  68.557  0.00  0.00    -0.285 OA
ATOM     13  C   UNL     1     -10.589  14.534  68.683  0.00  0.00    +0.043 A 
ATOM     14  C   UNL     1     -13.075  13.113  71.566  0.00  0.00    +0.006 A 
ATOM     15  C   UNL     1     -10.739  13.159  68.803  0.00  0.00    +0.002 A 
ENDBRANCH   2   4
ENDBRANCH   1   2
BRANCH   1  16
ATOM     16  N   UNL     1     -11.409   9.966  71.110  0.00  0.00    -0.216 NA
BRANCH  16  22
ATOM     17  C   UNL     1      -9.997   4.342  70.873  0.00  0.00    -0.026 A 
ATOM     18  C   UNL     1     -10.290   4.513  72.220  0.00  0.00    -0.026 A 
ATOM     19  C   UNL     1     -11.278   5.450  72.497  0.00  0.00    -0.009 A 
ATOM     20  C   UNL     1     -11.700   6.369  71.541  0.00  0.00    -0.025 A 
ATOM     21  C   UNL     1     -12.222   7.747  71.807  0.00  0.00    +0.044 C 
ATOM     22  C   UNL     1     -11.047   8.563  71.277  0.00  0.00    +0.082 C 
ATOM     23  C   UNL     1     -10.855   7.876  69.929  0.00  0.00    +0.044 C 
ATOM     24  C   UNL     1     -11.036   6.442  70.319  0.00  0.00    -0.025 A 
ATOM     25  C   UNL     1     -10.414   5.265  69.922  0.00  0.00    -0.009 A 
BRANCH  18  26
ATOM     26  C   UNL     1      -9.734   3.618  73.247  0.00  0.00    +0.026 C 
ATOM     27  C   UNL     1     -10.793   2.766  73.927  0.00  0.00    +0.005 C 
ENDBRANCH  18  26
BRANCH  17  29
ATOM     28  C   UNL     1      -9.272   2.849  70.145  0.00  0.00    +0.005 C 
ATOM     29  C   UNL     1      -9.474   3.022  70.410  0.00  0.00    +0.026 C 
ENDBRANCH  17  29
ENDBRANCH  16  22
ENDBRANCH   1  16
TORSDOF 6
ENDMDL
MODEL 8
REMARK VINA RESULT:      -7.3      4.054      7.059
REMARK  Name = 
REMARK  6 active torsions:
REMARK  status: ('A' for Active; 'I' for Inactive)
REMARK    1  A    between atoms: C_2  and  C_3
REMARK    2  A    between atoms: C_8  and  C_9
REMARK    3  A    between atoms: C_12  and  N_13
REMARK    4  A    between atoms: N_13  and  C_14
REMARK    5  A    between atoms: C_14  and  C_15
REMARK    6  A    between atoms: C_15  and  C_17
REMARK                            x       y       z     vdW  Elec       q    Type
REMARK                         _______ _______ _______ _____ _____    ______ ____
ROOT
ATOM      1  C   UNL     1      -9.414  16.791  67.352  0.00  0.00    +0.126 C 
ENDROOT
BRANCH   1   2
ATOM      2  C   UNL     1      -8.686  17.550  68.669  0.00  0.00    +0.192 C 
ATOM      3  O   UNL     1      -9.388  18.906  68.395  0.00  0.00    -0.217 OA
BRANCH   2   4
ATOM      4  C   UNL     1      -7.370  17.970  67.752  0.00  0.00    +0.011 A 
ATOM      5  C   UNL     1      -6.443  18.649  68.536  0.00  0.00    +0.020 A 
ATOM      6  C   UNL     1      -5.904  19.878  68.172  0.00  0.00    +0.123 A 
ATOM      7  N   UNL     1      -5.245  20.654  69.071  0.00  0.00    -0.205 NA
ATOM      8  C   UNL     1      -5.205  20.262  70.366  0.00  0.00    +0.279 A 
ATOM      9  C   UNL     1      -5.243  18.896  70.583  0.00  0.00    +0.063 A 
ATOM     10  O   UNL     1      -5.201  21.105  71.312  0.00  0.00    -0.265 OA
ATOM     11  C   UNL     1      -6.322  20.489  66.996  0.00  0.00    +0.213 A 
ATOM     12  O   UNL     1      -6.369  21.884  66.900  0.00  0.00    -0.285 OA
ATOM     13  C   UNL     1      -7.081  19.710  66.141  0.00  0.00    +0.043 A 
ATOM     14  C   UNL     1      -6.104  18.171  69.771  0.00  0.00    +0.006 A 
ATOM     15  C   UNL     1      -7.780  18.599  66.593  0.00  0.00    +0.002 A 
ENDBRANCH   2   4
ENDBRANCH   1   2
BRANCH   1  16
ATOM     16  N   UNL     1      -9.026  15.421  67.436  0.00  0.00    -0.216 NA
BRANCH  16  22
ATOM     17  C   UNL     1     -12.405  12.165  70.851  0.00  0.00    -0.026 A 
ATOM     18  C   UNL     1     -12.772  13.453  71.220  0.00  0.00    -0.026 A 
ATOM     19  C   UNL     1     -12.718  14.399  70.203  0.00  0.00    -0.009 A 
ATOM     20  C   UNL     1     -12.044  14.150  69.011  0.00  0.00    -0.025 A 
ATOM     21  C   UNL     1     -11.371  15.169  68.145  0.00  0.00    +0.044 C 
ATOM     22  C   UNL     1      -9.917  14.795  68.408  0.00  0.00    +0.082 C 
ATOM     23  C   UNL     1     -10.004  13.289  68.189  0.00  0.00    +0.044 C 
ATOM     24  C   UNL     1     -11.299  12.982  68.875  0.00  0.00    -0.025 A 
ATOM     25  C   UNL     1     -11.727  11.921  69.664  0.00  0.00    -0.009 A 
BRANCH  18  26
ATOM     26  C   UNL     1     -13.363  13.736  72.537  0.00  0.00    +0.026 C 
ATOM     27  C   UNL     1     -13.467  15.223  72.833  0.00  0.00    +0.005 C 
ENDBRANCH  18  26
BRANCH  17  29
ATOM     28  C   UNL     1     -13.042  10.637  71.589  0.00  0.00    +0.005 C 
ATOM     29  C   UNL     1     -12.986  11.008  71.596  0.00  0.00    +0.026 C 
ENDBRANCH  17  29
ENDBRANCH  16  22
ENDBRANCH   1  16
TORSDOF 6
ENDMDL
MODEL 9
REMARK VINA RESULT:      -7.3      1.840      3.434
REMARK  Name = 
REMARK  6 active torsions:
REMARK  status: ('A' for Active; 'I' for Inactive)
REMARK    1  A    between atoms: C_2  and  C_3
REMARK    2  A    between atoms: C_8  and  C_9
REMARK    3  A    between atoms: C_12  and  N_13
REMARK    4  A    between atoms: N_13  and  C_14
REMARK    5  A    between atoms: C_14  and  C_15
REMARK    6  A    between atoms: C_15  and  C_17
REMARK                            x       y       z     vdW  Elec       q    Type
REMARK                         _______ _______ _______ _____ _____    ______ ____
ROOT
ATOM      1  C   UNL     1      -8.375  11.735  68.273  0.00  0.00    +0.126 C 
ENDROOT
BRANCH   1   2
ATOM      2  C   UNL     1      -8.311  12.572  66.813  0.00  0.00    +0.192 C 
ATOM      3  O   UNL     1      -7.117  13.455  67.263  0.00  0.00    -0.217 OA
BRANCH   2   4
ATOM      4  C   UNL     1      -9.420  13.681  67.352  0.00  0.00    +0.011 A 
ATOM      5  C   UNL     1     -10.532  13.685  66.516  0.00  0.00    +0.020 A 
ATOM      6  C   UNL     1     -11.050  14.846  65.955  0.00  0.00    +0.123 A 
ATOM      7  N   UNL     1     -11.931  14.800  64.923  0.00  0.00    -0.205 NA
ATOM      8  C   UNL     1     -12.227  13.600  64.371  0.00  0.00    +0.279 A 
ATOM      9  C   UNL     1     -12.158  12.511  65.223  0.00  0.00    +0.063 A 
ATOM     10  O   UNL     1     -12.485  13.486  63.135  0.00  0.00    -0.265 OA
ATOM     11  C   UNL     1     -10.424  16.063  66.197  0.00  0.00    +0.213 A 
ATOM     12  O   UNL     1     -10.437  17.073  65.228  0.00  0.00    -0.285 OA
ATOM     13  C   UNL     1      -9.454  16.064  67.184  0.00  0.00    +0.043 A 
ATOM     14  C   UNL     1     -11.102  12.505  66.123  0.00  0.00    +0.006 A 
ATOM     15  C   UNL     1      -8.806  14.898  67.571  0.00  0.00    +0.002 A 
ENDBRANCH   2   4
ENDBRANCH   1   2
BRANCH   1  16
ATOM     16  N   UNL     1      -8.423  10.353  67.921  0.00  0.00    -0.216 NA
BRANCH  16  22
ATOM     17  C   UNL     1     -12.675   8.677  71.498  0.00  0.00    -0.026 A 
ATOM     18  C   UNL     1     -11.773   7.626  71.603  0.00  0.00    -0.026 A 
ATOM     19  C   UNL     1     -10.435   7.977  71.476  0.00  0.00    -0.009 A 
ATOM     20  C   UNL     1     -10.051   9.213  70.963  0.00  0.00    -0.025 A 
ATOM     21  C   UNL     1      -8.794   9.504  70.203  0.00  0.00    +0.044 C 
ATOM     22  C   UNL     1      -9.390   9.729  68.818  0.00  0.00    +0.082 C 
ATOM     23  C   UNL     1     -10.511  10.695  69.182  0.00  0.00    +0.044 C 
ATOM     24  C   UNL     1     -11.017  10.071  70.445  0.00  0.00    -0.025 A 
ATOM     25  C   UNL     1     -12.290   9.907  70.979  0.00  0.00    -0.009 A 
BRANCH  18  26
ATOM     26  C   UNL     1     -12.205   6.282  72.018  0.00  0.00    +0.026 C 
ATOM     27  C   UNL     1     -11.144   5.536  72.810  0.00  0.00    +0.005 C 
ENDBRANCH  18  26
BRANCH  17  29
ATOM     28  C   UNL     1     -14.343   8.698  72.207  0.00  0.00    +0.005 C 
ATOM     29  C   UNL     1     -13.988   8.575  72.203  0.00  0.00    +0.026 C 
ENDBRANCH  17  29
ENDBRANCH  16  22
ENDBRANCH   1  16
TORSDOF 6
ENDMDL
