MODEL 1
REMARK VINA RESULT:      -6.5      0.000      0.000
REMARK  Name = 
REMARK  6 active torsions:
REMARK  status: ('A' for Active; 'I' for Inactive)
REMARK    1  A    between atoms: C_2  and  C_4
REMARK    2  A    between atoms: C_7  and  C_8
REMARK    3  A    between atoms: N_10  and  CA_11
REMARK    4  A    between atoms: CA_11  and  CB_12
REMARK    5  A    between atoms: CA_11  and  C_19
REMARK    6  A    between atoms: CB_12  and  CG_13
REMARK                            x       y       z     vdW  Elec       q    Type
REMARK                         _______ _______ _______ _____ _____    ______ ____
ROOT
ATOM      1  C   UNK A   0     -10.478  17.122  67.391  0.00  0.00    +0.241 C 
ATOM      2  N   PHE A   1     -10.146  16.135  66.425  0.00  0.00    -0.195 NA
ATOM      3  O   UNK A   0     -11.207  16.764  68.365  0.00  0.00    -0.273 OA
ENDROOT
BRANCH   1   7
ATOM      4  C   UNK A   0      -7.147  18.779  67.531  0.00  0.00    +0.000 C 
ATOM      5  C   UNK A   0      -7.763  18.399  66.211  0.00  0.00    +0.000 C 
ATOM      6  C   UNK A   0      -9.193  18.846  66.228  0.00  0.00    +0.009 C 
ATOM      7  C   UNK A   0      -9.948  18.481  67.455  0.00  0.00    +0.078 C 
ATOM      8  C   UNK A   0      -9.253  18.729  68.748  0.00  0.00    +0.009 C 
ATOM      9  C   UNK A   0      -7.874  18.136  68.679  0.00  0.00    +0.000 C 
BRANCH   4  11
ATOM     10  C   UNK A   0      -6.518  20.946  66.680  0.00  0.00    +0.000 C 
ATOM     11  C   UNK A   0      -6.949  20.254  67.701  0.00  0.00    +0.000 C 
ATOM     12  C   UNK A   0      -6.158  20.555  68.944  0.00  0.00    +0.000 C 
ENDBRANCH   4  11
ENDBRANCH   1   7
BRANCH   2  13
ATOM     13  CA  PHE A   1     -11.312  15.134  66.067  0.00  0.00    +0.202 C 
BRANCH  13  14
ATOM     14  C   PHE A   1     -11.500  15.645  64.552  0.00  0.00    +0.385 C 
ATOM     15  OXT PHE A   1     -11.311  16.924  64.198  0.00  0.00    -0.244 OA
ATOM     16  O   PHE A   1     -12.523  15.055  64.084  0.00  0.00    -0.244 OA
ENDBRANCH  13  14
BRANCH  13  17
ATOM     17  CB  PHE A   1     -10.246  13.966  65.625  0.00  0.00    +0.060 C 
BRANCH  17  18
ATOM     18  CG  PHE A   1     -10.929  12.658  65.869  0.00  0.00    -0.020 A 
ATOM     19  CD2 PHE A   1     -10.069  11.564  65.830  0.00  0.00    -0.004 A 
ATOM     20  CE2 PHE A   1     -10.241  10.436  66.580  0.00  0.00    -0.000 A 
ATOM     21  CZ  PHE A   1     -10.956  10.552  67.748  0.00  0.00    -0.000 A 
ATOM     22  CE1 PHE A   1     -11.657  11.724  67.999  0.00  0.00    -0.000 A 
ATOM     23  CD1 PHE A   1     -11.802  12.629  66.952  0.00  0.00    -0.004 A 
ENDBRANCH  17  18
ENDBRANCH  13  17
ENDBRANCH   2  13
TORSDOF 6
ENDMDL
MODEL 2
REMARK VINA RESULT:      -6.4      3.056      4.143
REMARK  Name = 
REMARK  6 active torsions:
REMARK  status: ('A' for Active; 'I' for Inactive)
REMARK    1  A    between atoms: C_2  and  C_4
REMARK    2  A    between atoms: C_7  and  C_8
REMARK    3  A    between atoms: N_10  and  CA_11
REMARK    4  A    between atoms: CA_11  and  CB_12
REMARK    5  A    between atoms: CA_11  and  C_19
REMARK    6  A    between atoms: CB_12  and  CG_13
REMARK                            x       y       z     vdW  Elec       q    Type
REMARK                         _______ _______ _______ _____ _____    ______ ____
ROOT
ATOM      1  C   UNK A   0     -10.417  17.956  67.533  0.00  0.00    +0.241 C 
ATOM      2  N   PHE A   1     -10.843  17.195  68.653  0.00  0.00    -0.195 NA
ATOM      3  O   UNK A   0     -10.780  17.559  66.384  0.00  0.00    -0.273 OA
ENDROOT
BRANCH   1   7
ATOM      4  C   UNK A   0      -6.902  19.181  67.475  0.00  0.00    +0.000 C 
ATOM      5  C   UNK A   0      -7.641  18.901  66.194  0.00  0.00    +0.000 C 
ATOM      6  C   UNK A   0      -9.000  19.523  66.304  0.00  0.00    +0.009 C 
ATOM      7  C   UNK A   0      -9.718  19.238  67.573  0.00  0.00    +0.078 C 
ATOM      8  C   UNK A   0      -8.919  19.378  68.821  0.00  0.00    +0.009 C 
ATOM      9  C   UNK A   0      -7.633  18.617  68.662  0.00  0.00    +0.000 C 
BRANCH   4  11
ATOM     10  C   UNK A   0      -6.006  21.249  66.616  0.00  0.00    +0.000 C 
ATOM     11  C   UNK A   0      -6.510  20.617  67.642  0.00  0.00    +0.000 C 
ATOM     12  C   UNK A   0      -5.669  20.809  68.874  0.00  0.00    +0.000 C 
ENDBRANCH   4  11
ENDBRANCH   1   7
BRANCH   2  13
ATOM     13  CA  PHE A   1     -10.828  15.631  68.440  0.00  0.00    +0.202 C 
BRANCH  13  14
ATOM     14  C   PHE A   1      -9.240  15.519  68.203  0.00  0.00    +0.385 C 
ATOM     15  OXT PHE A   1      -8.717  14.887  67.142  0.00  0.00    -0.244 OA
ATOM     16  O   PHE A   1      -8.708  15.299  69.335  0.00  0.00    -0.244 OA
ENDBRANCH  13  14
BRANCH  13  17
ATOM     17  CB  PHE A   1     -10.686  15.361  70.055  0.00  0.00    +0.060 C 
BRANCH  17  18
ATOM     18  CG  PHE A   1     -11.946  15.870  70.680  0.00  0.00    -0.020 A 
ATOM     19  CD2 PHE A   1     -13.037  15.023  70.505  0.00  0.00    -0.004 A 
ATOM     20  CE2 PHE A   1     -14.049  14.893  71.411  0.00  0.00    -0.000 A 
ATOM     21  CZ  PHE A   1     -13.771  15.193  72.724  0.00  0.00    -0.000 A 
ATOM     22  CE1 PHE A   1     -12.573  15.823  73.035  0.00  0.00    -0.000 A 
ATOM     23  CD1 PHE A   1     -11.822  16.341  71.984  0.00  0.00    -0.004 A 
ENDBRANCH  17  18
ENDBRANCH  13  17
ENDBRANCH   2  13
TORSDOF 6
ENDMDL
MODEL 3
REMARK VINA RESULT:      -6.4      1.650      2.573
REMARK  Name = 
REMARK  6 active torsions:
REMARK  status: ('A' for Active; 'I' for Inactive)
REMARK    1  A    between atoms: C_2  and  C_4
REMARK    2  A    between atoms: C_7  and  C_8
REMARK    3  A    between atoms: N_10  and  CA_11
REMARK    4  A    between atoms: CA_11  and  CB_12
REMARK    5  A    between atoms: CA_11  and  C_19
REMARK    6  A    between atoms: CB_12  and  CG_13
REMARK                            x       y       z     vdW  Elec       q    Type
REMARK                         _______ _______ _______ _____ _____    ______ ____
ROOT
ATOM      1  C   UNK A   0     -10.225  17.685  66.575  0.00  0.00    +0.241 C 
ATOM      2  N   PHE A   1     -10.538  16.468  67.237  0.00  0.00    -0.195 NA
ATOM      3  O   UNK A   0     -10.568  17.793  65.358  0.00  0.00    -0.273 OA
ENDROOT
BRANCH   1   7
ATOM      4  C   UNK A   0      -6.882  18.980  67.578  0.00  0.00    +0.000 C 
ATOM      5  C   UNK A   0      -7.388  19.162  66.172  0.00  0.00    +0.000 C 
ATOM      6  C   UNK A   0      -8.803  19.647  66.255  0.00  0.00    +0.009 C 
ATOM      7  C   UNK A   0      -9.671  18.887  67.192  0.00  0.00    +0.078 C 
ATOM      8  C   UNK A   0      -9.087  18.589  68.528  0.00  0.00    +0.009 C 
ATOM      9  C   UNK A   0      -7.722  17.991  68.338  0.00  0.00    +0.000 C 
BRANCH   4  11
ATOM     10  C   UNK A   0      -5.989  21.215  67.720  0.00  0.00    +0.000 C 
ATOM     11  C   UNK A   0      -6.665  20.267  68.312  0.00  0.00    +0.000 C 
ATOM     12  C   UNK A   0      -6.159  20.017  69.706  0.00  0.00    +0.000 C 
ENDBRANCH   4  11
ENDBRANCH   1   7
BRANCH   2  13
ATOM     13  CA  PHE A   1     -10.353  15.168  66.362  0.00  0.00    +0.202 C 
BRANCH  13  14
ATOM     14  C   PHE A   1      -9.270  14.477  67.331  0.00  0.00    +0.385 C 
ATOM     15  OXT PHE A   1      -8.552  13.408  66.956  0.00  0.00    -0.244 OA
ATOM     16  O   PHE A   1      -9.769  14.465  68.499  0.00  0.00    -0.244 OA
ENDBRANCH  13  14
BRANCH  13  17
ATOM     17  CB  PHE A   1     -11.614  14.423  67.108  0.00  0.00    +0.060 C 
BRANCH  17  18
ATOM     18  CG  PHE A   1     -12.181  13.459  66.115  0.00  0.00    -0.020 A 
ATOM     19  CD2 PHE A   1     -12.234  13.961  64.818  0.00  0.00    -0.004 A 
ATOM     20  CE2 PHE A   1     -12.097  13.190  63.700  0.00  0.00    -0.000 A 
ATOM     21  CZ  PHE A   1     -11.402  12.010  63.822  0.00  0.00    -0.000 A 
ATOM     22  CE1 PHE A   1     -11.077  11.544  65.089  0.00  0.00    -0.000 A 
ATOM     23  CD1 PHE A   1     -11.677  12.163  66.181  0.00  0.00    -0.004 A 
ENDBRANCH  17  18
ENDBRANCH  13  17
ENDBRANCH   2  13
TORSDOF 6
ENDMDL
MODEL 4
REMARK VINA RESULT:      -6.4      3.083      4.051
REMARK  Name = 
REMARK  6 active torsions:
REMARK  status: ('A' for Active; 'I' for Inactive)
REMARK    1  A    between atoms: C_2  and  C_4
REMARK    2  A    between atoms: C_7  and  C_8
REMARK    3  A    between atoms: N_10  and  CA_11
REMARK    4  A    between atoms: CA_11  and  CB_12
REMARK    5  A    between atoms: CA_11  and  C_19
REMARK    6  A    between atoms: CB_12  and  CG_13
REMARK                            x       y       z     vdW  Elec       q    Type
REMARK                         _______ _______ _______ _____ _____    ______ ____
ROOT
ATOM      1  C   UNK A   0     -10.457  16.762  67.555  0.00  0.00    +0.241 C 
ATOM      2  N   PHE A   1     -10.339  15.374  67.832  0.00  0.00    -0.195 NA
ATOM      3  O   UNK A   0     -11.298  17.424  68.235  0.00  0.00    -0.273 OA
ENDROOT
BRANCH   1   7
ATOM      4  C   UNK A   0      -7.226  18.603  67.734  0.00  0.00    +0.000 C 
ATOM      5  C   UNK A   0      -7.255  17.124  67.457  0.00  0.00    +0.000 C 
ATOM      6  C   UNK A   0      -8.299  16.874  66.412  0.00  0.00    +0.009 C 
ATOM      7  C   UNK A   0      -9.604  17.540  66.660  0.00  0.00    +0.078 C 
ATOM      8  C   UNK A   0      -9.541  18.967  67.079  0.00  0.00    +0.009 C 
ATOM      9  C   UNK A   0      -8.563  19.096  68.213  0.00  0.00    +0.000 C 
BRANCH   4  11
ATOM     10  C   UNK A   0      -5.576  18.987  66.017  0.00  0.00    +0.000 C 
ATOM     11  C   UNK A   0      -6.659  19.415  66.611  0.00  0.00    +0.000 C 
ATOM     12  C   UNK A   0      -6.539  20.864  66.996  0.00  0.00    +0.000 C 
ENDBRANCH   4  11
ENDBRANCH   1   7
BRANCH   2  13
ATOM     13  CA  PHE A   1     -11.703  14.637  68.128  0.00  0.00    +0.202 C 
BRANCH  13  14
ATOM     14  C   PHE A   1     -11.236  13.206  67.559  0.00  0.00    +0.385 C 
ATOM     15  OXT PHE A   1     -12.077  12.380  66.919  0.00  0.00    -0.244 OA
ATOM     16  O   PHE A   1     -10.462  12.694  68.426  0.00  0.00    -0.244 OA
ENDBRANCH  13  14
BRANCH  13  17
ATOM     17  CB  PHE A   1     -11.232  14.270  69.659  0.00  0.00    +0.060 C 
BRANCH  17  18
ATOM     18  CG  PHE A   1     -12.319  14.761  70.562  0.00  0.00    -0.020 A 
ATOM     19  CD2 PHE A   1     -12.894  13.759  71.338  0.00  0.00    -0.004 A 
ATOM     20  CE2 PHE A   1     -13.394  13.963  72.593  0.00  0.00    -0.000 A 
ATOM     21  CZ  PHE A   1     -12.889  15.019  73.315  0.00  0.00    -0.000 A 
ATOM     22  CE1 PHE A   1     -12.083  15.952  72.676  0.00  0.00    -0.000 A 
ATOM     23  CD1 PHE A   1     -12.023  15.913  71.286  0.00  0.00    -0.004 A 
ENDBRANCH  17  18
ENDBRANCH  13  17
ENDBRANCH   2  13
TORSDOF 6
ENDMDL
MODEL 5
REMARK VINA RESULT:      -6.3      1.183      1.888
REMARK  Name = 
REMARK  6 active torsions:
REMARK  status: ('A' for Active; 'I' for Inactive)
REMARK    1  A    between atoms: C_2  and  C_4
REMARK    2  A    between atoms: C_7  and  C_8
REMARK    3  A    between atoms: N_10  and  CA_11
REMARK    4  A    between atoms: CA_11  and  CB_12
REMARK    5  A    between atoms: CA_11  and  C_19
REMARK    6  A    between atoms: CB_12  and  CG_13
REMARK                            x       y       z     vdW  Elec       q    Type
REMARK                         _______ _______ _______ _____ _____    ______ ____
ROOT
ATOM      1  C   UNK A   0      -8.763  15.431  66.877  0.00  0.00    +0.241 C 
ATOM      2  N   PHE A   1      -9.454  15.251  65.650  0.00  0.00    -0.195 NA
ATOM      3  O   UNK A   0      -9.065  14.659  67.837  0.00  0.00    -0.273 OA
ENDROOT
BRANCH   1   7
ATOM      4  C   UNK A   0      -8.214  19.010  67.744  0.00  0.00    +0.000 C 
ATOM      5  C   UNK A   0      -8.445  17.983  68.821  0.00  0.00    +0.000 C 
ATOM      6  C   UNK A   0      -7.576  16.800  68.518  0.00  0.00    +0.009 C 
ATOM      7  C   UNK A   0      -7.633  16.327  67.110  0.00  0.00    +0.078 C 
ATOM      8  C   UNK A   0      -7.554  17.381  66.063  0.00  0.00    +0.009 C 
ATOM      9  C   UNK A   0      -8.548  18.461  66.385  0.00  0.00    +0.000 C 
BRANCH   4  11
ATOM     10  C   UNK A   0      -6.404  20.015  68.980  0.00  0.00    +0.000 C 
ATOM     11  C   UNK A   0      -6.868  19.661  67.811  0.00  0.00    +0.000 C 
ATOM     12  C   UNK A   0      -6.758  20.782  66.814  0.00  0.00    +0.000 C 
ENDBRANCH   4  11
ENDBRANCH   1   7
BRANCH   2  13
ATOM     13  CA  PHE A   1     -10.989  14.916  65.793  0.00  0.00    +0.202 C 
BRANCH  13  14
ATOM     14  C   PHE A   1     -11.436  15.633  64.423  0.00  0.00    +0.385 C 
ATOM     15  OXT PHE A   1     -11.320  16.955  64.234  0.00  0.00    -0.244 OA
ATOM     16  O   PHE A   1     -12.519  15.083  64.051  0.00  0.00    -0.244 OA
ENDBRANCH  13  14
BRANCH  13  17
ATOM     17  CB  PHE A   1     -10.794  13.459  65.060  0.00  0.00    +0.060 C 
BRANCH  17  18
ATOM     18  CG  PHE A   1     -11.501  12.458  65.918  0.00  0.00    -0.020 A 
ATOM     19  CD2 PHE A   1     -10.786  11.278  66.103  0.00  0.00    -0.004 A 
ATOM     20  CE2 PHE A   1     -10.850  10.522  67.238  0.00  0.00    -0.000 A 
ATOM     21  CZ  PHE A   1     -11.210  11.154  68.405  0.00  0.00    -0.000 A 
ATOM     22  CE1 PHE A   1     -11.708  12.449  68.346  0.00  0.00    -0.000 A 
ATOM     23  CD1 PHE A   1     -12.048  12.957  67.097  0.00  0.00    -0.004 A 
ENDBRANCH  17  18
ENDBRANCH  13  17
ENDBRANCH   2  13
TORSDOF 6
ENDMDL
MODEL 6
REMARK VINA RESULT:      -6.3      3.381      7.186
REMARK  Name = 
REMARK  6 active torsions:
REMARK  status: ('A' for Active; 'I' for Inactive)
REMARK    1  A    between atoms: C_2  and  C_4
REMARK    2  A    between atoms: C_7  and  C_8
REMARK    3  A    between atoms: N_10  and  CA_11
REMARK    4  A    between atoms: CA_11  and  CB_12
REMARK    5  A    between atoms: CA_11  and  C_19
REMARK    6  A    between atoms: CB_12  and  CG_13
REMARK                            x       y       z     vdW  Elec       q    Type
REMARK                         _______ _______ _______ _____ _____    ______ ____
ROOT
ATOM      1  C   UNK A   0     -11.564  12.708  68.070  0.00  0.00    +0.241 C 
ATOM      2  N   PHE A   1     -11.790  14.092  67.844  0.00  0.00    -0.195 NA
ATOM      3  O   UNK A   0     -11.437  12.326  69.273  0.00  0.00    -0.273 OA
ENDROOT
BRANCH   1   7
ATOM      4  C   UNK A   0      -9.319  11.302  65.455  0.00  0.00    +0.000 C 
ATOM      5  C   UNK A   0      -9.236  10.823  66.880  0.00  0.00    +0.000 C 
ATOM      6  C   UNK A   0     -10.632  10.564  67.357  0.00  0.00    +0.009 C 
ATOM      7  C   UNK A   0     -11.605  11.649  67.065  0.00  0.00    +0.078 C 
ATOM      8  C   UNK A   0     -11.563  12.210  65.687  0.00  0.00    +0.009 C 
ATOM      9  C   UNK A   0     -10.141  12.556  65.347  0.00  0.00    +0.000 C 
BRANCH   4  11
ATOM     10  C   UNK A   0      -9.111   9.084  64.532  0.00  0.00    +0.000 C 
ATOM     11  C   UNK A   0      -9.724  10.237  64.484  0.00  0.00    +0.000 C 
ATOM     12  C   UNK A   0      -9.776  10.774  63.080  0.00  0.00    +0.000 C 
ENDBRANCH   4  11
ENDBRANCH   1   7
BRANCH   2  13
ATOM     13  CA  PHE A   1     -10.969  15.062  68.780  0.00  0.00    +0.202 C 
BRANCH  13  14
ATOM     14  C   PHE A   1     -10.829  16.245  67.699  0.00  0.00    +0.385 C 
ATOM     15  OXT PHE A   1      -9.980  16.174  66.664  0.00  0.00    -0.244 OA
ATOM     16  O   PHE A   1     -10.880  17.342  68.337  0.00  0.00    -0.244 OA
ENDBRANCH  13  14
BRANCH  13  17
ATOM     17  CB  PHE A   1     -12.345  15.697  69.415  0.00  0.00    +0.060 C 
BRANCH  17  18
ATOM     18  CG  PHE A   1     -12.462  15.148  70.801  0.00  0.00    -0.020 A 
ATOM     19  CD2 PHE A   1     -11.665  15.808  71.732  0.00  0.00    -0.004 A 
ATOM     20  CE2 PHE A   1     -12.002  15.963  73.046  0.00  0.00    -0.000 A 
ATOM     21  CZ  PHE A   1     -13.339  15.929  73.368  0.00  0.00    -0.000 A 
ATOM     22  CE1 PHE A   1     -14.255  15.516  72.410  0.00  0.00    -0.000 A 
ATOM     23  CD1 PHE A   1     -13.760  14.925  71.252  0.00  0.00    -0.004 A 
ENDBRANCH  17  18
ENDBRANCH  13  17
ENDBRANCH   2  13
TORSDOF 6
ENDMDL
MODEL 7
REMARK VINA RESULT:      -6.1      1.753      2.835
REMARK  Name = 
REMARK  6 active torsions:
REMARK  status: ('A' for Active; 'I' for Inactive)
REMARK    1  A    between atoms: C_2  and  C_4
REMARK    2  A    between atoms: C_7  and  C_8
REMARK    3  A    between atoms: N_10  and  CA_11
REMARK    4  A    between atoms: CA_11  and  CB_12
REMARK    5  A    between atoms: CA_11  and  C_19
REMARK    6  A    between atoms: CB_12  and  CG_13
REMARK                            x       y       z     vdW  Elec       q    Type
REMARK                         _______ _______ _______ _____ _____    ______ ____
ROOT
ATOM      1  C   UNK A   0      -9.580  14.703  66.195  0.00  0.00    +0.241 C 
ATOM      2  N   PHE A   1     -10.189  14.000  65.122  0.00  0.00    -0.195 NA
ATOM      3  O   UNK A   0      -9.397  14.069  67.279  0.00  0.00    -0.273 OA
ENDROOT
BRANCH   1   7
ATOM      4  C   UNK A   0      -9.403  17.720  68.368  0.00  0.00    +0.000 C 
ATOM      5  C   UNK A   0      -8.398  16.608  68.511  0.00  0.00    +0.000 C 
ATOM      6  C   UNK A   0      -7.928  16.238  67.137  0.00  0.00    +0.009 C 
ATOM      7  C   UNK A   0      -9.010  16.046  66.136  0.00  0.00    +0.078 C 
ATOM      8  C   UNK A   0     -10.075  17.085  66.119  0.00  0.00    +0.009 C 
ATOM      9  C   UNK A   0     -10.570  17.296  67.521  0.00  0.00    +0.000 C 
BRANCH   4  11
ATOM     10  C   UNK A   0      -7.763  19.473  68.599  0.00  0.00    +0.000 C 
ATOM     11  C   UNK A   0      -8.802  19.025  67.946  0.00  0.00    +0.000 C 
ATOM     12  C   UNK A   0      -9.858  20.086  67.800  0.00  0.00    +0.000 C 
ENDBRANCH   4  11
ENDBRANCH   1   7
BRANCH   2  13
ATOM     13  CA  PHE A   1     -11.355  13.024  65.542  0.00  0.00    +0.202 C 
BRANCH  13  14
ATOM     14  C   PHE A   1     -12.271  13.304  64.248  0.00  0.00    +0.385 C 
ATOM     15  OXT PHE A   1     -12.613  14.543  63.867  0.00  0.00    -0.244 OA
ATOM     16  O   PHE A   1     -13.180  12.417  64.235  0.00  0.00    -0.244 OA
ENDBRANCH  13  14
BRANCH  13  17
ATOM     17  CB  PHE A   1     -10.608  11.743  64.834  0.00  0.00    +0.060 C 
BRANCH  17  18
ATOM     18  CG  PHE A   1     -10.012  10.937  65.944  0.00  0.00    -0.020 A 
ATOM     19  CD2 PHE A   1     -10.833  10.836  67.063  0.00  0.00    -0.004 A 
ATOM     20  CE2 PHE A   1     -10.861   9.748  67.889  0.00  0.00    -0.000 A 
ATOM     21  CZ  PHE A   1     -10.471   8.540  67.363  0.00  0.00    -0.000 A 
ATOM     22  CE1 PHE A   1      -9.858   8.511  66.117  0.00  0.00    -0.000 A 
ATOM     23  CD1 PHE A   1      -9.447   9.722  65.568  0.00  0.00    -0.004 A 
ENDBRANCH  17  18
ENDBRANCH  13  17
ENDBRANCH   2  13
TORSDOF 6
ENDMDL
MODEL 8
REMARK VINA RESULT:      -6.1      1.893      7.599
REMARK  Name = 
REMARK  6 active torsions:
REMARK  status: ('A' for Active; 'I' for Inactive)
REMARK    1  A    between atoms: C_2  and  C_4
REMARK    2  A    between atoms: C_7  and  C_8
REMARK    3  A    between atoms: N_10  and  CA_11
REMARK    4  A    between atoms: CA_11  and  CB_12
REMARK    5  A    between atoms: CA_11  and  C_19
REMARK    6  A    between atoms: CB_12  and  CG_13
REMARK                            x       y       z     vdW  Elec       q    Type
REMARK                         _______ _______ _______ _____ _____    ______ ____
ROOT
ATOM      1  C   UNK A   0     -11.545  13.999  67.098  0.00  0.00    +0.241 C 
ATOM      2  N   PHE A   1     -11.118  14.474  68.366  0.00  0.00    -0.195 NA
ATOM      3  O   UNK A   0     -11.618  14.841  66.152  0.00  0.00    -0.273 OA
ENDROOT
BRANCH   1   7
ATOM      4  C   UNK A   0      -9.612  10.819  66.990  0.00  0.00    +0.000 C 
ATOM      5  C   UNK A   0     -10.293  11.264  68.257  0.00  0.00    +0.000 C 
ATOM      6  C   UNK A   0     -11.683  11.694  67.902  0.00  0.00    +0.009 C 
ATOM      7  C   UNK A   0     -11.776  12.604  66.730  0.00  0.00    +0.078 C 
ATOM      8  C   UNK A   0     -10.972  12.219  65.539  0.00  0.00    +0.009 C 
ATOM      9  C   UNK A   0      -9.565  11.929  65.976  0.00  0.00    +0.000 C 
BRANCH   4  11
ATOM     10  C   UNK A   0     -10.412   8.562  67.274  0.00  0.00    +0.000 C 
ATOM     11  C   UNK A   0     -10.144   9.531  66.440  0.00  0.00    +0.000 C 
ATOM     12  C   UNK A   0      -9.309   9.049  65.286  0.00  0.00    +0.000 C 
ENDBRANCH   4  11
ENDBRANCH   1   7
BRANCH   2  13
ATOM     13  CA  PHE A   1     -11.674  15.896  68.766  0.00  0.00    +0.202 C 
BRANCH  13  14
ATOM     14  C   PHE A   1     -12.073  15.493  70.271  0.00  0.00    +0.385 C 
ATOM     15  OXT PHE A   1     -13.190  15.943  70.862  0.00  0.00    -0.244 OA
ATOM     16  O   PHE A   1     -11.004  15.507  70.957  0.00  0.00    -0.244 OA
ENDBRANCH  13  14
BRANCH  13  17
ATOM     17  CB  PHE A   1     -10.180  16.412  69.215  0.00  0.00    +0.060 C 
BRANCH  17  18
ATOM     18  CG  PHE A   1      -9.701  17.316  68.124  0.00  0.00    -0.020 A 
ATOM     19  CD2 PHE A   1     -10.720  18.043  67.515  0.00  0.00    -0.004 A 
ATOM     20  CE2 PHE A   1     -10.555  19.297  66.999  0.00  0.00    -0.000 A 
ATOM     21  CZ  PHE A   1      -9.539  20.068  67.514  0.00  0.00    -0.000 A 
ATOM     22  CE1 PHE A   1      -8.599  19.479  68.349  0.00  0.00    -0.000 A 
ATOM     23  CD1 PHE A   1      -8.586  18.090  68.432  0.00  0.00    -0.004 A 
ENDBRANCH  17  18
ENDBRANCH  13  17
ENDBRANCH   2  13
TORSDOF 6
ENDMDL
MODEL 9
REMARK VINA RESULT:      -6.1      1.248      7.499
REMARK  Name = 
REMARK  6 active torsions:
REMARK  status: ('A' for Active; 'I' for Inactive)
REMARK    1  A    between atoms: C_2  and  C_4
REMARK    2  A    between atoms: C_7  and  C_8
REMARK    3  A    between atoms: N_10  and  CA_11
REMARK    4  A    between atoms: CA_11  and  CB_12
REMARK    5  A    between atoms: CA_11  and  C_19
REMARK    6  A    between atoms: CB_12  and  CG_13
REMARK                            x       y       z     vdW  Elec       q    Type
REMARK                         _______ _______ _______ _____ _____    ______ ____
ROOT
ATOM      1  C   UNK A   0     -10.567  15.789  65.959  0.00  0.00    +0.241 C 
ATOM      2  N   PHE A   1      -9.643  16.441  66.818  0.00  0.00    -0.195 NA
ATOM      3  O   UNK A   0     -10.577  16.137  64.739  0.00  0.00    -0.273 OA
ENDROOT
BRANCH   1   7
ATOM      4  C   UNK A   0     -10.273  12.612  67.878  0.00  0.00    +0.000 C 
ATOM      5  C   UNK A   0     -10.621  13.901  68.572  0.00  0.00    +0.000 C 
ATOM      6  C   UNK A   0     -11.686  14.581  67.766  0.00  0.00    +0.009 C 
ATOM      7  C   UNK A   0     -11.416  14.652  66.306  0.00  0.00    +0.078 C 
ATOM      8  C   UNK A   0     -10.926  13.398  65.671  0.00  0.00    +0.009 C 
ATOM      9  C   UNK A   0      -9.780  12.860  66.479  0.00  0.00    +0.000 C 
BRANCH   4  11
ATOM     10  C   UNK A   0     -11.921  11.355  69.111  0.00  0.00    +0.000 C 
ATOM     11  C   UNK A   0     -11.350  11.575  67.956  0.00  0.00    +0.000 C 
ATOM     12  C   UNK A   0     -10.915  10.291  67.304  0.00  0.00    +0.000 C 
ENDBRANCH   4  11
ENDBRANCH   1   7
BRANCH   2  13
ATOM     13  CA  PHE A   1      -9.463  17.986  66.552  0.00  0.00    +0.202 C 
BRANCH  13  14
ATOM     14  C   PHE A   1     -10.251  18.467  67.870  0.00  0.00    +0.385 C 
ATOM     15  OXT PHE A   1     -10.561  17.625  68.866  0.00  0.00    -0.244 OA
ATOM     16  O   PHE A   1     -11.150  19.280  67.491  0.00  0.00    -0.244 OA
ENDBRANCH  13  14
BRANCH  13  17
ATOM     17  CB  PHE A   1      -8.010  18.002  67.318  0.00  0.00    +0.060 C 
BRANCH  17  18
ATOM     18  CG  PHE A   1      -7.699  19.438  67.601  0.00  0.00    -0.020 A 
ATOM     19  CD2 PHE A   1      -6.851  19.620  68.690  0.00  0.00    -0.004 A 
ATOM     20  CE2 PHE A   1      -5.953  20.644  68.789  0.00  0.00    -0.000 A 
ATOM     21  CZ  PHE A   1      -5.502  21.210  67.620  0.00  0.00    -0.000 A 
ATOM     22  CE1 PHE A   1      -6.134  20.891  66.426  0.00  0.00    -0.000 A 
ATOM     23  CD1 PHE A   1      -7.343  20.205  66.496  0.00  0.00    -0.004 A 
ENDBRANCH  17  18
ENDBRANCH  13  17
ENDBRANCH   2  13
TORSDOF 6
ENDMDL
