MODEL 1
REMARK VINA RESULT:      -7.5      0.000      0.000
REMARK  Name = 
REMARK  2 active torsions:
REMARK  status: ('A' for Active; 'I' for Inactive)
REMARK    1  A    between atoms: C_23  and  C_24
REMARK    2  A    between atoms: C_24  and  C_26
REMARK                            x       y       z     vdW  Elec       q    Type
REMARK                         _______ _______ _______ _____ _____    ______ ____
ROOT
ATOM      1  C   UNL     1     -12.077  14.014  69.188  0.00  0.00    +0.000 C 
ATOM      2  C   UNL     1     -11.321  13.233  67.980  0.00  0.00    +0.007 C 
ATOM      3  C   UNL     1     -11.756  14.448  66.878  0.00  0.00    +0.060 C 
ATOM      4  C   UNL     1     -10.270  14.938  66.567  0.00  0.00    +0.009 C 
ATOM      5  C   UNL     1     -10.159  15.358  68.127  0.00  0.00    +0.003 C 
ATOM      6  C   UNL     1      -8.558  15.784  67.787  0.00  0.00    +0.033 C 
ATOM      7  C   UNL     1      -8.952  17.340  67.782  0.00  0.00    +0.168 C 
ATOM      8  C   UNL     1     -10.332  17.454  66.921  0.00  0.00    +0.182 C 
ATOM      9  O   UNL     1      -9.763  18.410  65.884  0.00  0.00    -0.220 OA
ATOM     10  F   UNL     1      -9.388  17.724  69.006  0.00  0.00    -0.237 F 
ATOM     11  C   UNL     1      -7.804  17.985  67.251  0.00  0.00    +0.064 C 
ATOM     12  C   UNL     1      -6.723  17.577  68.207  0.00  0.00    -0.035 C 
ATOM     13  C   UNL     1      -5.794  18.509  68.438  0.00  0.00    +0.034 C 
ATOM     14  C   UNL     1      -6.141  19.933  68.546  0.00  0.00    +0.195 C 
ATOM     15  C   UNL     1      -7.483  20.251  68.035  0.00  0.00    +0.038 C 
ATOM     16  O   UNL     1      -5.442  20.767  69.175  0.00  0.00    -0.287 OA
ATOM     17  C   UNL     1      -6.703  16.387  69.057  0.00  0.00    +0.023 C 
ATOM     18  C   UNL     1      -7.420  17.395  65.898  0.00  0.00    +0.011 C 
ATOM     19  C   UNL     1      -7.839  19.446  67.047  0.00  0.00    -0.017 C 
ATOM     20  C   UNL     1      -8.066  15.772  69.331  0.00  0.00    +0.007 C 
ATOM     21  C   UNL     1      -9.381  13.854  66.212  0.00  0.00    +0.001 C 
ATOM     22  C   UNL     1     -10.093  16.170  65.910  0.00  0.00    +0.036 C 
ATOM     23  C   UNL     1      -9.885  13.808  68.431  0.00  0.00    +0.001 C 
ENDROOT
BRANCH   3  24
ATOM     24  C   UNL     1     -11.778  13.417  65.647  0.00  0.00    +0.183 C 
ATOM     25  O   UNL     1     -12.415  12.384  65.854  0.00  0.00    -0.293 OA
BRANCH  24  26
ATOM     26  C   UNL     1     -12.210  14.093  64.377  0.00  0.00    +0.246 C 
ATOM     27  O   UNL     1     -12.404  13.211  63.338  0.00  0.00    -0.212 OA
ENDBRANCH  24  26
ENDBRANCH   3  24
TORSDOF 2
ENDMDL
MODEL 2
REMARK VINA RESULT:      -7.1      1.885      3.445
REMARK  Name = 
REMARK  2 active torsions:
REMARK  status: ('A' for Active; 'I' for Inactive)
REMARK    1  A    between atoms: C_23  and  C_24
REMARK    2  A    between atoms: C_24  and  C_26
REMARK                            x       y       z     vdW  Elec       q    Type
REMARK                         _______ _______ _______ _____ _____    ______ ____
ROOT
ATOM      1  C   UNL     1     -10.314  12.886  64.493  0.00  0.00    +0.000 C 
ATOM      2  C   UNL     1     -11.489  12.953  65.612  0.00  0.00    +0.007 C 
ATOM      3  C   UNL     1     -10.358  12.759  66.861  0.00  0.00    +0.060 C 
ATOM      4  C   UNL     1     -10.591  14.189  67.528  0.00  0.00    +0.009 C 
ATOM      5  C   UNL     1     -10.061  14.841  66.143  0.00  0.00    +0.003 C 
ATOM      6  C   UNL     1     -10.404  16.342  66.844  0.00  0.00    +0.033 C 
ATOM      7  C   UNL     1      -8.843  16.590  67.124  0.00  0.00    +0.168 C 
ATOM      8  C   UNL     1      -8.264  15.193  67.733  0.00  0.00    +0.182 C 
ATOM      9  O   UNL     1      -7.783  15.807  69.039  0.00  0.00    -0.220 OA
ATOM     10  F   UNL     1      -8.156  16.658  65.957  0.00  0.00    -0.237 F 
ATOM     11  C   UNL     1      -8.821  17.726  67.976  0.00  0.00    +0.064 C 
ATOM     12  C   UNL     1      -9.524  18.768  67.158  0.00  0.00    -0.035 C 
ATOM     13  C   UNL     1      -9.054  20.010  67.305  0.00  0.00    +0.034 C 
ATOM     14  C   UNL     1      -7.616  20.277  67.455  0.00  0.00    +0.195 C 
ATOM     15  C   UNL     1      -6.827  19.080  67.779  0.00  0.00    +0.038 C 
ATOM     16  O   UNL     1      -7.086  21.377  67.157  0.00  0.00    -0.287 OA
ATOM     17  C   UNL     1     -10.489  18.540  66.083  0.00  0.00    +0.023 C 
ATOM     18  C   UNL     1      -9.687  17.500  69.211  0.00  0.00    +0.011 C 
ATOM     19  C   UNL     1      -7.523  18.206  68.488  0.00  0.00    -0.017 C 
ATOM     20  C   UNL     1     -10.425  17.162  65.446  0.00  0.00    +0.007 C 
ATOM     21  C   UNL     1     -11.986  14.472  67.785  0.00  0.00    +0.001 C 
ATOM     22  C   UNL     1      -9.647  14.657  68.461  0.00  0.00    +0.036 C 
ATOM     23  C   UNL     1     -11.528  14.563  65.558  0.00  0.00    +0.001 C 
ENDROOT
BRANCH   3  24
ATOM     24  C   UNL     1     -11.430  12.033  67.811  0.00  0.00    +0.183 C 
ATOM     25  O   UNL     1     -12.007  11.075  67.296  0.00  0.00    -0.293 OA
BRANCH  24  26
ATOM     26  C   UNL     1     -10.827  11.673  69.138  0.00  0.00    +0.246 C 
ATOM     27  O   UNL     1     -11.706  11.828  70.187  0.00  0.00    -0.212 OA
ENDBRANCH  24  26
ENDBRANCH   3  24
TORSDOF 2
ENDMDL
MODEL 3
REMARK VINA RESULT:      -7.0      1.781      6.689
REMARK  Name = 
REMARK  2 active torsions:
REMARK  status: ('A' for Active; 'I' for Inactive)
REMARK    1  A    between atoms: C_23  and  C_24
REMARK    2  A    between atoms: C_24  and  C_26
REMARK                            x       y       z     vdW  Elec       q    Type
REMARK                         _______ _______ _______ _____ _____    ______ ____
ROOT
ATOM      1  C   UNL     1     -10.339  20.368  67.637  0.00  0.00    +0.000 C 
ATOM      2  C   UNL     1      -8.865  20.237  66.966  0.00  0.00    +0.007 C 
ATOM      3  C   UNL     1      -8.266  19.465  68.353  0.00  0.00    +0.060 C 
ATOM      4  C   UNL     1      -7.952  18.067  67.652  0.00  0.00    +0.009 C 
ATOM      5  C   UNL     1      -9.541  17.940  67.360  0.00  0.00    +0.003 C 
ATOM      6  C   UNL     1      -9.167  16.507  66.543  0.00  0.00    +0.033 C 
ATOM      7  C   UNL     1      -9.703  15.637  67.782  0.00  0.00    +0.168 C 
ATOM      8  C   UNL     1      -9.093  16.336  69.123  0.00  0.00    +0.182 C 
ATOM      9  O   UNL     1      -8.354  15.093  69.595  0.00  0.00    -0.220 OA
ATOM     10  F   UNL     1     -11.028  15.847  67.971  0.00  0.00    -0.237 F 
ATOM     11  C   UNL     1      -9.273  14.316  67.488  0.00  0.00    +0.064 C 
ATOM     12  C   UNL     1      -9.914  14.047  66.160  0.00  0.00    -0.035 C 
ATOM     13  C   UNL     1     -10.317  12.787  65.975  0.00  0.00    +0.034 C 
ATOM     14  C   UNL     1     -10.913  12.000  67.064  0.00  0.00    +0.195 C 
ATOM     15  C   UNL     1     -10.693  12.583  68.397  0.00  0.00    +0.038 C 
ATOM     16  O   UNL     1     -11.687  11.030  66.870  0.00  0.00    -0.287 OA
ATOM     17  C   UNL     1     -10.333  15.036  65.168  0.00  0.00    +0.023 C 
ATOM     18  C   UNL     1      -7.767  14.270  67.250  0.00  0.00    +0.011 C 
ATOM     19  C   UNL     1      -9.550  13.245  68.464  0.00  0.00    -0.017 C 
ATOM     20  C   UNL     1     -10.557  16.437  65.714  0.00  0.00    +0.007 C 
ATOM     21  C   UNL     1      -7.169  18.205  66.444  0.00  0.00    +0.001 C 
ATOM     22  C   UNL     1      -7.706  16.947  68.467  0.00  0.00    +0.036 C 
ATOM     23  C   UNL     1      -9.301  18.934  66.125  0.00  0.00    +0.001 C 
ENDROOT
BRANCH   3  24
ATOM     24  C   UNL     1      -6.783  20.030  68.110  0.00  0.00    +0.183 C 
ATOM     25  O   UNL     1      -6.736  21.188  67.694  0.00  0.00    -0.293 OA
BRANCH  24  26
ATOM     26  C   UNL     1      -5.920  19.839  69.324  0.00  0.00    +0.246 C 
ATOM     27  O   UNL     1      -6.437  20.438  70.451  0.00  0.00    -0.212 OA
ENDBRANCH  24  26
ENDBRANCH   3  24
TORSDOF 2
ENDMDL
MODEL 4
REMARK VINA RESULT:      -6.8      2.082      2.735
REMARK  Name = 
REMARK  2 active torsions:
REMARK  status: ('A' for Active; 'I' for Inactive)
REMARK    1  A    between atoms: C_23  and  C_24
REMARK    2  A    between atoms: C_24  and  C_26
REMARK                            x       y       z     vdW  Elec       q    Type
REMARK                         _______ _______ _______ _____ _____    ______ ____
ROOT
ATOM      1  C   UNL     1     -12.053  11.399  68.309  0.00  0.00    +0.000 C 
ATOM      2  C   UNL     1     -10.576  11.046  67.732  0.00  0.00    +0.007 C 
ATOM      3  C   UNL     1     -10.957  11.745  66.234  0.00  0.00    +0.060 C 
ATOM      4  C   UNL     1      -9.887  12.925  66.317  0.00  0.00    +0.009 C 
ATOM      5  C   UNL     1     -10.693  13.467  67.614  0.00  0.00    +0.003 C 
ATOM      6  C   UNL     1      -9.493  14.653  67.730  0.00  0.00    +0.033 C 
ATOM      7  C   UNL     1     -10.490  15.751  67.116  0.00  0.00    +0.168 C 
ATOM      8  C   UNL     1     -11.219  15.038  65.843  0.00  0.00    +0.182 C 
ATOM      9  O   UNL     1     -10.739  16.061  64.826  0.00  0.00    -0.220 OA
ATOM     10  F   UNL     1     -11.551  15.942  67.937  0.00  0.00    -0.237 F 
ATOM     11  C   UNL     1      -9.652  16.863  66.841  0.00  0.00    +0.064 C 
ATOM     12  C   UNL     1      -9.065  17.177  68.185  0.00  0.00    -0.035 C 
ATOM     13  C   UNL     1      -8.868  18.476  68.425  0.00  0.00    +0.034 C 
ATOM     14  C   UNL     1      -9.822  19.497  67.968  0.00  0.00    +0.195 C 
ATOM     15  C   UNL     1     -10.770  19.005  66.958  0.00  0.00    +0.038 C 
ATOM     16  O   UNL     1      -9.938  20.624  68.513  0.00  0.00    -0.287 OA
ATOM     17  C   UNL     1      -8.902  16.256  69.310  0.00  0.00    +0.023 C 
ATOM     18  C   UNL     1      -8.481  16.461  65.950  0.00  0.00    +0.011 C 
ATOM     19  C   UNL     1     -10.240  18.056  66.203  0.00  0.00    -0.017 C 
ATOM     20  C   UNL     1      -9.804  15.033  69.274  0.00  0.00    +0.007 C 
ATOM     21  C   UNL     1      -8.556  12.460  66.637  0.00  0.00    +0.001 C 
ATOM     22  C   UNL     1     -10.005  14.002  65.419  0.00  0.00    +0.036 C 
ATOM     23  C   UNL     1      -9.926  12.334  68.450  0.00  0.00    +0.001 C 
ENDROOT
BRANCH   3  24
ATOM     24  C   UNL     1      -9.959  10.765  65.446  0.00  0.00    +0.183 C 
ATOM     25  O   UNL     1     -10.038   9.580  65.772  0.00  0.00    -0.293 OA
BRANCH  24  26
ATOM     26  C   UNL     1     -10.079  10.942  63.960  0.00  0.00    +0.246 C 
ATOM     27  O   UNL     1     -11.345  11.313  63.564  0.00  0.00    -0.212 OA
ENDBRANCH  24  26
ENDBRANCH   3  24
TORSDOF 2
ENDMDL
MODEL 5
REMARK VINA RESULT:      -6.7      3.884      6.638
REMARK  Name = 
REMARK  2 active torsions:
REMARK  status: ('A' for Active; 'I' for Inactive)
REMARK    1  A    between atoms: C_23  and  C_24
REMARK    2  A    between atoms: C_24  and  C_26
REMARK                            x       y       z     vdW  Elec       q    Type
REMARK                         _______ _______ _______ _____ _____    ______ ____
ROOT
ATOM      1  C   UNL     1      -7.494   8.548  66.386  0.00  0.00    +0.000 C 
ATOM      2  C   UNL     1      -8.824   8.091  67.200  0.00  0.00    +0.007 C 
ATOM      3  C   UNL     1      -8.533   9.259  68.396  0.00  0.00    +0.060 C 
ATOM      4  C   UNL     1      -9.843  10.125  68.114  0.00  0.00    +0.009 C 
ATOM      5  C   UNL     1      -9.246  10.414  66.636  0.00  0.00    +0.003 C 
ATOM      6  C   UNL     1     -10.685  11.248  66.335  0.00  0.00    +0.033 C 
ATOM      7  C   UNL     1      -9.929  12.654  66.508  0.00  0.00    +0.168 C 
ATOM      8  C   UNL     1      -8.996  12.505  67.837  0.00  0.00    +0.182 C 
ATOM      9  O   UNL     1      -9.641  13.663  68.583  0.00  0.00    -0.220 OA
ATOM     10  F   UNL     1      -8.981  12.805  65.552  0.00  0.00    -0.237 F 
ATOM     11  C   UNL     1     -10.981  13.607  66.560  0.00  0.00    +0.064 C 
ATOM     12  C   UNL     1     -11.690  13.390  65.257  0.00  0.00    -0.035 C 
ATOM     13  C   UNL     1     -12.185  14.496  64.694  0.00  0.00    +0.034 C 
ATOM     14  C   UNL     1     -11.463  15.775  64.743  0.00  0.00    +0.195 C 
ATOM     15  C   UNL     1     -10.378  15.799  65.736  0.00  0.00    +0.038 C 
ATOM     16  O   UNL     1     -11.630  16.693  63.901  0.00  0.00    -0.287 OA
ATOM     17  C   UNL     1     -11.699  12.168  64.453  0.00  0.00    +0.023 C 
ATOM     18  C   UNL     1     -11.985  13.257  67.653  0.00  0.00    +0.011 C 
ATOM     19  C   UNL     1     -10.643  15.027  66.777  0.00  0.00    -0.017 C 
ATOM     20  C   UNL     1     -10.546  11.215  64.721  0.00  0.00    +0.007 C 
ATOM     21  C   UNL     1     -11.051   9.329  68.086  0.00  0.00    +0.001 C 
ATOM     22  C   UNL     1      -9.924  11.418  68.663  0.00  0.00    +0.036 C 
ATOM     23  C   UNL     1      -9.781   8.956  66.235  0.00  0.00    +0.001 C 
ENDROOT
BRANCH   3  24
ATOM     24  C   UNL     1      -9.245   8.372  69.530  0.00  0.00    +0.183 C 
ATOM     25  O   UNL     1      -8.939   7.180  69.518  0.00  0.00    -0.293 OA
BRANCH  24  26
ATOM     26  C   UNL     1      -9.065   8.980  70.891  0.00  0.00    +0.246 C 
ATOM     27  O   UNL     1     -10.257   9.196  71.546  0.00  0.00    -0.212 OA
ENDBRANCH  24  26
ENDBRANCH   3  24
TORSDOF 2
ENDMDL
MODEL 6
REMARK VINA RESULT:      -6.5      2.571      7.259
REMARK  Name = 
REMARK  2 active torsions:
REMARK  status: ('A' for Active; 'I' for Inactive)
REMARK    1  A    between atoms: C_23  and  C_24
REMARK    2  A    between atoms: C_24  and  C_26
REMARK                            x       y       z     vdW  Elec       q    Type
REMARK                         _______ _______ _______ _____ _____    ______ ____
ROOT
ATOM      1  C   UNL     1      -3.096  19.457  67.640  0.00  0.00    +0.000 C 
ATOM      2  C   UNL     1      -3.419  18.759  69.071  0.00  0.00    +0.007 C 
ATOM      3  C   UNL     1      -4.582  19.943  69.423  0.00  0.00    +0.060 C 
ATOM      4  C   UNL     1      -5.835  18.956  69.439  0.00  0.00    +0.009 C 
ATOM      5  C   UNL     1      -5.529  18.659  67.876  0.00  0.00    +0.003 C 
ATOM      6  C   UNL     1      -6.804  17.550  67.948  0.00  0.00    +0.033 C 
ATOM      7  C   UNL     1      -7.768  18.579  67.179  0.00  0.00    +0.168 C 
ATOM      8  C   UNL     1      -7.527  20.032  67.878  0.00  0.00    +0.182 C 
ATOM      9  O   UNL     1      -8.977  20.220  68.296  0.00  0.00    -0.220 OA
ATOM     10  F   UNL     1      -7.303  18.822  65.929  0.00  0.00    -0.237 F 
ATOM     11  C   UNL     1      -9.060  18.005  67.309  0.00  0.00    +0.064 C 
ATOM     12  C   UNL     1      -8.889  16.656  66.678  0.00  0.00    -0.035 C 
ATOM     13  C   UNL     1      -9.954  16.210  66.007  0.00  0.00    +0.034 C 
ATOM     14  C   UNL     1     -10.793  17.111  65.205  0.00  0.00    +0.195 C 
ATOM     15  C   UNL     1     -10.571  18.535  65.498  0.00  0.00    +0.038 C 
ATOM     16  O   UNL     1     -11.496  16.721  64.239  0.00  0.00    -0.287 OA
ATOM     17  C   UNL     1      -7.643  15.903  66.534  0.00  0.00    +0.023 C 
ATOM     18  C   UNL     1      -9.400  17.748  68.774  0.00  0.00    +0.011 C 
ATOM     19  C   UNL     1     -10.219  18.732  66.758  0.00  0.00    -0.017 C 
ATOM     20  C   UNL     1      -6.376  16.739  66.612  0.00  0.00    +0.007 C 
ATOM     21  C   UNL     1      -5.630  17.797  70.281  0.00  0.00    +0.001 C 
ATOM     22  C   UNL     1      -7.128  19.509  69.392  0.00  0.00    +0.036 C 
ATOM     23  C   UNL     1      -4.379  17.663  68.385  0.00  0.00    +0.001 C 
ENDROOT
BRANCH   3  24
ATOM     24  C   UNL     1      -4.335  19.812  71.004  0.00  0.00    +0.183 C 
ATOM     25  O   UNL     1      -3.152  19.757  71.337  0.00  0.00    -0.293 OA
BRANCH  24  26
ATOM     26  C   UNL     1      -5.078  20.874  71.763  0.00  0.00    +0.246 C 
ATOM     27  O   UNL     1      -4.279  21.938  72.121  0.00  0.00    -0.212 OA
ENDBRANCH  24  26
ENDBRANCH   3  24
TORSDOF 2
ENDMDL
MODEL 7
REMARK VINA RESULT:      -6.2      2.130      6.320
REMARK  Name = 
REMARK  2 active torsions:
REMARK  status: ('A' for Active; 'I' for Inactive)
REMARK    1  A    between atoms: C_23  and  C_24
REMARK    2  A    between atoms: C_24  and  C_26
REMARK                            x       y       z     vdW  Elec       q    Type
REMARK                         _______ _______ _______ _____ _____    ______ ____
ROOT
ATOM      1  C   UNL     1      -7.028  19.493  69.498  0.00  0.00    +0.000 C 
ATOM      2  C   UNL     1      -7.671  19.922  68.069  0.00  0.00    +0.007 C 
ATOM      3  C   UNL     1      -6.797  18.706  67.272  0.00  0.00    +0.060 C 
ATOM      4  C   UNL     1      -8.066  17.859  66.807  0.00  0.00    +0.009 C 
ATOM      5  C   UNL     1      -8.396  17.627  68.376  0.00  0.00    +0.003 C 
ATOM      6  C   UNL     1      -9.783  16.812  67.854  0.00  0.00    +0.033 C 
ATOM      7  C   UNL     1      -9.095  15.397  68.173  0.00  0.00    +0.168 C 
ATOM      8  C   UNL     1      -7.579  15.487  67.582  0.00  0.00    +0.182 C 
ATOM      9  O   UNL     1      -7.733  14.303  66.640  0.00  0.00    -0.220 OA
ATOM     10  F   UNL     1      -8.841  15.280  69.499  0.00  0.00    -0.237 F 
ATOM     11  C   UNL     1      -9.967  14.448  67.576  0.00  0.00    +0.064 C 
ATOM     12  C   UNL     1     -11.273  14.721  68.259  0.00  0.00    -0.035 C 
ATOM     13  C   UNL     1     -12.026  13.642  68.487  0.00  0.00    +0.034 C 
ATOM     14  C   UNL     1     -11.432  12.358  68.887  0.00  0.00    +0.195 C 
ATOM     15  C   UNL     1      -9.980  12.288  68.664  0.00  0.00    +0.038 C 
ATOM     16  O   UNL     1     -12.063  11.476  69.523  0.00  0.00    -0.287 OA
ATOM     17  C   UNL     1     -11.694  15.975  68.884  0.00  0.00    +0.023 C 
ATOM     18  C   UNL     1     -10.187  14.758  66.099  0.00  0.00    +0.011 C 
ATOM     19  C   UNL     1      -9.604  13.018  67.628  0.00  0.00    -0.017 C 
ATOM     20  C   UNL     1     -10.561  16.910  69.272  0.00  0.00    +0.007 C 
ATOM     21  C   UNL     1      -9.065  18.660  66.135  0.00  0.00    +0.001 C 
ATOM     22  C   UNL     1      -7.864  16.544  66.345  0.00  0.00    +0.036 C 
ATOM     23  C   UNL     1      -9.025  19.102  68.367  0.00  0.00    +0.001 C 
ENDROOT
BRANCH   3  24
ATOM     24  C   UNL     1      -6.738  19.549  65.907  0.00  0.00    +0.183 C 
ATOM     25  O   UNL     1      -6.441  20.735  66.048  0.00  0.00    -0.293 OA
BRANCH  24  26
ATOM     26  C   UNL     1      -5.866  18.874  64.887  0.00  0.00    +0.246 C 
ATOM     27  O   UNL     1      -6.063  19.354  63.611  0.00  0.00    -0.212 OA
ENDBRANCH  24  26
ENDBRANCH   3  24
TORSDOF 2
ENDMDL
MODEL 8
REMARK VINA RESULT:      -6.1      3.808      7.584
REMARK  Name = 
REMARK  2 active torsions:
REMARK  status: ('A' for Active; 'I' for Inactive)
REMARK    1  A    between atoms: C_23  and  C_24
REMARK    2  A    between atoms: C_24  and  C_26
REMARK                            x       y       z     vdW  Elec       q    Type
REMARK                         _______ _______ _______ _____ _____    ______ ____
ROOT
ATOM      1  C   UNL     1     -11.328  15.208  65.138  0.00  0.00    +0.000 C 
ATOM      2  C   UNL     1     -10.454  15.616  66.445  0.00  0.00    +0.007 C 
ATOM      3  C   UNL     1     -11.575  14.865  67.472  0.00  0.00    +0.060 C 
ATOM      4  C   UNL     1     -10.585  13.738  68.016  0.00  0.00    +0.009 C 
ATOM      5  C   UNL     1     -10.490  13.190  66.494  0.00  0.00    +0.003 C 
ATOM      6  C   UNL     1      -9.373  12.065  67.083  0.00  0.00    +0.033 C 
ATOM      7  C   UNL     1     -10.484  10.907  67.036  0.00  0.00    +0.168 C 
ATOM      8  C   UNL     1     -11.839  11.554  67.670  0.00  0.00    +0.182 C 
ATOM      9  O   UNL     1     -11.963  10.531  68.789  0.00  0.00    -0.220 OA
ATOM     10  F   UNL     1     -10.886  10.686  65.760  0.00  0.00    -0.237 F 
ATOM     11  C   UNL     1      -9.889   9.829  67.743  0.00  0.00    +0.064 C 
ATOM     12  C   UNL     1      -8.632   9.576  66.967  0.00  0.00    -0.035 C 
ATOM     13  C   UNL     1      -8.266   8.294  66.889  0.00  0.00    +0.034 C 
ATOM     14  C   UNL     1      -9.257   7.218  66.736  0.00  0.00    +0.195 C 
ATOM     15  C   UNL     1     -10.634   7.641  67.032  0.00  0.00    +0.038 C 
ATOM     16  O   UNL     1      -8.986   6.100  66.228  0.00  0.00    -0.287 OA
ATOM     17  C   UNL     1      -7.912  10.530  66.123  0.00  0.00    +0.023 C 
ATOM     18  C   UNL     1      -9.447  10.265  69.136  0.00  0.00    +0.011 C 
ATOM     19  C   UNL     1     -10.672   8.595  67.947  0.00  0.00    -0.017 C 
ATOM     20  C   UNL     1      -8.739  11.707  65.635  0.00  0.00    +0.007 C 
ATOM     21  C   UNL     1      -9.332  14.274  68.498  0.00  0.00    +0.001 C 
ATOM     22  C   UNL     1     -11.132  12.636  68.698  0.00  0.00    +0.036 C 
ATOM     23  C   UNL     1      -9.446  14.378  66.228  0.00  0.00    +0.001 C 
ENDROOT
BRANCH   3  24
ATOM     24  C   UNL     1     -11.248  15.872  68.678  0.00  0.00    +0.183 C 
ATOM     25  O   UNL     1     -11.297  17.065  68.379  0.00  0.00    -0.293 OA
BRANCH  24  26
ATOM     26  C   UNL     1     -12.085  15.566  69.888  0.00  0.00    +0.246 C 
ATOM     27  O   UNL     1     -11.700  16.278  71.002  0.00  0.00    -0.212 OA
ENDBRANCH  24  26
ENDBRANCH   3  24
TORSDOF 2
ENDMDL
MODEL 9
REMARK VINA RESULT:      -6.1      1.772      6.775
REMARK  Name = 
REMARK  2 active torsions:
REMARK  status: ('A' for Active; 'I' for Inactive)
REMARK    1  A    between atoms: C_23  and  C_24
REMARK    2  A    between atoms: C_24  and  C_26
REMARK                            x       y       z     vdW  Elec       q    Type
REMARK                         _______ _______ _______ _____ _____    ______ ____
ROOT
ATOM      1  C   UNL     1      -4.372  17.377  66.162  0.00  0.00    +0.000 C 
ATOM      2  C   UNL     1      -4.289  17.484  67.781  0.00  0.00    +0.007 C 
ATOM      3  C   UNL     1      -5.656  18.487  67.819  0.00  0.00    +0.060 C 
ATOM      4  C   UNL     1      -6.591  17.475  68.623  0.00  0.00    +0.009 C 
ATOM      5  C   UNL     1      -6.450  16.460  67.368  0.00  0.00    +0.003 C 
ATOM      6  C   UNL     1      -7.366  15.372  68.283  0.00  0.00    +0.033 C 
ATOM      7  C   UNL     1      -8.667  15.693  67.398  0.00  0.00    +0.168 C 
ATOM      8  C   UNL     1      -8.715  17.314  67.236  0.00  0.00    +0.182 C 
ATOM      9  O   UNL     1     -10.087  17.470  67.874  0.00  0.00    -0.220 OA
ATOM     10  F   UNL     1      -8.469  15.319  66.110  0.00  0.00    -0.237 F 
ATOM     11  C   UNL     1      -9.730  15.082  68.113  0.00  0.00    +0.064 C 
ATOM     12  C   UNL     1      -9.306  13.645  68.176  0.00  0.00    -0.035 C 
ATOM     13  C   UNL     1     -10.303  12.760  68.097  0.00  0.00    +0.034 C 
ATOM     14  C   UNL     1     -11.458  12.976  67.212  0.00  0.00    +0.195 C 
ATOM     15  C   UNL     1     -11.576  14.359  66.728  0.00  0.00    +0.038 C 
ATOM     16  O   UNL     1     -12.167  12.039  66.765  0.00  0.00    -0.287 OA
ATOM     17  C   UNL     1      -7.941  13.126  68.088  0.00  0.00    +0.023 C 
ATOM     18  C   UNL     1      -9.773  15.575  69.556  0.00  0.00    +0.011 C 
ATOM     19  C   UNL     1     -11.107  15.232  67.605  0.00  0.00    -0.017 C 
ATOM     20  C   UNL     1      -6.940  14.061  67.431  0.00  0.00    +0.007 C 
ATOM     21  C   UNL     1      -5.969  16.969  69.827  0.00  0.00    +0.001 C 
ATOM     22  C   UNL     1      -7.976  17.721  68.656  0.00  0.00    +0.036 C 
ATOM     23  C   UNL     1      -5.018  16.060  67.970  0.00  0.00    +0.001 C 
ENDROOT
BRANCH   3  24
ATOM     24  C   UNL     1      -5.156  19.235  69.148  0.00  0.00    +0.183 C 
ATOM     25  O   UNL     1      -3.978  19.593  69.124  0.00  0.00    -0.293 OA
BRANCH  24  26
ATOM     26  C   UNL     1      -6.074  20.364  69.518  0.00  0.00    +0.246 C 
ATOM     27  O   UNL     1      -6.315  20.441  70.872  0.00  0.00    -0.212 OA
ENDBRANCH  24  26
ENDBRANCH   3  24
TORSDOF 2
ENDMDL
