MODEL 1
REMARK VINA RESULT:      -6.6      0.000      0.000
REMARK  Name = 
REMARK  4 active torsions:
REMARK  status: ('A' for Active; 'I' for Inactive)
REMARK    1  A    between atoms: C_4  and  C_5
REMARK    2  A    between atoms: N_7  and  N_8
REMARK    3  A    between atoms: N_8  and  C_9
REMARK    4  A    between atoms: C_9  and  C_10
REMARK                            x       y       z     vdW  Elec       q    Type
REMARK                         _______ _______ _______ _____ _____    ______ ____
ROOT
ATOM      1  C   UNL     1     -12.069  15.391  69.769  0.00  0.00    +0.302 C 
ATOM      2  N   UNL     1     -11.757  14.082  69.296  0.00  0.00    -0.106 NA
ATOM      3  O   UNL     1     -11.885  16.393  69.019  0.00  0.00    -0.265 OA
ENDROOT
BRANCH   1   8
ATOM      4  C   UNL     1     -12.491  16.173  74.632  0.00  0.00    +0.075 C 
ATOM      5  C   UNL     1     -12.862  15.758  73.242  0.00  0.00    +0.155 A 
ATOM      6  O   UNL     1     -14.027  15.856  72.660  0.00  0.00    -0.358 OA
ATOM      7  N   UNL     1     -13.942  15.665  71.380  0.00  0.00    -0.073 NA
ATOM      8  C   UNL     1     -12.623  15.660  71.078  0.00  0.00    +0.179 A 
ATOM      9  C   UNL     1     -12.017  15.250  72.260  0.00  0.00    +0.063 A 
ENDBRANCH   1   8
BRANCH   2  10
ATOM     10  N   UNL     1     -11.996  13.801  67.938  0.00  0.00    -0.103 NA
BRANCH  10  11
ATOM     11  C   UNL     1     -11.615  12.440  67.656  0.00  0.00    +0.140 C 
BRANCH  11  12
ATOM     12  C   UNL     1     -11.572  12.153  66.204  0.00  0.00    -0.003 A 
ATOM     13  C   UNL     1     -10.660  11.282  65.643  0.00  0.00    -0.003 A 
ATOM     14  C   UNL     1     -10.565  11.123  64.275  0.00  0.00    -0.000 A 
ATOM     15  C   UNL     1     -11.063  12.146  63.499  0.00  0.00    -0.000 A 
ATOM     16  C   UNL     1     -12.088  12.923  64.006  0.00  0.00    -0.000 A 
ATOM     17  C   UNL     1     -12.355  12.917  65.346  0.00  0.00    -0.003 A 
ENDBRANCH  11  12
ENDBRANCH  10  11
ENDBRANCH   2  10
TORSDOF 4
ENDMDL
MODEL 2
REMARK VINA RESULT:      -6.4      4.290      7.480
REMARK  Name = 
REMARK  4 active torsions:
REMARK  status: ('A' for Active; 'I' for Inactive)
REMARK    1  A    between atoms: C_4  and  C_5
REMARK    2  A    between atoms: N_7  and  N_8
REMARK    3  A    between atoms: N_8  and  C_9
REMARK    4  A    between atoms: C_9  and  C_10
REMARK                            x       y       z     vdW  Elec       q    Type
REMARK                         _______ _______ _______ _____ _____    ______ ____
ROOT
ATOM      1  C   UNL     1     -10.352  18.013  67.322  0.00  0.00    +0.302 C 
ATOM      2  N   UNL     1     -10.777  16.711  67.723  0.00  0.00    -0.106 NA
ATOM      3  O   UNL     1     -11.110  19.009  67.508  0.00  0.00    -0.265 OA
ENDROOT
BRANCH   1   8
ATOM      4  C   UNL     1      -6.250  20.338  65.837  0.00  0.00    +0.075 C 
ATOM      5  C   UNL     1      -7.375  19.350  65.847  0.00  0.00    +0.155 A 
ATOM      6  O   UNL     1      -7.341  18.093  65.495  0.00  0.00    -0.358 OA
ATOM      7  N   UNL     1      -8.403  17.457  65.882  0.00  0.00    -0.073 NA
ATOM      8  C   UNL     1      -9.064  18.287  66.722  0.00  0.00    +0.179 A 
ATOM      9  C   UNL     1      -8.671  19.555  66.307  0.00  0.00    +0.063 A 
ENDBRANCH   1   8
BRANCH   2  10
ATOM     10  N   UNL     1     -11.542  16.605  68.898  0.00  0.00    -0.103 NA
BRANCH  10  11
ATOM     11  C   UNL     1     -11.681  15.216  69.256  0.00  0.00    +0.140 C 
BRANCH  11  12
ATOM     12  C   UNL     1     -12.049  15.030  70.677  0.00  0.00    -0.003 A 
ATOM     13  C   UNL     1     -12.881  14.015  71.105  0.00  0.00    -0.003 A 
ATOM     14  C   UNL     1     -13.302  13.935  72.418  0.00  0.00    -0.000 A 
ATOM     15  C   UNL     1     -13.248  15.097  73.155  0.00  0.00    -0.000 A 
ATOM     16  C   UNL     1     -12.305  16.052  72.818  0.00  0.00    -0.000 A 
ATOM     17  C   UNL     1     -11.697  16.013  71.595  0.00  0.00    -0.003 A 
ENDBRANCH  11  12
ENDBRANCH  10  11
ENDBRANCH   2  10
TORSDOF 4
ENDMDL
MODEL 3
REMARK VINA RESULT:      -6.4      3.706      4.819
REMARK  Name = 
REMARK  4 active torsions:
REMARK  status: ('A' for Active; 'I' for Inactive)
REMARK    1  A    between atoms: C_4  and  C_5
REMARK    2  A    between atoms: N_7  and  N_8
REMARK    3  A    between atoms: N_8  and  C_9
REMARK    4  A    between atoms: C_9  and  C_10
REMARK                            x       y       z     vdW  Elec       q    Type
REMARK                         _______ _______ _______ _____ _____    ______ ____
ROOT
ATOM      1  C   UNL     1     -12.341  15.024  69.924  0.00  0.00    +0.302 C 
ATOM      2  N   UNL     1     -11.919  15.912  68.889  0.00  0.00    -0.106 NA
ATOM      3  O   UNL     1     -12.303  13.774  69.736  0.00  0.00    -0.265 OA
ENDROOT
BRANCH   1   8
ATOM      4  C   UNL     1     -12.459  16.214  74.720  0.00  0.00    +0.075 C 
ATOM      5  C   UNL     1     -12.940  15.757  73.378  0.00  0.00    +0.155 A 
ATOM      6  O   UNL     1     -14.100  15.982  72.822  0.00  0.00    -0.358 OA
ATOM      7  N   UNL     1     -14.093  15.687  71.558  0.00  0.00    -0.073 NA
ATOM      8  C   UNL     1     -12.800  15.466  71.222  0.00  0.00    +0.179 A 
ATOM      9  C   UNL     1     -12.215  15.061  72.416  0.00  0.00    +0.063 A 
ENDBRANCH   1   8
BRANCH   2  10
ATOM     10  N   UNL     1     -10.838  15.511  68.083  0.00  0.00    -0.103 NA
BRANCH  10  11
ATOM     11  C   UNL     1      -9.738  16.423  68.270  0.00  0.00    +0.140 C 
BRANCH  11  12
ATOM     12  C   UNL     1     -10.038  17.784  67.771  0.00  0.00    -0.003 A 
ATOM     13  C   UNL     1     -10.309  18.047  66.443  0.00  0.00    -0.003 A 
ATOM     14  C   UNL     1     -10.469  19.340  65.984  0.00  0.00    -0.000 A 
ATOM     15  C   UNL     1      -9.923  20.341  66.757  0.00  0.00    -0.000 A 
ATOM     16  C   UNL     1      -9.795  20.131  68.118  0.00  0.00    -0.000 A 
ATOM     17  C   UNL     1      -9.867  18.865  68.627  0.00  0.00    -0.003 A 
ENDBRANCH  11  12
ENDBRANCH  10  11
ENDBRANCH   2  10
TORSDOF 4
ENDMDL
MODEL 4
REMARK VINA RESULT:      -6.3      1.585      1.775
REMARK  Name = 
REMARK  4 active torsions:
REMARK  status: ('A' for Active; 'I' for Inactive)
REMARK    1  A    between atoms: C_4  and  C_5
REMARK    2  A    between atoms: N_7  and  N_8
REMARK    3  A    between atoms: N_8  and  C_9
REMARK    4  A    between atoms: C_9  and  C_10
REMARK                            x       y       z     vdW  Elec       q    Type
REMARK                         _______ _______ _______ _____ _____    ______ ____
ROOT
ATOM      1  C   UNL     1     -12.242  15.231  69.788  0.00  0.00    +0.302 C 
ATOM      2  N   UNL     1     -11.649  16.168  68.890  0.00  0.00    -0.106 NA
ATOM      3  O   UNL     1     -12.339  14.014  69.455  0.00  0.00    -0.265 OA
ENDROOT
BRANCH   1   8
ATOM      4  C   UNL     1     -12.444  16.213  74.628  0.00  0.00    +0.075 C 
ATOM      5  C   UNL     1     -12.889  15.770  73.269  0.00  0.00    +0.155 A 
ATOM      6  O   UNL     1     -14.066  15.917  72.722  0.00  0.00    -0.358 OA
ATOM      7  N   UNL     1     -14.038  15.675  71.448  0.00  0.00    -0.073 NA
ATOM      8  C   UNL     1     -12.733  15.580  71.103  0.00  0.00    +0.179 A 
ATOM      9  C   UNL     1     -12.110  15.178  72.280  0.00  0.00    +0.063 A 
ENDBRANCH   1   8
BRANCH   2  10
ATOM     10  N   UNL     1     -10.570  15.728  68.101  0.00  0.00    -0.103 NA
BRANCH  10  11
ATOM     11  C   UNL     1     -10.882  15.929  66.709  0.00  0.00    +0.140 C 
BRANCH  11  12
ATOM     12  C   UNL     1     -11.089  14.654  65.985  0.00  0.00    -0.003 A 
ATOM     13  C   UNL     1     -10.162  14.141  65.101  0.00  0.00    -0.003 A 
ATOM     14  C   UNL     1     -10.431  13.013  64.352  0.00  0.00    -0.000 A 
ATOM     15  C   UNL     1     -11.758  12.691  64.175  0.00  0.00    -0.000 A 
ATOM     16  C   UNL     1     -12.667  13.075  65.144  0.00  0.00    -0.000 A 
ATOM     17  C   UNL     1     -12.333  14.038  66.055  0.00  0.00    -0.003 A 
ENDBRANCH  11  12
ENDBRANCH  10  11
ENDBRANCH   2  10
TORSDOF 4
ENDMDL
MODEL 5
REMARK VINA RESULT:      -6.3      2.124      7.429
REMARK  Name = 
REMARK  4 active torsions:
REMARK  status: ('A' for Active; 'I' for Inactive)
REMARK    1  A    between atoms: C_4  and  C_5
REMARK    2  A    between atoms: N_7  and  N_8
REMARK    3  A    between atoms: N_8  and  C_9
REMARK    4  A    between atoms: C_9  and  C_10
REMARK                            x       y       z     vdW  Elec       q    Type
REMARK                         _______ _______ _______ _____ _____    ______ ____
ROOT
ATOM      1  C   UNL     1     -11.796  14.224  67.395  0.00  0.00    +0.302 C 
ATOM      2  N   UNL     1     -11.282  15.530  67.651  0.00  0.00    -0.106 NA
ATOM      3  O   UNL     1     -12.222  13.515  68.352  0.00  0.00    -0.265 OA
ENDROOT
BRANCH   1   8
ATOM      4  C   UNL     1     -10.712  11.783  63.236  0.00  0.00    +0.075 C 
ATOM      5  C   UNL     1     -11.342  12.792  64.144  0.00  0.00    +0.155 A 
ATOM      6  O   UNL     1     -12.555  13.273  64.090  0.00  0.00    -0.358 OA
ATOM      7  N   UNL     1     -12.869  13.911  65.175  0.00  0.00    -0.073 NA
ATOM      8  C   UNL     1     -11.892  13.645  66.073  0.00  0.00    +0.179 A 
ATOM      9  C   UNL     1     -10.784  13.368  65.280  0.00  0.00    +0.063 A 
ENDBRANCH   1   8
BRANCH   2  10
ATOM     10  N   UNL     1     -11.896  16.289  68.665  0.00  0.00    -0.103 NA
BRANCH  10  11
ATOM     11  C   UNL     1     -11.168  16.122  69.896  0.00  0.00    +0.140 C 
BRANCH  11  12
ATOM     12  C   UNL     1     -12.061  15.947  71.064  0.00  0.00    -0.003 A 
ATOM     13  C   UNL     1     -11.682  16.278  72.349  0.00  0.00    -0.003 A 
ATOM     14  C   UNL     1     -12.489  15.995  73.432  0.00  0.00    -0.000 A 
ATOM     15  C   UNL     1     -13.432  15.006  73.258  0.00  0.00    -0.000 A 
ATOM     16  C   UNL     1     -13.926  14.779  71.986  0.00  0.00    -0.000 A 
ATOM     17  C   UNL     1     -13.257  15.258  70.895  0.00  0.00    -0.003 A 
ENDBRANCH  11  12
ENDBRANCH  10  11
ENDBRANCH   2  10
TORSDOF 4
ENDMDL
MODEL 6
REMARK VINA RESULT:      -6.2      2.470      7.587
REMARK  Name = 
REMARK  4 active torsions:
REMARK  status: ('A' for Active; 'I' for Inactive)
REMARK    1  A    between atoms: C_4  and  C_5
REMARK    2  A    between atoms: N_7  and  N_8
REMARK    3  A    between atoms: N_8  and  C_9
REMARK    4  A    between atoms: C_9  and  C_10
REMARK                            x       y       z     vdW  Elec       q    Type
REMARK                         _______ _______ _______ _____ _____    ______ ____
ROOT
ATOM      1  C   UNL     1     -11.988  12.898  66.831  0.00  0.00    +0.302 C 
ATOM      2  N   UNL     1     -11.879  12.086  67.999  0.00  0.00    -0.106 NA
ATOM      3  O   UNL     1     -12.254  14.129  66.942  0.00  0.00    -0.265 OA
ENDROOT
BRANCH   1   8
ATOM      4  C   UNL     1      -9.889  10.955  62.798  0.00  0.00    +0.075 C 
ATOM      5  C   UNL     1     -10.813  11.783  63.636  0.00  0.00    +0.155 A 
ATOM      6  O   UNL     1     -12.070  12.060  63.411  0.00  0.00    -0.358 OA
ATOM      7  N   UNL     1     -12.648  12.562  64.458  0.00  0.00    -0.073 NA
ATOM      8  C   UNL     1     -11.784  12.401  65.487  0.00  0.00    +0.179 A 
ATOM      9  C   UNL     1     -10.539  12.365  64.869  0.00  0.00    +0.063 A 
ENDBRANCH   1   8
BRANCH   2  10
ATOM     10  N   UNL     1     -11.316  12.667  69.151  0.00  0.00    -0.103 NA
BRANCH  10  11
ATOM     11  C   UNL     1     -12.224  12.511  70.258  0.00  0.00    +0.140 C 
BRANCH  11  12
ATOM     12  C   UNL     1     -12.425  13.772  71.008  0.00  0.00    -0.003 A 
ATOM     13  C   UNL     1     -11.707  14.920  70.740  0.00  0.00    -0.003 A 
ATOM     14  C   UNL     1     -11.830  16.046  71.531  0.00  0.00    -0.000 A 
ATOM     15  C   UNL     1     -12.316  15.855  72.805  0.00  0.00    -0.000 A 
ATOM     16  C   UNL     1     -13.163  14.787  73.037  0.00  0.00    -0.000 A 
ATOM     17  C   UNL     1     -13.232  13.758  72.139  0.00  0.00    -0.003 A 
ENDBRANCH  11  12
ENDBRANCH  10  11
ENDBRANCH   2  10
TORSDOF 4
ENDMDL
MODEL 7
REMARK VINA RESULT:      -6.2      5.030      8.179
REMARK  Name = 
REMARK  4 active torsions:
REMARK  status: ('A' for Active; 'I' for Inactive)
REMARK    1  A    between atoms: C_4  and  C_5
REMARK    2  A    between atoms: N_7  and  N_8
REMARK    3  A    between atoms: N_8  and  C_9
REMARK    4  A    between atoms: C_9  and  C_10
REMARK                            x       y       z     vdW  Elec       q    Type
REMARK                         _______ _______ _______ _____ _____    ______ ____
ROOT
ATOM      1  C   UNL     1     -11.197  15.851  64.832  0.00  0.00    +0.302 C 
ATOM      2  N   UNL     1     -10.500  16.294  65.995  0.00  0.00    -0.106 NA
ATOM      3  O   UNL     1     -11.573  16.692  63.964  0.00  0.00    -0.265 OA
ENDROOT
BRANCH   1   8
ATOM      4  C   UNL     1     -10.831  10.930  64.532  0.00  0.00    +0.075 C 
ATOM      5  C   UNL     1     -11.239  12.328  64.186  0.00  0.00    +0.155 A 
ATOM      6  O   UNL     1     -12.380  12.733  63.698  0.00  0.00    -0.358 OA
ATOM      7  N   UNL     1     -12.507  14.022  63.774  0.00  0.00    -0.073 NA
ATOM      8  C   UNL     1     -11.490  14.462  64.552  0.00  0.00    +0.179 A 
ATOM      9  C   UNL     1     -10.507  13.494  64.386  0.00  0.00    +0.063 A 
ENDBRANCH   1   8
BRANCH   2  10
ATOM     10  N   UNL     1      -9.608  17.372  65.855  0.00  0.00    -0.103 NA
BRANCH  10  11
ATOM     11  C   UNL     1      -9.971  18.418  66.777  0.00  0.00    +0.140 C 
BRANCH  11  12
ATOM     12  C   UNL     1      -8.801  19.201  67.235  0.00  0.00    -0.003 A 
ATOM     13  C   UNL     1      -7.927  19.815  66.360  0.00  0.00    -0.003 A 
ATOM     14  C   UNL     1      -6.780  20.439  66.809  0.00  0.00    -0.000 A 
ATOM     15  C   UNL     1      -6.314  20.056  68.047  0.00  0.00    -0.000 A 
ATOM     16  C   UNL     1      -7.220  19.585  68.980  0.00  0.00    -0.000 A 
ATOM     17  C   UNL     1      -8.462  19.174  68.582  0.00  0.00    -0.003 A 
ENDBRANCH  11  12
ENDBRANCH  10  11
ENDBRANCH   2  10
TORSDOF 4
ENDMDL
MODEL 8
REMARK VINA RESULT:      -6.1      3.591      6.643
REMARK  Name = 
REMARK  4 active torsions:
REMARK  status: ('A' for Active; 'I' for Inactive)
REMARK    1  A    between atoms: C_4  and  C_5
REMARK    2  A    between atoms: N_7  and  N_8
REMARK    3  A    between atoms: N_8  and  C_9
REMARK    4  A    between atoms: C_9  and  C_10
REMARK                            x       y       z     vdW  Elec       q    Type
REMARK                         _______ _______ _______ _____ _____    ______ ____
ROOT
ATOM      1  C   UNL     1     -10.322  15.485  67.064  0.00  0.00    +0.302 C 
ATOM      2  N   UNL     1      -9.970  14.981  68.352  0.00  0.00    -0.106 NA
ATOM      3  O   UNL     1     -10.766  14.697  66.179  0.00  0.00    -0.265 OA
ENDROOT
BRANCH   1   8
ATOM      4  C   UNL     1      -9.811  20.395  67.314  0.00  0.00    +0.075 C 
ATOM      5  C   UNL     1     -10.258  19.057  66.814  0.00  0.00    +0.155 A 
ATOM      6  O   UNL     1     -10.415  18.675  65.575  0.00  0.00    -0.358 OA
ATOM      7  N   UNL     1     -10.542  17.388  65.480  0.00  0.00    -0.073 NA
ATOM      8  C   UNL     1     -10.231  16.881  66.696  0.00  0.00    +0.179 A 
ATOM      9  C   UNL     1     -10.524  17.920  67.570  0.00  0.00    +0.063 A 
ENDBRANCH   1   8
BRANCH   2  10
ATOM     10  N   UNL     1     -10.752  13.942  68.886  0.00  0.00    -0.103 NA
BRANCH  10  11
ATOM     11  C   UNL     1     -12.055  14.451  69.230  0.00  0.00    +0.140 C 
BRANCH  11  12
ATOM     12  C   UNL     1     -12.217  14.656  70.688  0.00  0.00    -0.003 A 
ATOM     13  C   UNL     1     -13.036  13.862  71.466  0.00  0.00    -0.003 A 
ATOM     14  C   UNL     1     -13.259  14.148  72.798  0.00  0.00    -0.000 A 
ATOM     15  C   UNL     1     -13.024  15.444  73.199  0.00  0.00    -0.000 A 
ATOM     16  C   UNL     1     -12.086  16.191  72.510  0.00  0.00    -0.000 A 
ATOM     17  C   UNL     1     -11.671  15.794  71.269  0.00  0.00    -0.003 A 
ENDBRANCH  11  12
ENDBRANCH  10  11
ENDBRANCH   2  10
TORSDOF 4
ENDMDL
MODEL 9
REMARK VINA RESULT:      -6.0      4.431      5.912
REMARK  Name = 
REMARK  4 active torsions:
REMARK  status: ('A' for Active; 'I' for Inactive)
REMARK    1  A    between atoms: C_4  and  C_5
REMARK    2  A    between atoms: N_7  and  N_8
REMARK    3  A    between atoms: N_8  and  C_9
REMARK    4  A    between atoms: C_9  and  C_10
REMARK                            x       y       z     vdW  Elec       q    Type
REMARK                         _______ _______ _______ _____ _____    ______ ____
ROOT
ATOM      1  C   UNL     1     -11.601  13.956  64.484  0.00  0.00    +0.302 C 
ATOM      2  N   UNL     1     -10.733  12.873  64.153  0.00  0.00    -0.106 NA
ATOM      3  O   UNL     1     -12.846  13.756  64.589  0.00  0.00    -0.265 OA
ENDROOT
BRANCH   1   8
ATOM      4  C   UNL     1      -9.345  17.849  66.530  0.00  0.00    +0.075 C 
ATOM      5  C   UNL     1     -10.365  17.063  65.766  0.00  0.00    +0.155 A 
ATOM      6  O   UNL     1     -11.017  17.423  64.694  0.00  0.00    -0.358 OA
ATOM      7  N   UNL     1     -11.610  16.416  64.131  0.00  0.00    -0.073 NA
ATOM      8  C   UNL     1     -11.142  15.303  64.742  0.00  0.00    +0.179 A 
ATOM      9  C   UNL     1     -10.768  15.753  66.003  0.00  0.00    +0.063 A 
ENDBRANCH   1   8
BRANCH   2  10
ATOM     10  N   UNL     1     -11.042  11.603  64.672  0.00  0.00    -0.103 NA
BRANCH  10  11
ATOM     11  C   UNL     1     -10.143  11.297  65.756  0.00  0.00    +0.140 C 
BRANCH  11  12
ATOM     12  C   UNL     1     -10.835  11.222  67.063  0.00  0.00    -0.003 A 
ATOM     13  C   UNL     1     -11.318  12.338  67.715  0.00  0.00    -0.003 A 
ATOM     14  C   UNL     1     -11.853  12.254  68.985  0.00  0.00    -0.000 A 
ATOM     15  C   UNL     1     -11.492  11.158  69.735  0.00  0.00    -0.000 A 
ATOM     16  C   UNL     1     -11.155   9.987  69.079  0.00  0.00    -0.000 A 
ATOM     17  C   UNL     1     -10.844  10.013  67.748  0.00  0.00    -0.003 A 
ENDBRANCH  11  12
ENDBRANCH  10  11
ENDBRANCH   2  10
TORSDOF 4
ENDMDL
