MODEL 1
REMARK VINA RESULT:      -7.6      0.000      0.000
REMARK  Name = 
REMARK  7 active torsions:
REMARK  status: ('A' for Active; 'I' for Inactive)
REMARK    1  A    between atoms: N_2  and  C_3
REMARK    2  A    between atoms: C_3  and  C_5
REMARK    3  A    between atoms: C_10  and  O_11
REMARK    4  A    between atoms: O_11  and  C_12
REMARK    5  A    between atoms: C_18  and  O_19
REMARK    6  A    between atoms: O_19  and  C_20
REMARK    7  A    between atoms: C_26  and  N_27
REMARK                            x       y       z     vdW  Elec       q    Type
REMARK                         _______ _______ _______ _____ _____    ______ ____
ROOT
ATOM      1  C   UNL     1      -8.387  19.249  67.320  0.00  0.00    +0.168 C 
ATOM      2  C   UNL     1      -8.231  17.603  67.711  0.00  0.00    +0.209 C 
ATOM      3  O   UNL     1      -9.334  17.334  68.650  0.00  0.00    -0.218 OA
ATOM      4  C   UNL     1      -9.000  17.033  66.261  0.00  0.00    +0.168 C 
ATOM      5  C   UNL     1      -9.874  18.466  65.956  0.00  0.00    +0.123 C 
ATOM      6  N   UNL     1     -10.897  17.759  65.023  0.00  0.00    -0.130 NA
ATOM      7  C   UNL     1     -10.718  18.586  67.339  0.00  0.00    +0.043 C 
ATOM      8  C   UNL     1      -9.839  19.749  68.056  0.00  0.00    +0.123 C 
ATOM      9  N   UNL     1      -9.634  19.160  69.487  0.00  0.00    -0.130 NA
ENDROOT
BRANCH   1  10
ATOM     10  O   UNL     1      -7.489  19.731  68.438  0.00  0.00    -0.328 OA
BRANCH  10  13
ATOM     11  C   UNL     1      -5.095  20.647  66.154  0.00  0.00    +0.134 C 
ATOM     12  O   UNL     1      -6.266  19.773  66.514  0.00  0.00    -0.331 OA
ATOM     13  C   UNL     1      -6.894  20.767  67.488  0.00  0.00    +0.253 C 
ATOM     14  C   UNL     1      -5.414  21.105  68.342  0.00  0.00    +0.148 C 
ATOM     15  N   UNL     1      -5.889  20.729  69.782  0.00  0.00    -0.128 NA
ATOM     16  C   UNL     1      -4.694  19.662  68.218  0.00  0.00    +0.027 C 
ATOM     17  C   UNL     1      -4.028  19.602  66.840  0.00  0.00    +0.033 C 
BRANCH  11  18
ATOM     18  C   UNL     1      -4.845  20.044  64.573  0.00  0.00    +0.100 C 
ATOM     19  C   UNL     1      -6.137  20.747  63.873  0.00  0.00    +0.021 C 
BRANCH  18  21
ATOM     20  C   UNL     1      -3.576  21.229  63.261  0.00  0.00    +0.107 C 
ATOM     21  N   UNL     1      -3.850  21.201  64.241  0.00  0.00    -0.215 NA
ENDBRANCH  18  21
ENDBRANCH  11  18
ENDBRANCH  10  13
ENDBRANCH   1  10
BRANCH   4  22
ATOM     22  O   UNL     1      -9.950  16.087  66.856  0.00  0.00    -0.327 OA
BRANCH  22  23
ATOM     23  C   UNL     1      -9.816  14.642  66.582  0.00  0.00    +0.268 C 
ATOM     24  C   UNL     1     -11.229  14.111  67.434  0.00  0.00    +0.226 C 
ATOM     25  O   UNL     1     -12.249  14.298  66.377  0.00  0.00    -0.216 OA
ATOM     26  C   UNL     1     -10.728  12.510  67.060  0.00  0.00    +0.138 C 
ATOM     27  C   UNL     1     -11.162  12.437  65.504  0.00  0.00    +0.171 C 
ATOM     28  O   UNL     1     -12.486  12.258  65.339  0.00  0.00    -0.222 OA
ATOM     29  C   UNL     1     -10.516  11.070  65.208  0.00  0.00    +0.037 C 
ATOM     30  C   UNL     1     -10.500  13.462  64.712  0.00  0.00    +0.176 C 
ATOM     31  O   UNL     1     -10.496  14.749  65.216  0.00  0.00    -0.326 OA
BRANCH  26  32
ATOM     32  N   UNL     1     -12.038  11.906  67.665  0.00  0.00    -0.213 NA
ATOM     33  C   UNL     1     -11.328  11.006  68.587  0.00  0.00    +0.108 C 
ENDBRANCH  26  32
ENDBRANCH  22  23
ENDBRANCH   4  22
TORSDOF 7
ENDMDL
MODEL 2
REMARK VINA RESULT:      -7.6      2.953      9.676
REMARK  Name = 
REMARK  7 active torsions:
REMARK  status: ('A' for Active; 'I' for Inactive)
REMARK    1  A    between atoms: N_2  and  C_3
REMARK    2  A    between atoms: C_3  and  C_5
REMARK    3  A    between atoms: C_10  and  O_11
REMARK    4  A    between atoms: O_11  and  C_12
REMARK    5  A    between atoms: C_18  and  O_19
REMARK    6  A    between atoms: O_19  and  C_20
REMARK    7  A    between atoms: C_26  and  N_27
REMARK                            x       y       z     vdW  Elec       q    Type
REMARK                         _______ _______ _______ _____ _____    ______ ____
ROOT
ATOM      1  C   UNL     1     -10.793  11.560  67.135  0.00  0.00    +0.168 C 
ATOM      2  C   UNL     1      -9.962  12.944  67.665  0.00  0.00    +0.209 C 
ATOM      3  O   UNL     1      -9.051  13.282  66.558  0.00  0.00    -0.218 OA
ATOM      4  C   UNL     1     -11.245  14.047  67.272  0.00  0.00    +0.168 C 
ATOM      5  C   UNL     1     -11.978  13.047  66.101  0.00  0.00    +0.123 C 
ATOM      6  N   UNL     1     -12.743  14.224  65.433  0.00  0.00    -0.130 NA
ATOM      7  C   UNL     1     -10.732  12.842  65.079  0.00  0.00    +0.043 C 
ATOM      8  C   UNL     1     -10.306  11.337  65.519  0.00  0.00    +0.123 C 
ATOM      9  N   UNL     1      -8.760  11.475  65.679  0.00  0.00    -0.130 NA
ENDROOT
BRANCH   1  10
ATOM     10  O   UNL     1      -9.797  10.582  67.718  0.00  0.00    -0.328 OA
BRANCH  10  13
ATOM     11  C   UNL     1     -11.287   8.917  70.325  0.00  0.00    +0.134 C 
ATOM     12  O   UNL     1     -10.818  10.215  69.723  0.00  0.00    -0.331 OA
ATOM     13  C   UNL     1     -10.956   9.759  68.272  0.00  0.00    +0.253 C 
ATOM     14  C   UNL     1     -10.132   8.243  68.505  0.00  0.00    +0.148 C 
ATOM     15  N   UNL     1      -9.015   8.422  67.428  0.00  0.00    -0.128 NA
ATOM     16  C   UNL     1      -9.078   8.681  69.650  0.00  0.00    +0.027 C 
ATOM     17  C   UNL     1      -9.814   8.626  70.993  0.00  0.00    +0.033 C 
BRANCH  11  18
ATOM     18  C   UNL     1     -11.941   9.564  71.767  0.00  0.00    +0.100 C 
ATOM     19  C   UNL     1     -12.935  10.654  71.077  0.00  0.00    +0.021 C 
BRANCH  18  21
ATOM     20  C   UNL     1     -13.913   8.744  72.179  0.00  0.00    +0.107 C 
ATOM     21  N   UNL     1     -13.005   8.425  71.847  0.00  0.00    -0.215 NA
ENDBRANCH  18  21
ENDBRANCH  11  18
ENDBRANCH  10  13
ENDBRANCH   1  10
BRANCH   4  22
ATOM     22  O   UNL     1     -10.473  15.053  66.534  0.00  0.00    -0.327 OA
BRANCH  22  23
ATOM     23  C   UNL     1     -10.404  16.439  67.037  0.00  0.00    +0.268 C 
ATOM     24  C   UNL     1      -8.677  16.578  67.101  0.00  0.00    +0.226 C 
ATOM     25  O   UNL     1      -8.402  16.985  65.704  0.00  0.00    -0.216 OA
ATOM     26  C   UNL     1      -8.931  18.128  67.801  0.00  0.00    +0.138 C 
ATOM     27  C   UNL     1      -9.339  18.968  66.481  0.00  0.00    +0.171 C 
ATOM     28  O   UNL     1      -8.278  19.283  65.713  0.00  0.00    -0.222 OA
ATOM     29  C   UNL     1      -9.725  20.266  67.213  0.00  0.00    +0.037 C 
ATOM     30  C   UNL     1     -10.518  18.413  65.833  0.00  0.00    +0.176 C 
ATOM     31  O   UNL     1     -10.550  17.045  65.640  0.00  0.00    -0.326 OA
BRANCH  26  32
ATOM     32  N   UNL     1      -7.399  18.443  67.777  0.00  0.00    -0.213 NA
ATOM     33  C   UNL     1      -7.384  19.017  69.131  0.00  0.00    +0.108 C 
ENDBRANCH  26  32
ENDBRANCH  22  23
ENDBRANCH   4  22
TORSDOF 7
ENDMDL
MODEL 3
REMARK VINA RESULT:      -7.3      2.164      8.532
REMARK  Name = 
REMARK  7 active torsions:
REMARK  status: ('A' for Active; 'I' for Inactive)
REMARK    1  A    between atoms: N_2  and  C_3
REMARK    2  A    between atoms: C_3  and  C_5
REMARK    3  A    between atoms: C_10  and  O_11
REMARK    4  A    between atoms: O_11  and  C_12
REMARK    5  A    between atoms: C_18  and  O_19
REMARK    6  A    between atoms: O_19  and  C_20
REMARK    7  A    between atoms: C_26  and  N_27
REMARK                            x       y       z     vdW  Elec       q    Type
REMARK                         _______ _______ _______ _____ _____    ______ ____
ROOT
ATOM      1  C   UNL     1     -10.309  14.449  67.518  0.00  0.00    +0.168 C 
ATOM      2  C   UNL     1      -9.748  15.882  66.800  0.00  0.00    +0.209 C 
ATOM      3  O   UNL     1     -10.192  16.955  67.706  0.00  0.00    -0.218 OA
ATOM      4  C   UNL     1      -8.123  15.719  67.393  0.00  0.00    +0.168 C 
ATOM      5  C   UNL     1      -8.522  14.712  68.711  0.00  0.00    +0.123 C 
ATOM      6  N   UNL     1      -7.204  15.025  69.475  0.00  0.00    -0.130 NA
ATOM      7  C   UNL     1      -9.586  15.664  69.487  0.00  0.00    +0.043 C 
ATOM      8  C   UNL     1     -10.954  14.923  69.021  0.00  0.00    +0.123 C 
ATOM      9  N   UNL     1     -11.835  16.129  68.569  0.00  0.00    -0.130 NA
ENDROOT
BRANCH   1  10
ATOM     10  O   UNL     1     -11.634  14.450  66.789  0.00  0.00    -0.328 OA
BRANCH  10  13
ATOM     11  C   UNL     1     -10.492  11.522  65.408  0.00  0.00    +0.134 C 
ATOM     12  O   UNL     1     -10.201  12.790  66.166  0.00  0.00    -0.331 OA
ATOM     13  C   UNL     1     -11.601  12.925  66.762  0.00  0.00    +0.253 C 
ATOM     14  C   UNL     1     -12.438  12.658  65.258  0.00  0.00    +0.148 C 
ATOM     15  N   UNL     1     -13.273  13.977  65.224  0.00  0.00    -0.128 NA
ATOM     16  C   UNL     1     -11.375  13.321  64.235  0.00  0.00    +0.027 C 
ATOM     17  C   UNL     1     -10.293  12.272  63.959  0.00  0.00    +0.033 C 
BRANCH  11  18
ATOM     18  C   UNL     1      -8.905  10.884  65.425  0.00  0.00    +0.100 C 
ATOM     19  C   UNL     1      -8.923  10.318  66.953  0.00  0.00    +0.021 C 
BRANCH  18  21
ATOM     20  C   UNL     1      -8.636   8.879  64.624  0.00  0.00    +0.107 C 
ATOM     21  N   UNL     1      -9.387   9.551  64.770  0.00  0.00    -0.215 NA
ENDBRANCH  18  21
ENDBRANCH  11  18
ENDBRANCH  10  13
ENDBRANCH   1  10
BRANCH   4  22
ATOM     22  O   UNL     1      -7.937  17.066  67.942  0.00  0.00    -0.327 OA
BRANCH  22  23
ATOM     23  C   UNL     1      -6.758  17.863  67.549  0.00  0.00    +0.268 C 
ATOM     24  C   UNL     1      -7.523  18.821  66.323  0.00  0.00    +0.226 C 
ATOM     25  O   UNL     1      -8.079  19.909  67.160  0.00  0.00    -0.216 OA
ATOM     26  C   UNL     1      -5.965  19.477  66.008  0.00  0.00    +0.138 C 
ATOM     27  C   UNL     1      -5.829  20.488  67.262  0.00  0.00    +0.171 C 
ATOM     28  O   UNL     1      -6.541  21.619  67.101  0.00  0.00    -0.222 OA
ATOM     29  C   UNL     1      -4.361  20.880  67.011  0.00  0.00    +0.037 C 
ATOM     30  C   UNL     1      -5.927  19.786  68.533  0.00  0.00    +0.176 C 
ATOM     31  O   UNL     1      -6.958  18.877  68.677  0.00  0.00    -0.326 OA
BRANCH  26  32
ATOM     32  N   UNL     1      -6.550  20.503  64.983  0.00  0.00    -0.213 NA
ATOM     33  C   UNL     1      -5.735  20.013  63.861  0.00  0.00    +0.108 C 
ENDBRANCH  26  32
ENDBRANCH  22  23
ENDBRANCH   4  22
TORSDOF 7
ENDMDL
MODEL 4
REMARK VINA RESULT:      -7.2      3.000      9.865
REMARK  Name = 
REMARK  7 active torsions:
REMARK  status: ('A' for Active; 'I' for Inactive)
REMARK    1  A    between atoms: N_2  and  C_3
REMARK    2  A    between atoms: C_3  and  C_5
REMARK    3  A    between atoms: C_10  and  O_11
REMARK    4  A    between atoms: O_11  and  C_12
REMARK    5  A    between atoms: C_18  and  O_19
REMARK    6  A    between atoms: O_19  and  C_20
REMARK    7  A    between atoms: C_26  and  N_27
REMARK                            x       y       z     vdW  Elec       q    Type
REMARK                         _______ _______ _______ _____ _____    ______ ____
ROOT
ATOM      1  C   UNL     1     -10.431  10.832  67.371  0.00  0.00    +0.168 C 
ATOM      2  C   UNL     1      -9.432  12.110  67.874  0.00  0.00    +0.209 C 
ATOM      3  O   UNL     1      -8.589  12.411  66.704  0.00  0.00    -0.218 OA
ATOM      4  C   UNL     1     -10.634  13.340  67.633  0.00  0.00    +0.168 C 
ATOM      5  C   UNL     1     -11.554  12.462  66.496  0.00  0.00    +0.123 C 
ATOM      6  N   UNL     1     -12.257  13.732  65.939  0.00  0.00    -0.130 NA
ATOM      7  C   UNL     1     -10.422  12.189  65.363  0.00  0.00    +0.043 C 
ATOM      8  C   UNL     1     -10.104  10.634  65.711  0.00  0.00    +0.123 C 
ATOM      9  N   UNL     1      -8.545  10.624  65.741  0.00  0.00    -0.130 NA
ENDROOT
BRANCH   1  10
ATOM     10  O   UNL     1      -9.487   9.743  67.830  0.00  0.00    -0.328 OA
BRANCH  10  13
ATOM     11  C   UNL     1     -11.230   8.716  70.604  0.00  0.00    +0.134 C 
ATOM     12  O   UNL     1     -10.748   9.841  69.727  0.00  0.00    -0.331 OA
ATOM     13  C   UNL     1     -10.669   9.004  68.452  0.00  0.00    +0.253 C 
ATOM     14  C   UNL     1      -9.810   7.680  69.186  0.00  0.00    +0.148 C 
ATOM     15  N   UNL     1      -8.570   7.656  68.238  0.00  0.00    -0.128 NA
ATOM     16  C   UNL     1      -8.941   8.493  70.281  0.00  0.00    +0.027 C 
ATOM     17  C   UNL     1      -9.847   8.738  71.492  0.00  0.00    +0.033 C 
BRANCH  11  18
ATOM     18  C   UNL     1     -12.101   9.668  71.727  0.00  0.00    +0.100 C 
ATOM     19  C   UNL     1     -13.149  10.331  70.672  0.00  0.00    +0.021 C 
BRANCH  18  21
ATOM     20  C   UNL     1     -13.930   8.743  72.458  0.00  0.00    +0.107 C 
ATOM     21  N   UNL     1     -13.017   8.461  72.105  0.00  0.00    -0.215 NA
ENDBRANCH  18  21
ENDBRANCH  11  18
ENDBRANCH  10  13
ENDBRANCH   1  10
BRANCH   4  22
ATOM     22  O   UNL     1      -9.835  14.303  66.866  0.00  0.00    -0.327 OA
BRANCH  22  23
ATOM     23  C   UNL     1      -9.420  15.575  67.490  0.00  0.00    +0.268 C 
ATOM     24  C   UNL     1      -8.942  16.399  66.042  0.00  0.00    +0.226 C 
ATOM     25  O   UNL     1     -10.250  16.943  65.614  0.00  0.00    -0.216 OA
ATOM     26  C   UNL     1      -8.426  17.682  67.065  0.00  0.00    +0.138 C 
ATOM     27  C   UNL     1      -9.857  18.340  67.431  0.00  0.00    +0.171 C 
ATOM     28  O   UNL     1     -10.357  19.091  66.432  0.00  0.00    -0.222 OA
ATOM     29  C   UNL     1      -9.326  19.337  68.478  0.00  0.00    +0.037 C 
ATOM     30  C   UNL     1     -10.738  17.383  68.083  0.00  0.00    +0.176 C 
ATOM     31  O   UNL     1     -10.846  16.129  67.512  0.00  0.00    -0.326 OA
BRANCH  26  32
ATOM     32  N   UNL     1      -8.092  18.592  65.838  0.00  0.00    -0.213 NA
ATOM     33  C   UNL     1      -6.682  18.774  66.218  0.00  0.00    +0.108 C 
ENDBRANCH  26  32
ENDBRANCH  22  23
ENDBRANCH   4  22
TORSDOF 7
ENDMDL
MODEL 5
REMARK VINA RESULT:      -7.2      2.701      9.602
REMARK  Name = 
REMARK  7 active torsions:
REMARK  status: ('A' for Active; 'I' for Inactive)
REMARK    1  A    between atoms: N_2  and  C_3
REMARK    2  A    between atoms: C_3  and  C_5
REMARK    3  A    between atoms: C_10  and  O_11
REMARK    4  A    between atoms: O_11  and  C_12
REMARK    5  A    between atoms: C_18  and  O_19
REMARK    6  A    between atoms: O_19  and  C_20
REMARK    7  A    between atoms: C_26  and  N_27
REMARK                            x       y       z     vdW  Elec       q    Type
REMARK                         _______ _______ _______ _____ _____    ______ ____
ROOT
ATOM      1  C   UNL     1     -10.798  12.090  67.561  0.00  0.00    +0.168 C 
ATOM      2  C   UNL     1      -9.489  13.115  67.209  0.00  0.00    +0.209 C 
ATOM      3  O   UNL     1      -9.875  13.804  65.965  0.00  0.00    -0.218 OA
ATOM      4  C   UNL     1      -9.965  14.352  68.332  0.00  0.00    +0.168 C 
ATOM      5  C   UNL     1     -11.615  13.923  68.372  0.00  0.00    +0.123 C 
ATOM      6  N   UNL     1     -12.062  15.307  68.922  0.00  0.00    -0.130 NA
ATOM      7  C   UNL     1     -11.985  14.060  66.796  0.00  0.00    +0.043 C 
ATOM      8  C   UNL     1     -11.994  12.481  66.413  0.00  0.00    +0.123 C 
ATOM      9  N   UNL     1     -11.136  12.461  65.110  0.00  0.00    -0.130 NA
ENDROOT
BRANCH   1  10
ATOM     10  O   UNL     1     -10.246  10.910  66.792  0.00  0.00    -0.328 OA
BRANCH  10  13
ATOM     11  C   UNL     1     -10.555   8.804  69.485  0.00  0.00    +0.134 C 
ATOM     12  O   UNL     1     -10.330  10.195  68.955  0.00  0.00    -0.331 OA
ATOM     13  C   UNL     1     -11.094   9.976  67.651  0.00  0.00    +0.253 C 
ATOM     14  C   UNL     1     -10.318   8.466  67.265  0.00  0.00    +0.148 C 
ATOM     15  N   UNL     1      -9.761   8.848  65.857  0.00  0.00    -0.128 NA
ATOM     16  C   UNL     1      -8.857   8.741  67.902  0.00  0.00    +0.027 C 
ATOM     17  C   UNL     1      -8.952   8.449  69.403  0.00  0.00    +0.033 C 
BRANCH  11  18
ATOM     18  C   UNL     1     -10.501   9.189  71.151  0.00  0.00    +0.100 C 
ATOM     19  C   UNL     1     -11.973   9.880  71.254  0.00  0.00    +0.021 C 
BRANCH  18  21
ATOM     20  C   UNL     1     -11.318   7.693  72.503  0.00  0.00    +0.107 C 
ATOM     21  N   UNL     1     -10.983   7.757  71.543  0.00  0.00    -0.215 NA
ENDBRANCH  18  21
ENDBRANCH  11  18
ENDBRANCH  10  13
ENDBRANCH   1  10
BRANCH   4  22
ATOM     22  O   UNL     1      -9.861  15.521  67.451  0.00  0.00    -0.327 OA
BRANCH  22  23
ATOM     23  C   UNL     1      -8.883  16.584  67.754  0.00  0.00    +0.268 C 
ATOM     24  C   UNL     1      -8.406  16.933  66.124  0.00  0.00    +0.226 C 
ATOM     25  O   UNL     1      -9.463  17.900  65.750  0.00  0.00    -0.216 OA
ATOM     26  C   UNL     1      -7.258  18.019  66.801  0.00  0.00    +0.138 C 
ATOM     27  C   UNL     1      -8.233  19.249  67.191  0.00  0.00    +0.171 C 
ATOM     28  O   UNL     1      -8.586  19.994  66.127  0.00  0.00    -0.222 OA
ATOM     29  C   UNL     1      -7.176  20.075  67.947  0.00  0.00    +0.037 C 
ATOM     30  C   UNL     1      -9.274  18.836  68.120  0.00  0.00    +0.176 C 
ATOM     31  O   UNL     1      -9.958  17.671  67.830  0.00  0.00    -0.326 OA
BRANCH  26  32
ATOM     32  N   UNL     1      -6.837  18.535  65.386  0.00  0.00    -0.213 NA
ATOM     33  C   UNL     1      -5.417  18.199  65.565  0.00  0.00    +0.108 C 
ENDBRANCH  26  32
ENDBRANCH  22  23
ENDBRANCH   4  22
TORSDOF 7
ENDMDL
MODEL 6
REMARK VINA RESULT:      -7.1      1.581      1.958
REMARK  Name = 
REMARK  7 active torsions:
REMARK  status: ('A' for Active; 'I' for Inactive)
REMARK    1  A    between atoms: N_2  and  C_3
REMARK    2  A    between atoms: C_3  and  C_5
REMARK    3  A    between atoms: C_10  and  O_11
REMARK    4  A    between atoms: O_11  and  C_12
REMARK    5  A    between atoms: C_18  and  O_19
REMARK    6  A    between atoms: O_19  and  C_20
REMARK    7  A    between atoms: C_26  and  N_27
REMARK                            x       y       z     vdW  Elec       q    Type
REMARK                         _______ _______ _______ _____ _____    ______ ____
ROOT
ATOM      1  C   UNL     1      -7.299  19.129  67.066  0.00  0.00    +0.168 C 
ATOM      2  C   UNL     1      -7.359  17.580  66.371  0.00  0.00    +0.209 C 
ATOM      3  O   UNL     1      -7.286  16.653  67.513  0.00  0.00    -0.218 OA
ATOM      4  C   UNL     1      -9.084  17.578  66.164  0.00  0.00    +0.168 C 
ATOM      5  C   UNL     1      -9.404  18.733  67.377  0.00  0.00    +0.123 C 
ATOM      6  N   UNL     1     -10.895  18.314  67.520  0.00  0.00    -0.130 NA
ATOM      7  C   UNL     1      -8.731  17.995  68.659  0.00  0.00    +0.043 C 
ATOM      8  C   UNL     1      -7.364  18.868  68.748  0.00  0.00    +0.123 C 
ATOM      9  N   UNL     1      -6.280  17.755  68.891  0.00  0.00    -0.130 NA
ENDROOT
BRANCH   1  10
ATOM     10  O   UNL     1      -5.792  19.241  66.999  0.00  0.00    -0.328 OA
BRANCH  10  13
ATOM     11  C   UNL     1      -4.749  21.223  64.397  0.00  0.00    +0.134 C 
ATOM     12  O   UNL     1      -5.352  19.927  64.870  0.00  0.00    -0.331 OA
ATOM     13  C   UNL     1      -5.941  20.504  66.155  0.00  0.00    +0.253 C 
ATOM     14  C   UNL     1      -4.486  21.331  66.637  0.00  0.00    +0.148 C 
ATOM     15  N   UNL     1      -4.307  20.678  68.044  0.00  0.00    -0.128 NA
ATOM     16  C   UNL     1      -3.384  20.310  66.038  0.00  0.00    +0.027 C 
ATOM     17  C   UNL     1      -3.221  20.636  64.550  0.00  0.00    +0.033 C 
BRANCH  11  18
ATOM     18  C   UNL     1      -4.826  20.904  62.718  0.00  0.00    +0.100 C 
ATOM     19  C   UNL     1      -6.335  21.462  62.467  0.00  0.00    +0.021 C 
BRANCH  18  21
ATOM     20  C   UNL     1      -4.018  22.422  61.385  0.00  0.00    +0.107 C 
ATOM     21  N   UNL     1      -4.113  22.252  62.384  0.00  0.00    -0.215 NA
ENDBRANCH  18  21
ENDBRANCH  11  18
ENDBRANCH  10  13
ENDBRANCH   1  10
BRANCH   4  22
ATOM     22  O   UNL     1      -9.388  16.267  66.748  0.00  0.00    -0.327 OA
BRANCH  22  23
ATOM     23  C   UNL     1      -9.775  15.145  65.870  0.00  0.00    +0.268 C 
ATOM     24  C   UNL     1     -10.700  14.250  67.032  0.00  0.00    +0.226 C 
ATOM     25  O   UNL     1     -12.012  14.921  66.886  0.00  0.00    -0.216 OA
ATOM     26  C   UNL     1     -10.866  13.043  65.817  0.00  0.00    +0.138 C 
ATOM     27  C   UNL     1     -11.986  13.740  64.883  0.00  0.00    +0.171 C 
ATOM     28  O   UNL     1     -13.226  13.652  65.400  0.00  0.00    -0.222 OA
ATOM     29  C   UNL     1     -11.933  12.702  63.746  0.00  0.00    +0.037 C 
ATOM     30  C   UNL     1     -11.540  15.029  64.377  0.00  0.00    +0.176 C 
ATOM     31  O   UNL     1     -10.968  15.902  65.282  0.00  0.00    -0.326 OA
BRANCH  26  32
ATOM     32  N   UNL     1     -11.839  12.207  66.712  0.00  0.00    -0.213 NA
ATOM     33  C   UNL     1     -10.943  11.042  66.788  0.00  0.00    +0.108 C 
ENDBRANCH  26  32
ENDBRANCH  22  23
ENDBRANCH   4  22
TORSDOF 7
ENDMDL
MODEL 7
REMARK VINA RESULT:      -6.9      4.509      8.507
REMARK  Name = 
REMARK  7 active torsions:
REMARK  status: ('A' for Active; 'I' for Inactive)
REMARK    1  A    between atoms: N_2  and  C_3
REMARK    2  A    between atoms: C_3  and  C_5
REMARK    3  A    between atoms: C_10  and  O_11
REMARK    4  A    between atoms: O_11  and  C_12
REMARK    5  A    between atoms: C_18  and  O_19
REMARK    6  A    between atoms: O_19  and  C_20
REMARK    7  A    between atoms: C_26  and  N_27
REMARK                            x       y       z     vdW  Elec       q    Type
REMARK                         _______ _______ _______ _____ _____    ______ ____
ROOT
ATOM      1  C   UNL     1      -9.588  11.434  65.952  0.00  0.00    +0.168 C 
ATOM      2  C   UNL     1     -10.482  10.475  67.032  0.00  0.00    +0.209 C 
ATOM      3  O   UNL     1      -9.977   9.107  66.826  0.00  0.00    -0.218 OA
ATOM      4  C   UNL     1      -9.523  10.884  68.422  0.00  0.00    +0.168 C 
ATOM      5  C   UNL     1      -8.127  11.319  67.545  0.00  0.00    +0.123 C 
ATOM      6  N   UNL     1      -7.186  11.158  68.773  0.00  0.00    -0.130 NA
ATOM      7  C   UNL     1      -7.853   9.936  66.738  0.00  0.00    +0.043 C 
ATOM      8  C   UNL     1      -8.421  10.389  65.285  0.00  0.00    +0.123 C 
ATOM      9  N   UNL     1      -9.329   9.179  64.903  0.00  0.00    -0.130 NA
ENDROOT
BRANCH   1  10
ATOM     10  O   UNL     1     -10.571  11.294  64.812  0.00  0.00    -0.328 OA
BRANCH  10  13
ATOM     11  C   UNL     1     -10.946  14.685  65.196  0.00  0.00    +0.134 C 
ATOM     12  O   UNL     1     -10.449  13.372  65.741  0.00  0.00    -0.331 OA
ATOM     13  C   UNL     1     -10.243  12.719  64.376  0.00  0.00    +0.253 C 
ATOM     14  C   UNL     1     -11.799  13.180  63.745  0.00  0.00    +0.148 C 
ATOM     15  N   UNL     1     -12.326  11.757  63.374  0.00  0.00    -0.128 NA
ATOM     16  C   UNL     1     -12.669  13.131  65.107  0.00  0.00    +0.027 C 
ATOM     17  C   UNL     1     -12.440  14.456  65.842  0.00  0.00    +0.033 C 
BRANCH  11  18
ATOM     18  C   UNL     1     -10.415  15.676  66.486  0.00  0.00    +0.100 C 
ATOM     19  C   UNL     1      -8.816  15.436  66.289  0.00  0.00    +0.021 C 
BRANCH  18  21
ATOM     20  C   UNL     1     -10.288  17.813  66.098  0.00  0.00    +0.107 C 
ATOM     21  N   UNL     1     -10.483  16.953  65.590  0.00  0.00    -0.215 NA
ENDBRANCH  18  21
ENDBRANCH  11  18
ENDBRANCH  10  13
ENDBRANCH   1  10
BRANCH   4  22
ATOM     22  O   UNL     1      -9.281   9.535  68.945  0.00  0.00    -0.327 OA
BRANCH  22  23
ATOM     23  C   UNL     1      -9.592   9.227  70.355  0.00  0.00    +0.268 C 
ATOM     24  C   UNL     1     -11.200   8.625  70.112  0.00  0.00    +0.226 C 
ATOM     25  O   UNL     1     -10.897   7.213  69.787  0.00  0.00    -0.216 OA
ATOM     26  C   UNL     1     -11.303   8.504  71.825  0.00  0.00    +0.138 C 
ATOM     27  C   UNL     1     -10.421   7.169  72.063  0.00  0.00    +0.171 C 
ATOM     28  O   UNL     1     -11.088   6.041  71.758  0.00  0.00    -0.222 OA
ATOM     29  C   UNL     1     -10.407   7.244  73.601  0.00  0.00    +0.037 C 
ATOM     30  C   UNL     1      -9.064   7.325  71.563  0.00  0.00    +0.176 C 
ATOM     31  O   UNL     1      -8.911   7.858  70.298  0.00  0.00    -0.326 OA
BRANCH  26  32
ATOM     32  N   UNL     1     -12.702   7.810  71.741  0.00  0.00    -0.213 NA
ATOM     33  C   UNL     1     -13.416   8.927  72.378  0.00  0.00    +0.108 C 
ENDBRANCH  26  32
ENDBRANCH  22  23
ENDBRANCH   4  22
TORSDOF 7
ENDMDL
MODEL 8
REMARK VINA RESULT:      -6.8      3.223      4.364
REMARK  Name = 
REMARK  7 active torsions:
REMARK  status: ('A' for Active; 'I' for Inactive)
REMARK    1  A    between atoms: N_2  and  C_3
REMARK    2  A    between atoms: C_3  and  C_5
REMARK    3  A    between atoms: C_10  and  O_11
REMARK    4  A    between atoms: O_11  and  C_12
REMARK    5  A    between atoms: C_18  and  O_19
REMARK    6  A    between atoms: O_19  and  C_20
REMARK    7  A    between atoms: C_26  and  N_27
REMARK                            x       y       z     vdW  Elec       q    Type
REMARK                         _______ _______ _______ _____ _____    ______ ____
ROOT
ATOM      1  C   UNL     1      -8.286  18.299  67.179  0.00  0.00    +0.168 C 
ATOM      2  C   UNL     1      -8.793  17.950  68.762  0.00  0.00    +0.209 C 
ATOM      3  O   UNL     1     -10.154  18.507  68.852  0.00  0.00    -0.218 OA
ATOM      4  C   UNL     1      -9.226  16.303  68.418  0.00  0.00    +0.168 C 
ATOM      5  C   UNL     1      -9.456  16.531  66.744  0.00  0.00    +0.123 C 
ATOM      6  N   UNL     1     -10.318  15.246  66.588  0.00  0.00    -0.130 NA
ATOM      7  C   UNL     1     -10.595  17.690  66.768  0.00  0.00    +0.043 C 
ATOM      8  C   UNL     1      -9.651  18.962  66.407  0.00  0.00    +0.123 C 
ATOM      9  N   UNL     1     -10.091  20.004  67.481  0.00  0.00    -0.130 NA
ENDROOT
BRANCH   1  10
ATOM     10  O   UNL     1      -7.665  19.632  67.535  0.00  0.00    -0.328 OA
BRANCH  10  13
ATOM     11  C   UNL     1      -4.519  18.672  68.520  0.00  0.00    +0.134 C 
ATOM     12  O   UNL     1      -6.009  18.459  68.574  0.00  0.00    -0.331 OA
ATOM     13  C   UNL     1      -6.290  19.061  67.199  0.00  0.00    +0.253 C 
ATOM     14  C   UNL     1      -5.329  20.490  67.454  0.00  0.00    +0.148 C 
ATOM     15  N   UNL     1      -6.434  21.561  67.183  0.00  0.00    -0.128 NA
ATOM     16  C   UNL     1      -5.549  20.685  69.044  0.00  0.00    +0.027 C 
ATOM     17  C   UNL     1      -4.568  19.751  69.758  0.00  0.00    +0.033 C 
BRANCH  11  18
ATOM     18  C   UNL     1      -4.071  17.363  69.526  0.00  0.00    +0.100 C 
ATOM     19  C   UNL     1      -4.289  16.174  68.434  0.00  0.00    +0.021 C 
BRANCH  18  21
ATOM     20  C   UNL     1      -1.938  17.049  69.817  0.00  0.00    +0.107 C 
ATOM     21  N   UNL     1      -2.558  17.579  69.207  0.00  0.00    -0.215 NA
ENDBRANCH  18  21
ENDBRANCH  11  18
ENDBRANCH  10  13
ENDBRANCH   1  10
BRANCH   4  22
ATOM     22  O   UNL     1     -10.563  16.280  69.022  0.00  0.00    -0.327 OA
BRANCH  22  23
ATOM     23  C   UNL     1     -10.886  15.273  70.052  0.00  0.00    +0.268 C 
ATOM     24  C   UNL     1     -11.953  16.251  71.007  0.00  0.00    +0.226 C 
ATOM     25  O   UNL     1     -13.222  16.029  70.277  0.00  0.00    -0.216 OA
ATOM     26  C   UNL     1     -12.023  14.926  72.100  0.00  0.00    +0.138 C 
ATOM     27  C   UNL     1     -13.018  13.944  71.288  0.00  0.00    +0.171 C 
ATOM     28  O   UNL     1     -14.308  14.321  71.373  0.00  0.00    -0.222 OA
ATOM     29  C   UNL     1     -12.874  12.734  72.229  0.00  0.00    +0.037 C 
ATOM     30  C   UNL     1     -12.485  13.601  69.978  0.00  0.00    +0.176 C 
ATOM     31  O   UNL     1     -11.988  14.633  69.206  0.00  0.00    -0.326 OA
BRANCH  26  32
ATOM     32  N   UNL     1     -13.108  15.639  72.972  0.00  0.00    -0.213 NA
ATOM     33  C   UNL     1     -12.384  15.434  74.236  0.00  0.00    +0.108 C 
ENDBRANCH  26  32
ENDBRANCH  22  23
ENDBRANCH   4  22
TORSDOF 7
ENDMDL
MODEL 9
REMARK VINA RESULT:      -6.6      4.497      8.628
REMARK  Name = 
REMARK  7 active torsions:
REMARK  status: ('A' for Active; 'I' for Inactive)
REMARK    1  A    between atoms: N_2  and  C_3
REMARK    2  A    between atoms: C_3  and  C_5
REMARK    3  A    between atoms: C_10  and  O_11
REMARK    4  A    between atoms: O_11  and  C_12
REMARK    5  A    between atoms: C_18  and  O_19
REMARK    6  A    between atoms: O_19  and  C_20
REMARK    7  A    between atoms: C_26  and  N_27
REMARK                            x       y       z     vdW  Elec       q    Type
REMARK                         _______ _______ _______ _____ _____    ______ ____
ROOT
ATOM      1  C   UNL     1      -9.574  11.387  65.613  0.00  0.00    +0.168 C 
ATOM      2  C   UNL     1     -10.396  10.237  66.555  0.00  0.00    +0.209 C 
ATOM      3  O   UNL     1      -9.900   8.935  66.075  0.00  0.00    -0.218 OA
ATOM      4  C   UNL     1      -9.353  10.403  67.934  0.00  0.00    +0.168 C 
ATOM      5  C   UNL     1      -8.016  11.009  67.066  0.00  0.00    +0.123 C 
ATOM      6  N   UNL     1      -7.000  10.644  68.186  0.00  0.00    -0.130 NA
ATOM      7  C   UNL     1      -7.788   9.797  66.008  0.00  0.00    +0.043 C 
ATOM      8  C   UNL     1      -8.448  10.496  64.698  0.00  0.00    +0.123 C 
ATOM      9  N   UNL     1      -9.374   9.361  64.160  0.00  0.00    -0.130 NA
ENDROOT
BRANCH   1  10
ATOM     10  O   UNL     1     -10.627  11.440  64.527  0.00  0.00    -0.328 OA
BRANCH  10  13
ATOM     11  C   UNL     1     -10.868  14.692  65.600  0.00  0.00    +0.134 C 
ATOM     12  O   UNL     1     -10.334  13.300  65.812  0.00  0.00    -0.331 OA
ATOM     13  C   UNL     1     -10.326  12.923  64.332  0.00  0.00    +0.253 C 
ATOM     14  C   UNL     1     -11.941  13.492  64.016  0.00  0.00    +0.148 C 
ATOM     15  N   UNL     1     -12.546  12.166  63.455  0.00  0.00    -0.128 NA
ATOM     16  C   UNL     1     -12.623  13.180  65.449  0.00  0.00    +0.027 C 
ATOM     17  C   UNL     1     -12.267  14.339  66.386  0.00  0.00    +0.033 C 
BRANCH  11  18
ATOM     18  C   UNL     1     -10.147  15.418  66.971  0.00  0.00    +0.100 C 
ATOM     19  C   UNL     1      -8.630  15.514  66.384  0.00  0.00    +0.021 C 
BRANCH  18  21
ATOM     20  C   UNL     1     -10.245  17.588  67.106  0.00  0.00    +0.107 C 
ATOM     21  N   UNL     1     -10.578  16.842  66.497  0.00  0.00    -0.215 NA
ENDBRANCH  18  21
ENDBRANCH  11  18
ENDBRANCH  10  13
ENDBRANCH   1  10
BRANCH   4  22
ATOM     22  O   UNL     1      -9.074   8.986  68.190  0.00  0.00    -0.327 OA
BRANCH  22  23
ATOM     23  C   UNL     1      -9.703   8.310  69.342  0.00  0.00    +0.268 C 
ATOM     24  C   UNL     1      -8.250   7.766  70.115  0.00  0.00    +0.226 C 
ATOM     25  O   UNL     1      -7.913   8.973  70.904  0.00  0.00    -0.216 OA
ATOM     26  C   UNL     1      -9.271   6.968  71.245  0.00  0.00    +0.138 C 
ATOM     27  C   UNL     1      -9.738   8.231  72.140  0.00  0.00    +0.171 C 
ATOM     28  O   UNL     1      -8.789   8.637  73.005  0.00  0.00    -0.222 OA
ATOM     29  C   UNL     1     -10.775   7.469  72.986  0.00  0.00    +0.037 C 
ATOM     30  C   UNL     1     -10.417   9.237  71.339  0.00  0.00    +0.176 C 
ATOM     31  O   UNL     1      -9.824   9.606  70.147  0.00  0.00    -0.326 OA
BRANCH  26  32
ATOM     32  N   UNL     1      -8.049   6.538  72.121  0.00  0.00    -0.213 NA
ATOM     33  C   UNL     1      -8.374   5.105  72.067  0.00  0.00    +0.108 C 
ENDBRANCH  26  32
ENDBRANCH  22  23
ENDBRANCH   4  22
TORSDOF 7
ENDMDL
