MODEL 1
REMARK VINA RESULT:      -6.6      0.000      0.000
REMARK  Name = 
REMARK  0 active torsions:
REMARK  status: ('A' for Active; 'I' for Inactive)
REMARK                            x       y       z     vdW  Elec       q    Type
REMARK                         _______ _______ _______ _____ _____    ______ ____
ROOT
ATOM      1  O   UNL     1     -13.199  12.179  64.009  0.00  0.00    -0.250 OA
ATOM      2  C   UNL     1     -12.410  12.774  64.794  0.00  0.00    +0.356 C 
ATOM      3  N   UNL     1     -12.765  14.007  65.433  0.00  0.00    -0.001 NA
ATOM      4  C   UNL     1     -12.174  14.066  66.578  0.00  0.00    +0.406 C 
ATOM      5  N   UNL     1     -11.656  12.776  66.926  0.00  0.00    -0.183 N 
ATOM      6  C   UNL     1     -11.728  12.298  68.280  0.00  0.00    +0.198 C 
ATOM      7  C   UNL     1     -11.758  13.400  69.255  0.00  0.00    +0.058 A 
ATOM      8  C   UNL     1     -11.444  14.675  68.803  0.00  0.00    +0.148 A 
ATOM      9  C   UNL     1     -11.188  15.615  69.795  0.00  0.00    +0.035 A 
ATOM     10  C   UNL     1     -11.522  15.342  71.116  0.00  0.00    +0.015 A 
ATOM     11  C   UNL     1     -12.277  14.230  71.457  0.00  0.00    +0.068 A 
ATOM     12 CL   UNL     1     -13.571  14.293  72.646  0.00  0.00    -0.081 Cl
ATOM     13  C   UNL     1     -12.192  13.177  70.556  0.00  0.00    +0.070 A 
ATOM     14 CL   UNL     1     -12.850  11.631  71.060  0.00  0.00    -0.081 Cl
ATOM     15  N   UNL     1     -11.833  15.113  67.496  0.00  0.00    -0.042 NA
ATOM     16  C   UNL     1     -11.435  12.055  65.675  0.00  0.00    +0.274 C 
ENDROOT
TORSDOF 0
ENDMDL
MODEL 2
REMARK VINA RESULT:      -6.2      4.006      5.785
REMARK  Name = 
REMARK  0 active torsions:
REMARK  status: ('A' for Active; 'I' for Inactive)
REMARK                            x       y       z     vdW  Elec       q    Type
REMARK                         _______ _______ _______ _____ _____    ______ ____
ROOT
ATOM      1  O   UNL     1     -14.041  16.324  73.256  0.00  0.00    -0.250 OA
ATOM      2  C   UNL     1     -13.305  15.359  72.908  0.00  0.00    +0.356 C 
ATOM      3  N   UNL     1     -13.844  14.169  72.321  0.00  0.00    -0.001 NA
ATOM      4  C   UNL     1     -12.971  13.675  71.509  0.00  0.00    +0.406 C 
ATOM      5  N   UNL     1     -11.945  14.642  71.251  0.00  0.00    -0.183 N 
ATOM      6  C   UNL     1     -11.392  14.789  69.932  0.00  0.00    +0.198 C 
ATOM      7  C   UNL     1     -11.490  13.547  69.149  0.00  0.00    +0.058 A 
ATOM      8  C   UNL     1     -11.817  12.379  69.823  0.00  0.00    +0.148 A 
ATOM      9  C   UNL     1     -11.602  11.200  69.118  0.00  0.00    +0.035 A 
ATOM     10  C   UNL     1     -11.363  11.242  67.749  0.00  0.00    +0.015 A 
ATOM     11  C   UNL     1     -11.515  12.412  67.023  0.00  0.00    +0.068 A 
ATOM     12 CL   UNL     1     -12.279  12.450  65.440  0.00  0.00    -0.081 Cl
ATOM     13  C   UNL     1     -11.363  13.576  67.765  0.00  0.00    +0.070 A 
ATOM     14 CL   UNL     1     -11.223  15.083  66.879  0.00  0.00    -0.081 Cl
ATOM     15  N   UNL     1     -12.743  12.390  70.916  0.00  0.00    -0.042 NA
ATOM     16  C   UNL     1     -11.906  15.539  72.402  0.00  0.00    +0.274 C 
ENDROOT
TORSDOF 0
ENDMDL
MODEL 3
REMARK VINA RESULT:      -6.2      3.819      5.630
REMARK  Name = 
REMARK  0 active torsions:
REMARK  status: ('A' for Active; 'I' for Inactive)
REMARK                            x       y       z     vdW  Elec       q    Type
REMARK                         _______ _______ _______ _____ _____    ______ ____
ROOT
ATOM      1  O   UNL     1     -12.539  15.966  74.708  0.00  0.00    -0.250 OA
ATOM      2  C   UNL     1     -12.823  16.005  73.478  0.00  0.00    +0.356 C 
ATOM      3  N   UNL     1     -11.886  16.474  72.500  0.00  0.00    -0.001 NA
ATOM      4  C   UNL     1     -12.100  15.852  71.390  0.00  0.00    +0.406 C 
ATOM      5  N   UNL     1     -12.950  14.722  71.621  0.00  0.00    -0.183 N 
ATOM      6  C   UNL     1     -12.717  13.478  70.940  0.00  0.00    +0.198 C 
ATOM      7  C   UNL     1     -12.034  13.672  69.651  0.00  0.00    +0.058 A 
ATOM      8  C   UNL     1     -11.958  14.962  69.144  0.00  0.00    +0.148 A 
ATOM      9  C   UNL     1     -11.585  15.060  67.808  0.00  0.00    +0.035 A 
ATOM     10  C   UNL     1     -11.050  13.958  67.153  0.00  0.00    +0.015 A 
ATOM     11  C   UNL     1     -10.700  12.806  67.839  0.00  0.00    +0.068 A 
ATOM     12 CL   UNL     1      -9.217  11.921  67.510  0.00  0.00    -0.081 Cl
ATOM     13  C   UNL     1     -11.396  12.608  69.025  0.00  0.00    +0.070 A 
ATOM     14 CL   UNL     1     -11.250  11.036  69.790  0.00  0.00    -0.081 Cl
ATOM     15  N   UNL     1     -11.783  16.089  70.012  0.00  0.00    -0.042 NA
ATOM     16  C   UNL     1     -13.735  15.017  72.817  0.00  0.00    +0.274 C 
ENDROOT
TORSDOF 0
ENDMDL
MODEL 4
REMARK VINA RESULT:      -6.0      3.819      5.681
REMARK  Name = 
REMARK  0 active torsions:
REMARK  status: ('A' for Active; 'I' for Inactive)
REMARK                            x       y       z     vdW  Elec       q    Type
REMARK                         _______ _______ _______ _____ _____    ______ ____
ROOT
ATOM      1  O   UNL     1     -12.516  16.314  74.462  0.00  0.00    -0.250 OA
ATOM      2  C   UNL     1     -12.742  15.975  73.267  0.00  0.00    +0.356 C 
ATOM      3  N   UNL     1     -11.687  15.846  72.305  0.00  0.00    -0.001 NA
ATOM      4  C   UNL     1     -12.013  14.934  71.453  0.00  0.00    +0.406 C 
ATOM      5  N   UNL     1     -13.126  14.179  71.949  0.00  0.00    -0.183 N 
ATOM      6  C   UNL     1     -13.189  12.756  71.760  0.00  0.00    +0.198 C 
ATOM      7  C   UNL     1     -12.438  12.322  70.570  0.00  0.00    +0.058 A 
ATOM      8  C   UNL     1     -12.027  13.297  69.671  0.00  0.00    +0.148 A 
ATOM      9  C   UNL     1     -11.599  12.829  68.434  0.00  0.00    +0.035 A 
ATOM     10  C   UNL     1     -11.335  11.476  68.256  0.00  0.00    +0.015 A 
ATOM     11  C   UNL     1     -11.305  10.596  69.326  0.00  0.00    +0.068 A 
ATOM     12 CL   UNL     1     -10.079   9.346  69.491  0.00  0.00    -0.081 Cl
ATOM     13  C   UNL     1     -12.065  10.992  70.419  0.00  0.00    +0.070 A 
ATOM     14 CL   UNL     1     -12.341   9.805  71.681  0.00  0.00    -0.081 Cl
ATOM     15  N   UNL     1     -11.604  14.589  70.123  0.00  0.00    -0.042 NA
ATOM     16  C   UNL     1     -13.849  15.046  72.875  0.00  0.00    +0.274 C 
ENDROOT
TORSDOF 0
ENDMDL
MODEL 5
REMARK VINA RESULT:      -5.9      3.582      5.294
REMARK  Name = 
REMARK  0 active torsions:
REMARK  status: ('A' for Active; 'I' for Inactive)
REMARK                            x       y       z     vdW  Elec       q    Type
REMARK                         _______ _______ _______ _____ _____    ______ ____
ROOT
ATOM      1  O   UNL     1      -8.030  19.113  67.697  0.00  0.00    -0.250 OA
ATOM      2  C   UNL     1      -9.016  18.597  67.100  0.00  0.00    +0.356 C 
ATOM      3  N   UNL     1      -8.847  17.646  66.042  0.00  0.00    -0.001 NA
ATOM      4  C   UNL     1      -9.849  16.833  66.052  0.00  0.00    +0.406 C 
ATOM      5  N   UNL     1     -10.576  16.970  67.280  0.00  0.00    -0.183 N 
ATOM      6  C   UNL     1     -11.110  15.816  67.949  0.00  0.00    +0.198 C 
ATOM      7  C   UNL     1     -11.386  14.713  67.013  0.00  0.00    +0.058 A 
ATOM      8  C   UNL     1     -11.373  14.996  65.654  0.00  0.00    +0.148 A 
ATOM      9  C   UNL     1     -11.930  14.021  64.834  0.00  0.00    +0.035 A 
ATOM     10  C   UNL     1     -12.193  12.754  65.341  0.00  0.00    +0.015 A 
ATOM     11  C   UNL     1     -11.747  12.367  66.595  0.00  0.00    +0.068 A 
ATOM     12 CL   UNL     1     -11.056  10.781  66.906  0.00  0.00    -0.081 Cl
ATOM     13  C   UNL     1     -11.546  13.415  67.484  0.00  0.00    +0.070 A 
ATOM     14 CL   UNL     1     -11.293  13.003  69.169  0.00  0.00    -0.081 Cl
ATOM     15  N   UNL     1     -10.444  15.937  65.104  0.00  0.00    -0.042 NA
ATOM     16  C   UNL     1     -10.327  18.322  67.773  0.00  0.00    +0.274 C 
ENDROOT
TORSDOF 0
ENDMDL
MODEL 6
REMARK VINA RESULT:      -5.7      3.526      5.773
REMARK  Name = 
REMARK  0 active torsions:
REMARK  status: ('A' for Active; 'I' for Inactive)
REMARK                            x       y       z     vdW  Elec       q    Type
REMARK                         _______ _______ _______ _____ _____    ______ ____
ROOT
ATOM      1  O   UNL     1     -10.765  15.535  70.385  0.00  0.00    -0.250 OA
ATOM      2  C   UNL     1     -11.517  14.956  69.552  0.00  0.00    +0.356 C 
ATOM      3  N   UNL     1     -11.624  15.399  68.194  0.00  0.00    -0.001 NA
ATOM      4  C   UNL     1     -11.871  14.379  67.444  0.00  0.00    +0.406 C 
ATOM      5  N   UNL     1     -11.631  13.168  68.172  0.00  0.00    -0.183 N 
ATOM      6  C   UNL     1     -11.015  12.038  67.534  0.00  0.00    +0.198 C 
ATOM      7  C   UNL     1     -11.256  12.024  66.082  0.00  0.00    +0.058 A 
ATOM      8  C   UNL     1     -12.223  12.881  65.576  0.00  0.00    +0.148 A 
ATOM      9  C   UNL     1     -12.630  12.623  64.271  0.00  0.00    +0.035 A 
ATOM     10  C   UNL     1     -11.891  11.759  63.471  0.00  0.00    +0.015 A 
ATOM     11  C   UNL     1     -10.651  11.284  63.869  0.00  0.00    +0.068 A 
ATOM     12 CL   UNL     1      -9.283  11.173  62.770  0.00  0.00    -0.081 Cl
ATOM     13  C   UNL     1     -10.461  11.251  65.244  0.00  0.00    +0.070 A 
ATOM     14 CL   UNL     1      -9.062  10.377  65.842  0.00  0.00    -0.081 Cl
ATOM     15  N   UNL     1     -12.418  14.187  66.132  0.00  0.00    -0.042 NA
ATOM     16  C   UNL     1     -11.798  13.485  69.588  0.00  0.00    +0.274 C 
ENDROOT
TORSDOF 0
ENDMDL
MODEL 7
REMARK VINA RESULT:      -5.6      4.187      6.017
REMARK  Name = 
REMARK  0 active torsions:
REMARK  status: ('A' for Active; 'I' for Inactive)
REMARK                            x       y       z     vdW  Elec       q    Type
REMARK                         _______ _______ _______ _____ _____    ______ ____
ROOT
ATOM      1  O   UNL     1      -9.056  18.292  67.084  0.00  0.00    -0.250 OA
ATOM      2  C   UNL     1     -10.020  17.550  66.745  0.00  0.00    +0.356 C 
ATOM      3  N   UNL     1     -10.270  17.211  65.375  0.00  0.00    -0.001 NA
ATOM      4  C   UNL     1     -10.804  16.038  65.329  0.00  0.00    +0.406 C 
ATOM      5  N   UNL     1     -10.658  15.386  66.597  0.00  0.00    -0.183 N 
ATOM      6  C   UNL     1     -10.354  13.983  66.669  0.00  0.00    +0.198 C 
ATOM      7  C   UNL     1     -10.827  13.253  65.481  0.00  0.00    +0.058 A 
ATOM      8  C   UNL     1     -11.703  13.905  64.625  0.00  0.00    +0.148 A 
ATOM      9  C   UNL     1     -12.353  13.093  63.702  0.00  0.00    +0.035 A 
ATOM     10  C   UNL     1     -11.911  11.793  63.487  0.00  0.00    +0.015 A 
ATOM     11  C   UNL     1     -10.722  11.332  64.029  0.00  0.00    +0.068 A 
ATOM     12 CL   UNL     1      -9.589  10.340  63.122  0.00  0.00    -0.081 Cl
ATOM     13  C   UNL     1     -10.320  11.994  65.183  0.00  0.00    +0.070 A 
ATOM     14 CL   UNL     1      -9.012  11.278  66.106  0.00  0.00    -0.081 Cl
ATOM     15  N   UNL     1     -11.581  15.309  64.369  0.00  0.00    -0.042 NA
ATOM     16  C   UNL     1     -10.537  16.437  67.604  0.00  0.00    +0.274 C 
ENDROOT
TORSDOF 0
ENDMDL
MODEL 8
REMARK VINA RESULT:      -5.6      7.693      9.348
REMARK  Name = 
REMARK  0 active torsions:
REMARK  status: ('A' for Active; 'I' for Inactive)
REMARK                            x       y       z     vdW  Elec       q    Type
REMARK                         _______ _______ _______ _____ _____    ______ ____
ROOT
ATOM      1  O   UNL     1      -4.227  22.018  72.455  0.00  0.00    -0.250 OA
ATOM      2  C   UNL     1      -4.195  21.031  71.668  0.00  0.00    +0.356 C 
ATOM      3  N   UNL     1      -4.687  19.741  72.052  0.00  0.00    -0.001 NA
ATOM      4  C   UNL     1      -5.142  19.142  71.004  0.00  0.00    +0.406 C 
ATOM      5  N   UNL     1      -5.285  20.080  69.931  0.00  0.00    -0.183 N 
ATOM      6  C   UNL     1      -6.416  20.016  69.046  0.00  0.00    +0.198 C 
ATOM      7  C   UNL     1      -6.969  18.655  68.953  0.00  0.00    +0.058 A 
ATOM      8  C   UNL     1      -6.212  17.610  69.467  0.00  0.00    +0.148 A 
ATOM      9  C   UNL     1      -6.619  16.335  69.092  0.00  0.00    +0.035 A 
ATOM     10  C   UNL     1      -7.862  16.148  68.498  0.00  0.00    +0.015 A 
ATOM     11  C   UNL     1      -8.795  17.171  68.433  0.00  0.00    +0.068 A 
ATOM     12 CL   UNL     1     -10.506  16.913  68.750  0.00  0.00    -0.081 Cl
ATOM     13  C   UNL     1      -8.253  18.449  68.464  0.00  0.00    +0.070 A 
ATOM     14 CL   UNL     1      -9.319  19.785  68.070  0.00  0.00    -0.081 Cl
ATOM     15  N   UNL     1      -5.421  17.781  70.649  0.00  0.00    -0.042 NA
ATOM     16  C   UNL     1      -4.338  21.163  70.183  0.00  0.00    +0.274 C 
ENDROOT
TORSDOF 0
ENDMDL
MODEL 9
REMARK VINA RESULT:      -5.6      3.299      3.945
REMARK  Name = 
REMARK  0 active torsions:
REMARK  status: ('A' for Active; 'I' for Inactive)
REMARK                            x       y       z     vdW  Elec       q    Type
REMARK                         _______ _______ _______ _____ _____    ______ ____
ROOT
ATOM      1  O   UNL     1     -11.850  11.439  63.491  0.00  0.00    -0.250 OA
ATOM      2  C   UNL     1     -12.218  12.357  64.277  0.00  0.00    +0.356 C 
ATOM      3  N   UNL     1     -12.055  12.248  65.697  0.00  0.00    -0.001 NA
ATOM      4  C   UNL     1     -11.877  13.428  66.185  0.00  0.00    +0.406 C 
ATOM      5  N   UNL     1     -11.589  14.354  65.130  0.00  0.00    -0.183 N 
ATOM      6  C   UNL     1     -10.603  15.385  65.308  0.00  0.00    +0.198 C 
ATOM      7  C   UNL     1     -10.446  15.762  66.722  0.00  0.00    +0.058 A 
ATOM      8  C   UNL     1     -11.403  15.316  67.623  0.00  0.00    +0.148 A 
ATOM      9  C   UNL     1     -11.389  15.936  68.867  0.00  0.00    +0.035 A 
ATOM     10  C   UNL     1     -10.302  16.717  69.243  0.00  0.00    +0.015 A 
ATOM     11  C   UNL     1      -9.139  16.751  68.489  0.00  0.00    +0.068 A 
ATOM     12 CL   UNL     1      -7.539  16.716  69.216  0.00  0.00    -0.081 Cl
ATOM     13  C   UNL     1      -9.314  16.449  67.145  0.00  0.00    +0.070 A 
ATOM     14 CL   UNL     1      -7.971  16.775  66.065  0.00  0.00    -0.081 Cl
ATOM     15  N   UNL     1     -12.006  14.024  67.483  0.00  0.00    -0.042 NA
ATOM     16  C   UNL     1     -12.184  13.809  63.912  0.00  0.00    +0.274 C 
ENDROOT
TORSDOF 0
ENDMDL
