MODEL 1
REMARK VINA RESULT:      -6.2      0.000      0.000
REMARK  Name = 
REMARK  6 active torsions:
REMARK  status: ('A' for Active; 'I' for Inactive)
REMARK    1  A    between atoms: N_2  and  C_4
REMARK    2  A    between atoms: C_4  and  C_5
REMARK    3  A    between atoms: C_5  and  O_6
REMARK    4  A    between atoms: O_6  and  C_7
REMARK    5  A    between atoms: C_12  and  C_13
REMARK    6  A    between atoms: C_13  and  C_14
REMARK                            x       y       z     vdW  Elec       q    Type
REMARK                         _______ _______ _______ _____ _____    ______ ____
ROOT
ATOM      1  C   UNL     1     -11.652  13.192  67.862  0.00  0.00    +0.135 A 
ATOM      2  C   UNL     1     -11.742  13.691  69.157  0.00  0.00    +0.016 A 
ATOM      3  C   UNL     1     -11.931  12.838  70.239  0.00  0.00    -0.001 A 
ATOM      4  C   UNL     1     -12.086  11.471  70.041  0.00  0.00    -0.000 A 
ATOM      5  C   UNL     1     -11.748  10.965  68.804  0.00  0.00    +0.003 A 
ATOM      6  C   UNL     1     -11.364  11.834  67.789  0.00  0.00    +0.037 A 
ENDROOT
BRANCH   2   7
ATOM      7  C   UNL     1     -12.093  15.143  69.251  0.00  0.00    +0.056 C 
BRANCH   7   8
ATOM      8  C   UNL     1     -12.556  15.485  70.616  0.00  0.00    -0.018 A 
ATOM      9  C   UNL     1     -11.712  16.083  71.512  0.00  0.00    -0.004 A 
ATOM     10  C   UNL     1     -12.042  16.091  72.851  0.00  0.00    -0.000 A 
ATOM     11  C   UNL     1     -13.174  15.445  73.280  0.00  0.00    -0.000 A 
ATOM     12  C   UNL     1     -14.162  15.146  72.354  0.00  0.00    -0.000 A 
ATOM     13  C   UNL     1     -13.851  15.195  71.006  0.00  0.00    -0.004 A 
ENDBRANCH   7   8
ENDBRANCH   2   7
BRANCH   1  14
ATOM     14  O   UNL     1     -12.201  13.883  66.776  0.00  0.00    -0.474 OA
BRANCH  14  15
ATOM     15  C   UNL     1     -12.440  13.151  65.585  0.00  0.00    +0.223 C 
BRANCH  15  16
ATOM     16  C   UNL     1     -11.455  13.658  64.541  0.00  0.00    +0.120 C 
BRANCH  16  18
ATOM     17  C   UNL     1     -12.489  11.906  63.392  0.00  0.00    +0.090 C 
ATOM     18  N   UNL     1     -11.218  12.608  63.554  0.00  0.00    -0.267 NA
ATOM     19  C   UNL     1     -10.187  11.689  64.023  0.00  0.00    +0.090 C 
ENDBRANCH  16  18
ENDBRANCH  15  16
ENDBRANCH  14  15
ENDBRANCH   1  14
TORSDOF 6
ENDMDL
MODEL 2
REMARK VINA RESULT:      -6.1      2.711      6.477
REMARK  Name = 
REMARK  6 active torsions:
REMARK  status: ('A' for Active; 'I' for Inactive)
REMARK    1  A    between atoms: N_2  and  C_4
REMARK    2  A    between atoms: C_4  and  C_5
REMARK    3  A    between atoms: C_5  and  O_6
REMARK    4  A    between atoms: O_6  and  C_7
REMARK    5  A    between atoms: C_12  and  C_13
REMARK    6  A    between atoms: C_13  and  C_14
REMARK                            x       y       z     vdW  Elec       q    Type
REMARK                         _______ _______ _______ _____ _____    ______ ____
ROOT
ATOM      1  C   UNL     1     -12.170  12.935  70.276  0.00  0.00    +0.135 A 
ATOM      2  C   UNL     1     -11.686  12.061  69.308  0.00  0.00    +0.016 A 
ATOM      3  C   UNL     1     -11.681  10.688  69.524  0.00  0.00    -0.001 A 
ATOM      4  C   UNL     1     -12.114  10.163  70.735  0.00  0.00    -0.000 A 
ATOM      5  C   UNL     1     -12.818  10.999  71.576  0.00  0.00    +0.003 A 
ATOM      6  C   UNL     1     -12.981  12.336  71.234  0.00  0.00    +0.037 A 
ENDROOT
BRANCH   2   7
ATOM      7  C   UNL     1     -10.777  12.684  68.294  0.00  0.00    +0.056 C 
BRANCH   7   8
ATOM      8  C   UNL     1     -11.442  12.771  66.974  0.00  0.00    -0.018 A 
ATOM      9  C   UNL     1     -11.266  11.790  66.036  0.00  0.00    -0.004 A 
ATOM     10  C   UNL     1     -11.609  12.040  64.723  0.00  0.00    -0.000 A 
ATOM     11  C   UNL     1     -12.059  13.284  64.359  0.00  0.00    -0.000 A 
ATOM     12  C   UNL     1     -12.537  14.135  65.344  0.00  0.00    -0.000 A 
ATOM     13  C   UNL     1     -12.245  13.855  66.668  0.00  0.00    -0.004 A 
ENDBRANCH   7   8
ENDBRANCH   2   7
BRANCH   1  14
ATOM     14  O   UNL     1     -11.573  14.180  70.498  0.00  0.00    -0.474 OA
BRANCH  14  15
ATOM     15  C   UNL     1     -12.430  15.293  70.697  0.00  0.00    +0.223 C 
BRANCH  15  16
ATOM     16  C   UNL     1     -11.895  16.062  71.897  0.00  0.00    +0.120 C 
BRANCH  16  18
ATOM     17  C   UNL     1     -12.414  15.227  74.017  0.00  0.00    +0.090 C 
ATOM     18  N   UNL     1     -12.913  16.084  72.944  0.00  0.00    -0.267 NA
ATOM     19  C   UNL     1     -14.181  15.573  72.435  0.00  0.00    +0.090 C 
ENDBRANCH  16  18
ENDBRANCH  15  16
ENDBRANCH  14  15
ENDBRANCH   1  14
TORSDOF 6
ENDMDL
MODEL 3
REMARK VINA RESULT:      -6.1      3.718      6.200
REMARK  Name = 
REMARK  6 active torsions:
REMARK  status: ('A' for Active; 'I' for Inactive)
REMARK    1  A    between atoms: N_2  and  C_4
REMARK    2  A    between atoms: C_4  and  C_5
REMARK    3  A    between atoms: C_5  and  O_6
REMARK    4  A    between atoms: O_6  and  C_7
REMARK    5  A    between atoms: C_12  and  C_13
REMARK    6  A    between atoms: C_13  and  C_14
REMARK                            x       y       z     vdW  Elec       q    Type
REMARK                         _______ _______ _______ _____ _____    ______ ____
ROOT
ATOM      1  C   UNL     1     -11.388  14.873  67.259  0.00  0.00    +0.135 A 
ATOM      2  C   UNL     1     -10.406  15.378  66.414  0.00  0.00    +0.016 A 
ATOM      3  C   UNL     1     -10.159  14.794  65.176  0.00  0.00    -0.001 A 
ATOM      4  C   UNL     1     -10.858  13.660  64.780  0.00  0.00    -0.000 A 
ATOM      5  C   UNL     1     -11.985  13.323  65.499  0.00  0.00    +0.003 A 
ATOM      6  C   UNL     1     -12.322  14.057  66.630  0.00  0.00    +0.037 A 
ENDROOT
BRANCH   2   7
ATOM      7  C   UNL     1      -9.369  16.224  67.085  0.00  0.00    +0.056 C 
BRANCH   7   8
ATOM      8  C   UNL     1      -9.826  17.627  67.198  0.00  0.00    -0.018 A 
ATOM      9  C   UNL     1     -10.312  18.295  66.107  0.00  0.00    -0.004 A 
ATOM     10  C   UNL     1     -10.417  19.670  66.147  0.00  0.00    -0.000 A 
ATOM     11  C   UNL     1      -9.975  20.358  67.248  0.00  0.00    -0.000 A 
ATOM     12  C   UNL     1      -9.806  19.670  68.440  0.00  0.00    -0.000 A 
ATOM     13  C   UNL     1      -9.759  18.287  68.413  0.00  0.00    -0.004 A 
ENDBRANCH   7   8
ENDBRANCH   2   7
BRANCH   1  14
ATOM     14  O   UNL     1     -11.212  14.849  68.647  0.00  0.00    -0.474 OA
BRANCH  14  15
ATOM     15  C   UNL     1     -12.057  15.677  69.430  0.00  0.00    +0.223 C 
BRANCH  15  16
ATOM     16  C   UNL     1     -12.633  14.808  70.540  0.00  0.00    +0.120 C 
BRANCH  16  18
ATOM     17  C   UNL     1     -12.704  15.845  72.633  0.00  0.00    +0.090 C 
ATOM     18  N   UNL     1     -13.471  15.631  71.407  0.00  0.00    -0.267 NA
ATOM     19  C   UNL     1     -14.725  14.946  71.707  0.00  0.00    +0.090 C 
ENDBRANCH  16  18
ENDBRANCH  15  16
ENDBRANCH  14  15
ENDBRANCH   1  14
TORSDOF 6
ENDMDL
MODEL 4
REMARK VINA RESULT:      -6.0      2.926      6.969
REMARK  Name = 
REMARK  6 active torsions:
REMARK  status: ('A' for Active; 'I' for Inactive)
REMARK    1  A    between atoms: N_2  and  C_4
REMARK    2  A    between atoms: C_4  and  C_5
REMARK    3  A    between atoms: C_5  and  O_6
REMARK    4  A    between atoms: O_6  and  C_7
REMARK    5  A    between atoms: C_12  and  C_13
REMARK    6  A    between atoms: C_13  and  C_14
REMARK                            x       y       z     vdW  Elec       q    Type
REMARK                         _______ _______ _______ _____ _____    ______ ____
ROOT
ATOM      1  C   UNL     1     -11.181  16.069  68.583  0.00  0.00    +0.135 A 
ATOM      2  C   UNL     1     -11.093  15.259  67.455  0.00  0.00    +0.016 A 
ATOM      3  C   UNL     1     -10.565  15.747  66.265  0.00  0.00    -0.001 A 
ATOM      4  C   UNL     1     -10.159  17.072  66.165  0.00  0.00    -0.000 A 
ATOM      5  C   UNL     1     -10.014  17.785  67.336  0.00  0.00    +0.003 A 
ATOM      6  C   UNL     1     -10.365  17.194  68.545  0.00  0.00    +0.037 A 
ENDROOT
BRANCH   2   7
ATOM      7  C   UNL     1     -11.997  14.066  67.463  0.00  0.00    +0.056 C 
BRANCH   7   8
ATOM      8  C   UNL     1     -11.723  13.189  66.302  0.00  0.00    -0.018 A 
ATOM      9  C   UNL     1     -10.626  12.370  66.287  0.00  0.00    -0.004 A 
ATOM     10  C   UNL     1     -10.207  11.822  65.092  0.00  0.00    -0.000 A 
ATOM     11  C   UNL     1     -10.848  12.154  63.926  0.00  0.00    -0.000 A 
ATOM     12  C   UNL     1     -12.122  12.698  63.997  0.00  0.00    -0.000 A 
ATOM     13  C   UNL     1     -12.570  13.195  65.208  0.00  0.00    -0.004 A 
ENDBRANCH   7   8
ENDBRANCH   2   7
BRANCH   1  14
ATOM     14  O   UNL     1     -12.268  15.982  69.459  0.00  0.00    -0.474 OA
BRANCH  14  15
ATOM     15  C   UNL     1     -11.986  15.863  70.845  0.00  0.00    +0.223 C 
BRANCH  15  16
ATOM     16  C   UNL     1     -12.493  14.498  71.290  0.00  0.00    +0.120 C 
BRANCH  16  18
ATOM     17  C   UNL     1     -14.754  14.942  71.680  0.00  0.00    +0.090 C 
ATOM     18  N   UNL     1     -13.483  14.676  72.349  0.00  0.00    -0.267 NA
ATOM     19  C   UNL     1     -13.116  15.799  73.207  0.00  0.00    +0.090 C 
ENDBRANCH  16  18
ENDBRANCH  15  16
ENDBRANCH  14  15
ENDBRANCH   1  14
TORSDOF 6
ENDMDL
MODEL 5
REMARK VINA RESULT:      -5.7      3.252      4.904
REMARK  Name = 
REMARK  6 active torsions:
REMARK  status: ('A' for Active; 'I' for Inactive)
REMARK    1  A    between atoms: N_2  and  C_4
REMARK    2  A    between atoms: C_4  and  C_5
REMARK    3  A    between atoms: C_5  and  O_6
REMARK    4  A    between atoms: O_6  and  C_7
REMARK    5  A    between atoms: C_12  and  C_13
REMARK    6  A    between atoms: C_13  and  C_14
REMARK                            x       y       z     vdW  Elec       q    Type
REMARK                         _______ _______ _______ _____ _____    ______ ____
ROOT
ATOM      1  C   UNL     1     -10.110  17.554  66.470  0.00  0.00    +0.135 A 
ATOM      2  C   UNL     1      -9.594  17.657  67.758  0.00  0.00    +0.016 A 
ATOM      3  C   UNL     1      -9.266  18.895  68.298  0.00  0.00    -0.001 A 
ATOM      4  C   UNL     1      -9.400  20.053  67.542  0.00  0.00    -0.000 A 
ATOM      5  C   UNL     1     -10.138  19.972  66.380  0.00  0.00    +0.003 A 
ATOM      6  C   UNL     1     -10.629  18.740  65.964  0.00  0.00    +0.037 A 
ENDROOT
BRANCH   2   7
ATOM      7  C   UNL     1      -8.993  16.398  68.299  0.00  0.00    +0.056 C 
BRANCH   7   8
ATOM      8  C   UNL     1     -10.022  15.568  68.967  0.00  0.00    -0.018 A 
ATOM      9  C   UNL     1     -10.154  14.240  68.664  0.00  0.00    -0.004 A 
ATOM     10  C   UNL     1     -11.304  13.573  69.033  0.00  0.00    -0.000 A 
ATOM     11  C   UNL     1     -12.328  14.258  69.638  0.00  0.00    -0.000 A 
ATOM     12  C   UNL     1     -12.054  15.485  70.224  0.00  0.00    -0.000 A 
ATOM     13  C   UNL     1     -10.873  16.130  69.902  0.00  0.00    -0.004 A 
ENDBRANCH   7   8
ENDBRANCH   2   7
BRANCH   1  14
ATOM     14  O   UNL     1      -9.766  16.488  65.631  0.00  0.00    -0.474 OA
BRANCH  14  15
ATOM     15  C   UNL     1     -10.820  15.686  65.123  0.00  0.00    +0.223 C 
BRANCH  15  16
ATOM     16  C   UNL     1     -10.279  14.270  64.985  0.00  0.00    +0.120 C 
BRANCH  16  18
ATOM     17  C   UNL     1     -11.549  12.706  63.802  0.00  0.00    +0.090 C 
ATOM     18  N   UNL     1     -11.381  13.320  65.116  0.00  0.00    -0.267 NA
ATOM     19  C   UNL     1     -12.605  14.010  65.514  0.00  0.00    +0.090 C 
ENDBRANCH  16  18
ENDBRANCH  15  16
ENDBRANCH  14  15
ENDBRANCH   1  14
TORSDOF 6
ENDMDL
MODEL 6
REMARK VINA RESULT:      -5.7      2.763      3.851
REMARK  Name = 
REMARK  6 active torsions:
REMARK  status: ('A' for Active; 'I' for Inactive)
REMARK    1  A    between atoms: N_2  and  C_4
REMARK    2  A    between atoms: C_4  and  C_5
REMARK    3  A    between atoms: C_5  and  O_6
REMARK    4  A    between atoms: O_6  and  C_7
REMARK    5  A    between atoms: C_12  and  C_13
REMARK    6  A    between atoms: C_13  and  C_14
REMARK                            x       y       z     vdW  Elec       q    Type
REMARK                         _______ _______ _______ _____ _____    ______ ____
ROOT
ATOM      1  C   UNL     1     -10.723  14.578  67.548  0.00  0.00    +0.135 A 
ATOM      2  C   UNL     1     -11.412  14.398  68.743  0.00  0.00    +0.016 A 
ATOM      3  C   UNL     1     -11.767  13.126  69.178  0.00  0.00    -0.001 A 
ATOM      4  C   UNL     1     -11.484  12.010  68.400  0.00  0.00    -0.000 A 
ATOM      5  C   UNL     1     -10.593  12.169  67.360  0.00  0.00    +0.003 A 
ATOM      6  C   UNL     1     -10.094  13.433  67.071  0.00  0.00    +0.037 A 
ENDROOT
BRANCH   2   7
ATOM      7  C   UNL     1     -12.130  15.612  69.246  0.00  0.00    +0.056 C 
BRANCH   7   8
ATOM      8  C   UNL     1     -12.507  15.448  70.669  0.00  0.00    -0.018 A 
ATOM      9  C   UNL     1     -13.799  15.168  71.022  0.00  0.00    -0.004 A 
ATOM     10  C   UNL     1     -14.196  15.347  72.331  0.00  0.00    -0.000 A 
ATOM     11  C   UNL     1     -13.316  15.864  73.248  0.00  0.00    -0.000 A 
ATOM     12  C   UNL     1     -11.959  15.825  72.965  0.00  0.00    -0.000 A 
ATOM     13  C   UNL     1     -11.555  15.587  71.663  0.00  0.00    -0.004 A 
ENDBRANCH   7   8
ENDBRANCH   2   7
BRANCH   1  14
ATOM     14  O   UNL     1     -10.984  15.671  66.714  0.00  0.00    -0.474 OA
BRANCH  14  15
ATOM     15  C   UNL     1      -9.873  16.415  66.240  0.00  0.00    +0.223 C 
BRANCH  15  16
ATOM     16  C   UNL     1      -9.440  17.341  67.368  0.00  0.00    +0.120 C 
BRANCH  16  18
ATOM     17  C   UNL     1     -10.363  19.075  66.102  0.00  0.00    +0.090 C 
ATOM     18  N   UNL     1     -10.356  18.477  67.435  0.00  0.00    -0.267 NA
ATOM     19  C   UNL     1      -9.896  19.446  68.424  0.00  0.00    +0.090 C 
ENDBRANCH  16  18
ENDBRANCH  15  16
ENDBRANCH  14  15
ENDBRANCH   1  14
TORSDOF 6
ENDMDL
MODEL 7
REMARK VINA RESULT:      -5.7      4.215      6.616
REMARK  Name = 
REMARK  6 active torsions:
REMARK  status: ('A' for Active; 'I' for Inactive)
REMARK    1  A    between atoms: N_2  and  C_4
REMARK    2  A    between atoms: C_4  and  C_5
REMARK    3  A    between atoms: C_5  and  O_6
REMARK    4  A    between atoms: O_6  and  C_7
REMARK    5  A    between atoms: C_12  and  C_13
REMARK    6  A    between atoms: C_13  and  C_14
REMARK                            x       y       z     vdW  Elec       q    Type
REMARK                         _______ _______ _______ _____ _____    ______ ____
ROOT
ATOM      1  C   UNL     1     -11.577  15.561  68.500  0.00  0.00    +0.135 A 
ATOM      2  C   UNL     1     -10.303  16.109  68.393  0.00  0.00    +0.016 A 
ATOM      3  C   UNL     1      -9.219  15.326  68.011  0.00  0.00    -0.001 A 
ATOM      4  C   UNL     1      -9.380  13.966  67.775  0.00  0.00    -0.000 A 
ATOM      5  C   UNL     1     -10.667  13.491  67.637  0.00  0.00    +0.003 A 
ATOM      6  C   UNL     1     -11.740  14.354  67.831  0.00  0.00    +0.037 A 
ENDROOT
BRANCH   2   7
ATOM      7  C   UNL     1     -10.101  17.388  69.145  0.00  0.00    +0.056 C 
BRANCH   7   8
ATOM      8  C   UNL     1      -9.688  18.476  68.229  0.00  0.00    -0.018 A 
ATOM      9  C   UNL     1     -10.549  18.958  67.281  0.00  0.00    -0.004 A 
ATOM     10  C   UNL     1     -10.054  19.718  66.241  0.00  0.00    -0.000 A 
ATOM     11  C   UNL     1      -8.703  19.928  66.130  0.00  0.00    -0.000 A 
ATOM     12  C   UNL     1      -7.904  19.727  67.246  0.00  0.00    -0.000 A 
ATOM     13  C   UNL     1      -8.416  19.016  68.316  0.00  0.00    -0.004 A 
ENDBRANCH   7   8
ENDBRANCH   2   7
BRANCH   1  14
ATOM     14  O   UNL     1     -12.462  15.966  69.506  0.00  0.00    -0.474 OA
BRANCH  14  15
ATOM     15  C   UNL     1     -12.666  15.081  70.596  0.00  0.00    +0.223 C 
BRANCH  15  16
ATOM     16  C   UNL     1     -12.561  15.907  71.870  0.00  0.00    +0.120 C 
BRANCH  16  18
ATOM     17  C   UNL     1     -12.408  15.262  74.111  0.00  0.00    +0.090 C 
ATOM     18  N   UNL     1     -13.284  15.229  72.942  0.00  0.00    -0.267 NA
ATOM     19  C   UNL     1     -13.577  13.849  72.568  0.00  0.00    +0.090 C 
ENDBRANCH  16  18
ENDBRANCH  15  16
ENDBRANCH  14  15
ENDBRANCH   1  14
TORSDOF 6
ENDMDL
MODEL 8
REMARK VINA RESULT:      -5.7      4.732      6.905
REMARK  Name = 
REMARK  6 active torsions:
REMARK  status: ('A' for Active; 'I' for Inactive)
REMARK    1  A    between atoms: N_2  and  C_4
REMARK    2  A    between atoms: C_4  and  C_5
REMARK    3  A    between atoms: C_5  and  O_6
REMARK    4  A    between atoms: O_6  and  C_7
REMARK    5  A    between atoms: C_12  and  C_13
REMARK    6  A    between atoms: C_13  and  C_14
REMARK                            x       y       z     vdW  Elec       q    Type
REMARK                         _______ _______ _______ _____ _____    ______ ____
ROOT
ATOM      1  C   UNL     1     -10.956  16.297  67.852  0.00  0.00    +0.135 A 
ATOM      2  C   UNL     1     -10.266  17.229  67.084  0.00  0.00    +0.016 A 
ATOM      3  C   UNL     1      -9.174  16.850  66.310  0.00  0.00    -0.001 A 
ATOM      4  C   UNL     1      -8.719  15.537  66.330  0.00  0.00    -0.000 A 
ATOM      5  C   UNL     1      -9.547  14.584  66.883  0.00  0.00    +0.003 A 
ATOM      6  C   UNL     1     -10.741  14.975  67.478  0.00  0.00    +0.037 A 
ENDROOT
BRANCH   2   7
ATOM      7  C   UNL     1     -10.455  18.654  67.501  0.00  0.00    +0.056 C 
BRANCH   7   8
ATOM      8  C   UNL     1      -9.157  19.280  67.842  0.00  0.00    -0.018 A 
ATOM      9  C   UNL     1      -8.677  20.336  67.117  0.00  0.00    -0.004 A 
ATOM     10  C   UNL     1      -7.347  20.685  67.228  0.00  0.00    -0.000 A 
ATOM     11  C   UNL     1      -6.506  19.933  68.009  0.00  0.00    -0.000 A 
ATOM     12  C   UNL     1      -7.057  19.100  68.971  0.00  0.00    -0.000 A 
ATOM     13  C   UNL     1      -8.405  18.795  68.898  0.00  0.00    -0.004 A 
ENDBRANCH   7   8
ENDBRANCH   2   7
BRANCH   1  14
ATOM     14  O   UNL     1     -11.471  16.628  69.110  0.00  0.00    -0.474 OA
BRANCH  14  15
ATOM     15  C   UNL     1     -12.072  15.589  69.867  0.00  0.00    +0.223 C 
BRANCH  15  16
ATOM     16  C   UNL     1     -11.880  15.937  71.336  0.00  0.00    +0.120 C 
BRANCH  16  18
ATOM     17  C   UNL     1     -12.943  15.850  73.416  0.00  0.00    +0.090 C 
ATOM     18  N   UNL     1     -13.186  16.017  71.985  0.00  0.00    -0.267 NA
ATOM     19  C   UNL     1     -14.066  14.961  71.494  0.00  0.00    +0.090 C 
ENDBRANCH  16  18
ENDBRANCH  15  16
ENDBRANCH  14  15
ENDBRANCH   1  14
TORSDOF 6
ENDMDL
MODEL 9
REMARK VINA RESULT:      -5.6      3.385      4.632
REMARK  Name = 
REMARK  6 active torsions:
REMARK  status: ('A' for Active; 'I' for Inactive)
REMARK    1  A    between atoms: N_2  and  C_4
REMARK    2  A    between atoms: C_4  and  C_5
REMARK    3  A    between atoms: C_5  and  O_6
REMARK    4  A    between atoms: O_6  and  C_7
REMARK    5  A    between atoms: C_12  and  C_13
REMARK    6  A    between atoms: C_13  and  C_14
REMARK                            x       y       z     vdW  Elec       q    Type
REMARK                         _______ _______ _______ _____ _____    ______ ____
ROOT
ATOM      1  C   UNL     1     -11.109  14.781  67.447  0.00  0.00    +0.135 A 
ATOM      2  C   UNL     1     -10.070  15.643  67.783  0.00  0.00    +0.016 A 
ATOM      3  C   UNL     1     -10.052  16.296  69.011  0.00  0.00    -0.001 A 
ATOM      4  C   UNL     1     -11.102  16.139  69.908  0.00  0.00    -0.000 A 
ATOM      5  C   UNL     1     -11.985  15.104  69.680  0.00  0.00    +0.003 A 
ATOM      6  C   UNL     1     -11.855  14.332  68.532  0.00  0.00    +0.037 A 
ENDROOT
BRANCH   2   7
ATOM      7  C   UNL     1      -9.285  16.167  66.622  0.00  0.00    +0.056 C 
BRANCH   7   8
ATOM      8  C   UNL     1      -9.285  17.648  66.611  0.00  0.00    -0.018 A 
ATOM      9  C   UNL     1      -8.179  18.351  67.008  0.00  0.00    -0.004 A 
ATOM     10  C   UNL     1      -8.302  19.692  67.308  0.00  0.00    -0.000 A 
ATOM     11  C   UNL     1      -9.536  20.291  67.269  0.00  0.00    -0.000 A 
ATOM     12  C   UNL     1     -10.555  19.672  66.562  0.00  0.00    -0.000 A 
ATOM     13  C   UNL     1     -10.412  18.342  66.208  0.00  0.00    -0.004 A 
ENDBRANCH   7   8
ENDBRANCH   2   7
BRANCH   1  14
ATOM     14  O   UNL     1     -11.602  14.709  66.140  0.00  0.00    -0.474 OA
BRANCH  14  15
ATOM     15  C   UNL     1     -11.697  13.425  65.544  0.00  0.00    +0.223 C 
BRANCH  15  16
ATOM     16  C   UNL     1     -10.541  13.300  64.562  0.00  0.00    +0.120 C 
BRANCH  16  18
ATOM     17  C   UNL     1     -12.336  12.247  63.500  0.00  0.00    +0.090 C 
ATOM     18  N   UNL     1     -10.877  12.302  63.550  0.00  0.00    -0.267 NA
ATOM     19  C   UNL     1     -10.333  10.999  63.916  0.00  0.00    +0.090 C 
ENDBRANCH  16  18
ENDBRANCH  15  16
ENDBRANCH  14  15
ENDBRANCH   1  14
TORSDOF 6
ENDMDL
