MODEL 1
REMARK VINA RESULT:      -7.1      0.000      0.000
REMARK  Name = 
REMARK  7 active torsions:
REMARK  status: ('A' for Active; 'I' for Inactive)
REMARK    1  A    between atoms: N_2  and  C_3
REMARK    2  A    between atoms: C_3  and  C_5
REMARK    3  A    between atoms: C_10  and  O_11
REMARK    4  A    between atoms: O_11  and  C_12
REMARK    5  A    between atoms: C_15  and  O_16
REMARK    6  A    between atoms: O_16  and  C_17
REMARK    7  A    between atoms: C_23  and  N_24
REMARK                            x       y       z     vdW  Elec       q    Type
REMARK                         _______ _______ _______ _____ _____    ______ ____
ROOT
ATOM      1  C   UNL     1     -10.625  13.984  67.264  0.00  0.00    +0.168 C 
ATOM      2  C   UNL     1     -11.992  14.640  68.068  0.00  0.00    +0.123 C 
ATOM      3  N   UNL     1     -11.695  13.741  69.347  0.00  0.00    -0.130 NA
ATOM      4  C   UNL     1     -11.635  15.967  68.774  0.00  0.00    +0.043 C 
ATOM      5  C   UNL     1     -10.290  16.609  69.213  0.00  0.00    +0.123 C 
ATOM      6  N   UNL     1      -9.694  15.349  69.936  0.00  0.00    -0.130 NA
ATOM      7  C   UNL     1      -9.737  16.388  67.600  0.00  0.00    +0.168 C 
ATOM      8  C   UNL     1      -9.345  14.789  68.004  0.00  0.00    +0.209 C 
ATOM      9  O   UNL     1      -8.462  14.637  66.798  0.00  0.00    -0.218 OA
ENDROOT
BRANCH   1  10
ATOM     10  O   UNL     1     -10.748  14.786  66.016  0.00  0.00    -0.328 OA
BRANCH  10  13
ATOM     11  C   UNL     1     -10.201  11.735  64.542  0.00  0.00    +0.134 C 
ATOM     12  O   UNL     1     -10.859  12.504  65.663  0.00  0.00    -0.331 OA
ATOM     13  C   UNL     1     -10.608  13.787  64.868  0.00  0.00    +0.253 C 
ATOM     14  C   UNL     1     -12.199  13.930  64.212  0.00  0.00    +0.148 C 
ATOM     15  N   UNL     1     -13.011  12.973  65.122  0.00  0.00    -0.128 NA
ATOM     16  C   UNL     1     -11.896  12.734  63.143  0.00  0.00    +0.027 C 
ATOM     17  C   UNL     1     -11.673  11.429  63.889  0.00  0.00    +0.033 C 
BRANCH  11  18
ATOM     18  C   UNL     1     -10.019  10.240  65.364  0.00  0.00    +0.100 C 
ATOM     19  C   UNL     1      -9.045   9.628  64.210  0.00  0.00    +0.021 C 
BRANCH  18  21
ATOM     20  C   UNL     1      -8.980   9.725  67.358  0.00  0.00    +0.107 C 
ATOM     21  N   UNL     1      -8.827  10.637  66.280  0.00  0.00    -0.215 NA
ENDBRANCH  18  21
ENDBRANCH  11  18
ENDBRANCH  10  13
ENDBRANCH   1  10
BRANCH   7  22
ATOM     22  O   UNL     1      -8.324  16.727  67.783  0.00  0.00    -0.327 OA
BRANCH  22  23
ATOM     23  C   UNL     1      -7.893  18.063  67.290  0.00  0.00    +0.268 C 
ATOM     24  C   UNL     1      -6.293  17.784  67.897  0.00  0.00    +0.226 C 
ATOM     25  O   UNL     1      -5.600  17.448  66.620  0.00  0.00    -0.216 OA
ATOM     26  C   UNL     1      -5.782  19.406  67.782  0.00  0.00    +0.138 C 
ATOM     27  C   UNL     1      -6.893  19.959  66.742  0.00  0.00    +0.171 C 
ATOM     28  O   UNL     1      -7.883  20.588  67.345  0.00  0.00    -0.222 OA
ATOM     29  C   UNL     1      -5.990  21.079  66.183  0.00  0.00    +0.037 C 
ATOM     30  C   UNL     1      -7.138  19.077  65.614  0.00  0.00    +0.176 C 
ATOM     31  O   UNL     1      -7.563  17.753  65.837  0.00  0.00    -0.326 OA
BRANCH  26  32
ATOM     32  N   UNL     1      -6.581  19.791  69.077  0.00  0.00    -0.213 NA
ATOM     33  C   UNL     1      -5.646  20.547  69.906  0.00  0.00    +0.108 C 
ENDBRANCH  26  32
ENDBRANCH  22  23
ENDBRANCH   7  22
TORSDOF 7
ENDMDL
MODEL 2
REMARK VINA RESULT:      -6.8      2.211      4.658
REMARK  Name = 
REMARK  7 active torsions:
REMARK  status: ('A' for Active; 'I' for Inactive)
REMARK    1  A    between atoms: N_2  and  C_3
REMARK    2  A    between atoms: C_3  and  C_5
REMARK    3  A    between atoms: C_10  and  O_11
REMARK    4  A    between atoms: O_11  and  C_12
REMARK    5  A    between atoms: C_15  and  O_16
REMARK    6  A    between atoms: O_16  and  C_17
REMARK    7  A    between atoms: C_23  and  N_24
REMARK                            x       y       z     vdW  Elec       q    Type
REMARK                         _______ _______ _______ _____ _____    ______ ____
ROOT
ATOM      1  C   UNL     1     -11.403  11.472  65.485  0.00  0.00    +0.168 C 
ATOM      2  C   UNL     1     -11.633  12.026  63.877  0.00  0.00    +0.123 C 
ATOM      3  N   UNL     1     -13.211  11.919  64.045  0.00  0.00    -0.130 NA
ATOM      4  C   UNL     1     -11.627  13.569  63.817  0.00  0.00    +0.043 C 
ATOM      5  C   UNL     1     -11.830  14.676  64.888  0.00  0.00    +0.123 C 
ATOM      6  N   UNL     1     -13.137  14.091  65.532  0.00  0.00    -0.130 NA
ATOM      7  C   UNL     1     -10.602  13.908  65.815  0.00  0.00    +0.168 C 
ATOM      8  C   UNL     1     -11.780  12.836  66.398  0.00  0.00    +0.209 C 
ATOM      9  O   UNL     1     -10.905  12.399  67.539  0.00  0.00    -0.218 OA
ENDROOT
BRANCH   1  10
ATOM     10  O   UNL     1      -9.917  11.558  65.494  0.00  0.00    -0.328 OA
BRANCH  10  13
ATOM     11  C   UNL     1      -8.548   8.796  63.983  0.00  0.00    +0.134 C 
ATOM     12  O   UNL     1      -8.489  10.291  64.190  0.00  0.00    -0.331 OA
ATOM     13  C   UNL     1      -9.421  10.116  65.390  0.00  0.00    +0.253 C 
ATOM     14  C   UNL     1      -8.196  10.180  66.606  0.00  0.00    +0.148 C 
ATOM     15  N   UNL     1      -7.001  10.788  65.827  0.00  0.00    -0.128 NA
ATOM     16  C   UNL     1      -7.720   8.660  66.247  0.00  0.00    +0.027 C 
ATOM     17  C   UNL     1      -7.159   8.624  64.834  0.00  0.00    +0.033 C 
BRANCH  11  18
ATOM     18  C   UNL     1      -7.845   8.752  62.419  0.00  0.00    +0.100 C 
ATOM     19  C   UNL     1      -8.244   7.188  62.192  0.00  0.00    +0.021 C 
BRANCH  18  21
ATOM     20  C   UNL     1      -8.952   8.530  60.407  0.00  0.00    +0.107 C 
ATOM     21  N   UNL     1      -9.070   9.271  61.613  0.00  0.00    -0.215 NA
ENDBRANCH  18  21
ENDBRANCH  11  18
ENDBRANCH  10  13
ENDBRANCH   1  10
BRANCH   7  22
ATOM     22  O   UNL     1     -10.742  14.659  67.065  0.00  0.00    -0.327 OA
BRANCH  22  23
ATOM     23  C   UNL     1      -9.696  15.679  67.346  0.00  0.00    +0.268 C 
ATOM     24  C   UNL     1     -10.893  16.740  68.014  0.00  0.00    +0.226 C 
ATOM     25  O   UNL     1     -10.622  16.534  69.466  0.00  0.00    -0.216 OA
ATOM     26  C   UNL     1      -9.912  18.134  67.999  0.00  0.00    +0.138 C 
ATOM     27  C   UNL     1      -8.457  17.432  67.885  0.00  0.00    +0.171 C 
ATOM     28  O   UNL     1      -7.998  17.415  66.649  0.00  0.00    -0.222 OA
ATOM     29  C   UNL     1      -7.707  18.592  68.574  0.00  0.00    +0.037 C 
ATOM     30  C   UNL     1      -8.280  16.293  68.769  0.00  0.00    +0.176 C 
ATOM     31  O   UNL     1      -9.155  15.193  68.684  0.00  0.00    -0.326 OA
BRANCH  26  32
ATOM     32  N   UNL     1     -10.117  18.311  66.453  0.00  0.00    -0.213 NA
ATOM     33  C   UNL     1     -10.459  19.717  66.259  0.00  0.00    +0.108 C 
ENDBRANCH  26  32
ENDBRANCH  22  23
ENDBRANCH   7  22
TORSDOF 7
ENDMDL
MODEL 3
REMARK VINA RESULT:      -6.8      2.337      4.576
REMARK  Name = 
REMARK  7 active torsions:
REMARK  status: ('A' for Active; 'I' for Inactive)
REMARK    1  A    between atoms: N_2  and  C_3
REMARK    2  A    between atoms: C_3  and  C_5
REMARK    3  A    between atoms: C_10  and  O_11
REMARK    4  A    between atoms: O_11  and  C_12
REMARK    5  A    between atoms: C_15  and  O_16
REMARK    6  A    between atoms: O_16  and  C_17
REMARK    7  A    between atoms: C_23  and  N_24
REMARK                            x       y       z     vdW  Elec       q    Type
REMARK                         _______ _______ _______ _____ _____    ______ ____
ROOT
ATOM      1  C   UNL     1     -10.975  12.326  66.783  0.00  0.00    +0.168 C 
ATOM      2  C   UNL     1     -10.862  12.098  65.086  0.00  0.00    +0.123 C 
ATOM      3  N   UNL     1     -12.420  11.789  65.003  0.00  0.00    -0.130 NA
ATOM      4  C   UNL     1     -10.971  13.445  64.338  0.00  0.00    +0.043 C 
ATOM      5  C   UNL     1     -11.515  14.844  64.740  0.00  0.00    +0.123 C 
ATOM      6  N   UNL     1     -12.884  14.360  65.337  0.00  0.00    -0.130 NA
ATOM      7  C   UNL     1     -10.483  14.774  66.113  0.00  0.00    +0.168 C 
ATOM      8  C   UNL     1     -11.671  13.855  66.899  0.00  0.00    +0.209 C 
ATOM      9  O   UNL     1     -11.059  14.106  68.249  0.00  0.00    -0.218 OA
ENDROOT
BRANCH   1  10
ATOM     10  O   UNL     1      -9.547  12.674  67.014  0.00  0.00    -0.328 OA
BRANCH  10  13
ATOM     11  C   UNL     1      -9.869  10.368  69.536  0.00  0.00    +0.134 C 
ATOM     12  O   UNL     1     -10.203  10.748  68.113  0.00  0.00    -0.331 OA
ATOM     13  C   UNL     1      -9.094  11.800  68.183  0.00  0.00    +0.253 C 
ATOM     14  C   UNL     1      -7.890  10.877  67.358  0.00  0.00    +0.148 C 
ATOM     15  N   UNL     1      -8.739   9.768  66.685  0.00  0.00    -0.128 NA
ATOM     16  C   UNL     1      -7.648   9.955  68.684  0.00  0.00    +0.027 C 
ATOM     17  C   UNL     1      -8.908   9.160  68.986  0.00  0.00    +0.033 C 
BRANCH  11  18
ATOM     18  C   UNL     1     -11.257   9.409  69.848  0.00  0.00    +0.100 C 
ATOM     19  C   UNL     1     -10.868   9.207  71.418  0.00  0.00    +0.021 C 
BRANCH  18  21
ATOM     20  C   UNL     1     -13.068   9.973  71.160  0.00  0.00    +0.107 C 
ATOM     21  N   UNL     1     -12.255  10.560  70.155  0.00  0.00    -0.215 NA
ENDBRANCH  18  21
ENDBRANCH  11  18
ENDBRANCH  10  13
ENDBRANCH   1  10
BRANCH   7  22
ATOM     22  O   UNL     1     -10.978  15.944  66.844  0.00  0.00    -0.327 OA
BRANCH  22  23
ATOM     23  C   UNL     1      -9.953  16.790  67.512  0.00  0.00    +0.268 C 
ATOM     24  C   UNL     1     -10.180  18.028  66.319  0.00  0.00    +0.226 C 
ATOM     25  O   UNL     1     -11.013  18.980  67.108  0.00  0.00    -0.216 OA
ATOM     26  C   UNL     1      -8.766  18.898  66.705  0.00  0.00    +0.138 C 
ATOM     27  C   UNL     1      -8.488  18.306  68.186  0.00  0.00    +0.171 C 
ATOM     28  O   UNL     1      -7.583  17.347  68.187  0.00  0.00    -0.222 OA
ATOM     29  C   UNL     1      -7.740  19.562  68.681  0.00  0.00    +0.037 C 
ATOM     30  C   UNL     1      -9.674  18.222  69.021  0.00  0.00    +0.176 C 
ATOM     31  O   UNL     1     -10.782  17.465  68.595  0.00  0.00    -0.326 OA
BRANCH  26  32
ATOM     32  N   UNL     1      -7.869  17.853  65.952  0.00  0.00    -0.213 NA
ATOM     33  C   UNL     1      -6.785  18.624  65.352  0.00  0.00    +0.108 C 
ENDBRANCH  26  32
ENDBRANCH  22  23
ENDBRANCH   7  22
TORSDOF 7
ENDMDL
MODEL 4
REMARK VINA RESULT:      -6.7      2.246      4.415
REMARK  Name = 
REMARK  7 active torsions:
REMARK  status: ('A' for Active; 'I' for Inactive)
REMARK    1  A    between atoms: N_2  and  C_3
REMARK    2  A    between atoms: C_3  and  C_5
REMARK    3  A    between atoms: C_10  and  O_11
REMARK    4  A    between atoms: O_11  and  C_12
REMARK    5  A    between atoms: C_15  and  O_16
REMARK    6  A    between atoms: O_16  and  C_17
REMARK    7  A    between atoms: C_23  and  N_24
REMARK                            x       y       z     vdW  Elec       q    Type
REMARK                         _______ _______ _______ _____ _____    ______ ____
ROOT
ATOM      1  C   UNL     1     -11.970  12.073  66.212  0.00  0.00    +0.168 C 
ATOM      2  C   UNL     1     -11.255  11.870  64.666  0.00  0.00    +0.123 C 
ATOM      3  N   UNL     1     -12.636  12.224  63.959  0.00  0.00    -0.130 NA
ATOM      4  C   UNL     1     -10.553  13.167  64.206  0.00  0.00    +0.043 C 
ATOM      5  C   UNL     1     -10.673  14.653  64.643  0.00  0.00    +0.123 C 
ATOM      6  N   UNL     1     -12.239  14.750  64.591  0.00  0.00    -0.130 NA
ATOM      7  C   UNL     1     -10.402  14.128  66.257  0.00  0.00    +0.168 C 
ATOM      8  C   UNL     1     -12.052  13.748  66.359  0.00  0.00    +0.209 C 
ATOM      9  O   UNL     1     -12.007  13.688  67.860  0.00  0.00    -0.218 OA
ENDROOT
BRANCH   1  10
ATOM     10  O   UNL     1     -10.745  11.803  67.014  0.00  0.00    -0.328 OA
BRANCH  10  13
ATOM     11  C   UNL     1     -10.016   8.462  67.315  0.00  0.00    +0.134 C 
ATOM     12  O   UNL     1      -9.487   9.874  67.222  0.00  0.00    -0.331 OA
ATOM     13  C   UNL     1     -10.899  10.373  67.533  0.00  0.00    +0.253 C 
ATOM     14  C   UNL     1     -10.637  10.684  69.212  0.00  0.00    +0.148 C 
ATOM     15  N   UNL     1      -9.089  10.690  69.300  0.00  0.00    -0.128 NA
ATOM     16  C   UNL     1     -10.698   9.086  69.545  0.00  0.00    +0.027 C 
ATOM     17  C   UNL     1      -9.528   8.383  68.877  0.00  0.00    +0.033 C 
BRANCH  11  18
ATOM     18  C   UNL     1      -8.661   7.664  66.629  0.00  0.00    +0.100 C 
ATOM     19  C   UNL     1      -9.502   6.296  66.350  0.00  0.00    +0.021 C 
BRANCH  18  21
ATOM     20  C   UNL     1      -7.768   7.487  64.510  0.00  0.00    +0.107 C 
ATOM     21  N   UNL     1      -8.827   8.167  65.167  0.00  0.00    -0.215 NA
ENDBRANCH  18  21
ENDBRANCH  11  18
ENDBRANCH  10  13
ENDBRANCH   1  10
BRANCH   7  22
ATOM     22  O   UNL     1     -10.699  15.375  66.967  0.00  0.00    -0.327 OA
BRANCH  22  23
ATOM     23  C   UNL     1      -9.529  16.197  67.379  0.00  0.00    +0.268 C 
ATOM     24  C   UNL     1     -10.566  17.227  68.312  0.00  0.00    +0.226 C 
ATOM     25  O   UNL     1     -10.268  16.704  69.677  0.00  0.00    -0.216 OA
ATOM     26  C   UNL     1      -9.427  18.479  68.512  0.00  0.00    +0.138 C 
ATOM     27  C   UNL     1      -8.072  17.660  68.176  0.00  0.00    +0.171 C 
ATOM     28  O   UNL     1      -7.663  17.842  66.935  0.00  0.00    -0.222 OA
ATOM     29  C   UNL     1      -7.164  18.568  69.032  0.00  0.00    +0.037 C 
ATOM     30  C   UNL     1      -7.999  16.354  68.808  0.00  0.00    +0.176 C 
ATOM     31  O   UNL     1      -9.002  15.396  68.561  0.00  0.00    -0.326 OA
BRANCH  26  32
ATOM     32  N   UNL     1      -9.667  18.986  67.045  0.00  0.00    -0.213 NA
ATOM     33  C   UNL     1      -9.861  20.428  67.153  0.00  0.00    +0.108 C 
ENDBRANCH  26  32
ENDBRANCH  22  23
ENDBRANCH   7  22
TORSDOF 7
ENDMDL
MODEL 5
REMARK VINA RESULT:      -6.7      1.988      4.264
REMARK  Name = 
REMARK  7 active torsions:
REMARK  status: ('A' for Active; 'I' for Inactive)
REMARK    1  A    between atoms: N_2  and  C_3
REMARK    2  A    between atoms: C_3  and  C_5
REMARK    3  A    between atoms: C_10  and  O_11
REMARK    4  A    between atoms: O_11  and  C_12
REMARK    5  A    between atoms: C_15  and  O_16
REMARK    6  A    between atoms: O_16  and  C_17
REMARK    7  A    between atoms: C_23  and  N_24
REMARK                            x       y       z     vdW  Elec       q    Type
REMARK                         _______ _______ _______ _____ _____    ______ ____
ROOT
ATOM      1  C   UNL     1     -11.264  12.022  65.984  0.00  0.00    +0.168 C 
ATOM      2  C   UNL     1     -11.609  11.962  64.304  0.00  0.00    +0.123 C 
ATOM      3  N   UNL     1     -13.171  11.965  64.605  0.00  0.00    -0.130 NA
ATOM      4  C   UNL     1     -11.607  13.378  63.687  0.00  0.00    +0.043 C 
ATOM      5  C   UNL     1     -11.732  14.802  64.294  0.00  0.00    +0.123 C 
ATOM      6  N   UNL     1     -12.989  14.526  65.193  0.00  0.00    -0.130 NA
ATOM      7  C   UNL     1     -10.441  14.390  65.352  0.00  0.00    +0.168 C 
ATOM      8  C   UNL     1     -11.574  13.634  66.362  0.00  0.00    +0.209 C 
ATOM      9  O   UNL     1     -10.618  13.617  67.522  0.00  0.00    -0.218 OA
ENDROOT
BRANCH   1  10
ATOM     10  O   UNL     1      -9.781  12.066  65.862  0.00  0.00    -0.328 OA
BRANCH  10  13
ATOM     11  C   UNL     1      -9.945  10.137  68.697  0.00  0.00    +0.134 C 
ATOM     12  O   UNL     1     -10.547  10.473  67.353  0.00  0.00    -0.331 OA
ATOM     13  C   UNL     1      -9.248  11.203  67.005  0.00  0.00    +0.253 C 
ATOM     14  C   UNL     1      -8.552   9.935  66.063  0.00  0.00    +0.148 C 
ATOM     15  N   UNL     1      -9.781   9.033  65.779  0.00  0.00    -0.128 NA
ATOM     16  C   UNL     1      -8.186   9.093  67.414  0.00  0.00    +0.027 C 
ATOM     17  C   UNL     1      -9.469   8.680  68.118  0.00  0.00    +0.033 C 
BRANCH  11  18
ATOM     18  C   UNL     1     -11.382   9.600  69.465  0.00  0.00    +0.100 C 
ATOM     19  C   UNL     1     -10.663   9.493  70.923  0.00  0.00    +0.021 C 
BRANCH  18  21
ATOM     20  C   UNL     1     -12.646  10.749  71.015  0.00  0.00    +0.107 C 
ATOM     21  N   UNL     1     -11.999  10.994  69.775  0.00  0.00    -0.215 NA
ENDBRANCH  18  21
ENDBRANCH  11  18
ENDBRANCH  10  13
ENDBRANCH   1  10
BRANCH   7  22
ATOM     22  O   UNL     1     -10.489  15.546  66.250  0.00  0.00    -0.327 OA
BRANCH  22  23
ATOM     23  C   UNL     1      -9.284  16.419  66.273  0.00  0.00    +0.268 C 
ATOM     24  C   UNL     1      -9.725  17.008  67.842  0.00  0.00    +0.226 C 
ATOM     25  O   UNL     1      -8.772  16.222  68.677  0.00  0.00    -0.216 OA
ATOM     26  C   UNL     1      -8.660  18.339  67.829  0.00  0.00    +0.138 C 
ATOM     27  C   UNL     1      -7.647  17.855  66.664  0.00  0.00    +0.171 C 
ATOM     28  O   UNL     1      -7.922  18.399  65.494  0.00  0.00    -0.222 OA
ATOM     29  C   UNL     1      -6.445  18.659  67.204  0.00  0.00    +0.037 C 
ATOM     30  C   UNL     1      -7.245  16.463  66.770  0.00  0.00    +0.176 C 
ATOM     31  O   UNL     1      -8.221  15.447  66.765  0.00  0.00    -0.326 OA
BRANCH  26  32
ATOM     32  N   UNL     1      -9.614  19.145  66.877  0.00  0.00    -0.213 NA
ATOM     33  C   UNL     1      -9.708  20.482  67.453  0.00  0.00    +0.108 C 
ENDBRANCH  26  32
ENDBRANCH  22  23
ENDBRANCH   7  22
TORSDOF 7
ENDMDL
MODEL 6
REMARK VINA RESULT:      -6.5      2.335      8.142
REMARK  Name = 
REMARK  7 active torsions:
REMARK  status: ('A' for Active; 'I' for Inactive)
REMARK    1  A    between atoms: N_2  and  C_3
REMARK    2  A    between atoms: C_3  and  C_5
REMARK    3  A    between atoms: C_10  and  O_11
REMARK    4  A    between atoms: O_11  and  C_12
REMARK    5  A    between atoms: C_15  and  O_16
REMARK    6  A    between atoms: O_16  and  C_17
REMARK    7  A    between atoms: C_23  and  N_24
REMARK                            x       y       z     vdW  Elec       q    Type
REMARK                         _______ _______ _______ _____ _____    ______ ____
ROOT
ATOM      1  C   UNL     1      -7.261  18.870  67.155  0.00  0.00    +0.168 C 
ATOM      2  C   UNL     1      -8.033  19.830  68.350  0.00  0.00    +0.123 C 
ATOM      3  N   UNL     1      -8.224  21.014  67.304  0.00  0.00    -0.130 NA
ATOM      4  C   UNL     1      -9.541  19.504  68.433  0.00  0.00    +0.043 C 
ATOM      5  C   UNL     1     -10.533  18.809  67.461  0.00  0.00    +0.123 C 
ATOM      6  N   UNL     1     -10.149  19.619  66.171  0.00  0.00    -0.130 NA
ATOM      7  C   UNL     1      -9.434  17.489  67.392  0.00  0.00    +0.168 C 
ATOM      8  C   UNL     1      -8.557  18.343  66.218  0.00  0.00    +0.209 C 
ATOM      9  O   UNL     1      -7.825  17.106  65.779  0.00  0.00    -0.218 OA
ENDROOT
BRANCH   1  10
ATOM     10  O   UNL     1      -7.048  17.666  68.002  0.00  0.00    -0.328 OA
BRANCH  10  13
ATOM     11  C   UNL     1      -3.822  18.263  69.013  0.00  0.00    +0.134 C 
ATOM     12  O   UNL     1      -5.272  18.128  69.411  0.00  0.00    -0.331 OA
ATOM     13  C   UNL     1      -5.533  17.464  68.057  0.00  0.00    +0.253 C 
ATOM     14  C   UNL     1      -5.515  15.833  68.626  0.00  0.00    +0.148 C 
ATOM     15  N   UNL     1      -5.678  16.025  70.156  0.00  0.00    -0.128 NA
ATOM     16  C   UNL     1      -3.887  15.864  68.747  0.00  0.00    +0.027 C 
ATOM     17  C   UNL     1      -3.475  16.873  69.808  0.00  0.00    +0.033 C 
BRANCH  11  18
ATOM     18  C   UNL     1      -3.343  19.343  70.257  0.00  0.00    +0.100 C 
ATOM     19  C   UNL     1      -1.938  19.707  69.515  0.00  0.00    +0.021 C 
BRANCH  18  21
ATOM     20  C   UNL     1      -4.158  21.400  70.907  0.00  0.00    +0.107 C 
ATOM     21  N   UNL     1      -4.053  20.620  69.725  0.00  0.00    -0.215 NA
ENDBRANCH  18  21
ENDBRANCH  11  18
ENDBRANCH  10  13
ENDBRANCH   1  10
BRANCH   7  22
ATOM     22  O   UNL     1     -10.046  16.724  66.303  0.00  0.00    -0.327 OA
BRANCH  22  23
ATOM     23  C   UNL     1     -10.729  15.458  66.686  0.00  0.00    +0.268 C 
ATOM     24  C   UNL     1      -9.659  14.557  65.661  0.00  0.00    +0.226 C 
ATOM     25  O   UNL     1      -8.743  13.996  66.695  0.00  0.00    -0.216 OA
ATOM     26  C   UNL     1     -10.586  13.126  65.664  0.00  0.00    +0.138 C 
ATOM     27  C   UNL     1     -11.491  13.402  66.977  0.00  0.00    +0.171 C 
ATOM     28  O   UNL     1     -12.690  13.866  66.679  0.00  0.00    -0.222 OA
ATOM     29  C   UNL     1     -11.710  11.906  67.291  0.00  0.00    +0.037 C 
ATOM     30  C   UNL     1     -10.746  13.918  68.112  0.00  0.00    +0.176 C 
ATOM     31  O   UNL     1     -10.019  15.117  67.989  0.00  0.00    -0.326 OA
BRANCH  26  32
ATOM     32  N   UNL     1     -11.608  13.739  64.642  0.00  0.00    -0.213 NA
ATOM     33  C   UNL     1     -11.776  12.732  63.600  0.00  0.00    +0.108 C 
ENDBRANCH  26  32
ENDBRANCH  22  23
ENDBRANCH   7  22
TORSDOF 7
ENDMDL
MODEL 7
REMARK VINA RESULT:      -6.5      2.795      4.656
REMARK  Name = 
REMARK  7 active torsions:
REMARK  status: ('A' for Active; 'I' for Inactive)
REMARK    1  A    between atoms: N_2  and  C_3
REMARK    2  A    between atoms: C_3  and  C_5
REMARK    3  A    between atoms: C_10  and  O_11
REMARK    4  A    between atoms: O_11  and  C_12
REMARK    5  A    between atoms: C_15  and  O_16
REMARK    6  A    between atoms: O_16  and  C_17
REMARK    7  A    between atoms: C_23  and  N_24
REMARK                            x       y       z     vdW  Elec       q    Type
REMARK                         _______ _______ _______ _____ _____    ______ ____
ROOT
ATOM      1  C   UNL     1     -11.647  14.721  67.502  0.00  0.00    +0.168 C 
ATOM      2  C   UNL     1     -10.502  13.521  67.063  0.00  0.00    +0.123 C 
ATOM      3  N   UNL     1     -10.970  13.603  65.544  0.00  0.00    -0.130 NA
ATOM      4  C   UNL     1      -9.118  14.149  66.793  0.00  0.00    +0.043 C 
ATOM      5  C   UNL     1      -8.650  15.597  66.476  0.00  0.00    +0.123 C 
ATOM      6  N   UNL     1      -9.694  15.898  65.342  0.00  0.00    -0.130 NA
ATOM      7  C   UNL     1      -9.497  16.105  67.883  0.00  0.00    +0.168 C 
ATOM      8  C   UNL     1     -10.917  16.138  66.958  0.00  0.00    +0.209 C 
ATOM      9  O   UNL     1     -11.633  16.980  67.976  0.00  0.00    -0.218 OA
ENDROOT
BRANCH   1  10
ATOM     10  O   UNL     1     -11.294  14.788  68.946  0.00  0.00    -0.328 OA
BRANCH  10  13
ATOM     11  C   UNL     1     -12.903  12.354  70.755  0.00  0.00    +0.134 C 
ATOM     12  O   UNL     1     -11.644  13.164  70.556  0.00  0.00    -0.331 OA
ATOM     13  C   UNL     1     -12.457  14.125  69.686  0.00  0.00    +0.253 C 
ATOM     14  C   UNL     1     -12.706  15.331  70.897  0.00  0.00    +0.148 C 
ATOM     15  N   UNL     1     -11.641  14.947  71.956  0.00  0.00    -0.128 NA
ATOM     16  C   UNL     1     -13.835  14.403  71.627  0.00  0.00    +0.027 C 
ATOM     17  C   UNL     1     -13.184  13.140  72.166  0.00  0.00    +0.033 C 
BRANCH  11  18
ATOM     18  C   UNL     1     -12.172  10.958  71.433  0.00  0.00    +0.100 C 
ATOM     19  C   UNL     1     -13.482  10.030  71.147  0.00  0.00    +0.021 C 
BRANCH  18  21
ATOM     20  C   UNL     1     -10.517   9.523  70.711  0.00  0.00    +0.107 C 
ATOM     21  N   UNL     1     -11.433  10.457  70.160  0.00  0.00    -0.215 NA
ENDBRANCH  18  21
ENDBRANCH  11  18
ENDBRANCH  10  13
ENDBRANCH   1  10
BRANCH   7  22
ATOM     22  O   UNL     1      -9.408  17.556  67.704  0.00  0.00    -0.327 OA
BRANCH  22  23
ATOM     23  C   UNL     1      -8.064  18.166  67.889  0.00  0.00    +0.268 C 
ATOM     24  C   UNL     1      -8.369  19.264  66.583  0.00  0.00    +0.226 C 
ATOM     25  O   UNL     1      -8.678  20.496  67.363  0.00  0.00    -0.216 OA
ATOM     26  C   UNL     1      -6.748  19.756  66.392  0.00  0.00    +0.138 C 
ATOM     27  C   UNL     1      -6.162  19.296  67.829  0.00  0.00    +0.171 C 
ATOM     28  O   UNL     1      -5.541  18.134  67.775  0.00  0.00    -0.222 OA
ATOM     29  C   UNL     1      -5.035  20.350  67.846  0.00  0.00    +0.037 C 
ATOM     30  C   UNL     1      -7.015  19.640  68.954  0.00  0.00    +0.176 C 
ATOM     31  O   UNL     1      -8.341  19.168  69.001  0.00  0.00    -0.326 OA
BRANCH  26  32
ATOM     32  N   UNL     1      -6.388  18.423  65.646  0.00  0.00    -0.213 NA
ATOM     33  C   UNL     1      -5.672  18.826  64.441  0.00  0.00    +0.108 C 
ENDBRANCH  26  32
ENDBRANCH  22  23
ENDBRANCH   7  22
TORSDOF 7
ENDMDL
MODEL 8
REMARK VINA RESULT:      -6.5      2.755      4.618
REMARK  Name = 
REMARK  7 active torsions:
REMARK  status: ('A' for Active; 'I' for Inactive)
REMARK    1  A    between atoms: N_2  and  C_3
REMARK    2  A    between atoms: C_3  and  C_5
REMARK    3  A    between atoms: C_10  and  O_11
REMARK    4  A    between atoms: O_11  and  C_12
REMARK    5  A    between atoms: C_15  and  O_16
REMARK    6  A    between atoms: O_16  and  C_17
REMARK    7  A    between atoms: C_23  and  N_24
REMARK                            x       y       z     vdW  Elec       q    Type
REMARK                         _______ _______ _______ _____ _____    ______ ____
ROOT
ATOM      1  C   UNL     1     -10.665  17.698  67.668  0.00  0.00    +0.168 C 
ATOM      2  C   UNL     1     -10.122  16.551  66.513  0.00  0.00    +0.123 C 
ATOM      3  N   UNL     1     -10.481  17.547  65.325  0.00  0.00    -0.130 NA
ATOM      4  C   UNL     1      -8.596  16.661  66.299  0.00  0.00    +0.043 C 
ATOM      5  C   UNL     1      -7.558  17.778  66.599  0.00  0.00    +0.123 C 
ATOM      6  N   UNL     1      -8.357  18.968  65.957  0.00  0.00    -0.130 NA
ATOM      7  C   UNL     1      -8.141  17.790  68.216  0.00  0.00    +0.168 C 
ATOM      8  C   UNL     1      -9.398  18.806  67.705  0.00  0.00    +0.209 C 
ATOM      9  O   UNL     1      -9.714  19.224  69.114  0.00  0.00    -0.218 OA
ENDROOT
BRANCH   1  10
ATOM     10  O   UNL     1     -10.345  16.898  68.881  0.00  0.00    -0.328 OA
BRANCH  10  13
ATOM     11  C   UNL     1     -11.563  13.691  68.774  0.00  0.00    +0.134 C 
ATOM     12  O   UNL     1     -10.476  14.621  69.257  0.00  0.00    -0.331 OA
ATOM     13  C   UNL     1     -11.402  15.795  68.938  0.00  0.00    +0.253 C 
ATOM     14  C   UNL     1     -11.957  16.058  70.552  0.00  0.00    +0.148 C 
ATOM     15  N   UNL     1     -10.906  15.278  71.384  0.00  0.00    -0.128 NA
ATOM     16  C   UNL     1     -12.928  14.749  70.461  0.00  0.00    +0.027 C 
ATOM     17  C   UNL     1     -12.080  13.496  70.317  0.00  0.00    +0.033 C 
BRANCH  11  18
ATOM     18  C   UNL     1     -10.620  12.261  68.685  0.00  0.00    +0.100 C 
ATOM     19  C   UNL     1     -11.762  11.459  67.841  0.00  0.00    +0.021 C 
BRANCH  18  21
ATOM     20  C   UNL     1      -8.684  11.753  67.538  0.00  0.00    +0.107 C 
ATOM     21  N   UNL     1      -9.805  12.615  67.409  0.00  0.00    -0.215 NA
ENDBRANCH  18  21
ENDBRANCH  11  18
ENDBRANCH  10  13
ENDBRANCH   1  10
BRANCH   7  22
ATOM     22  O   UNL     1      -7.448  18.982  68.711  0.00  0.00    -0.327 OA
BRANCH  22  23
ATOM     23  C   UNL     1      -6.017  18.811  69.081  0.00  0.00    +0.268 C 
ATOM     24  C   UNL     1      -5.684  20.441  68.595  0.00  0.00    +0.226 C 
ATOM     25  O   UNL     1      -5.618  21.090  69.936  0.00  0.00    -0.216 OA
ATOM     26  C   UNL     1      -3.989  20.266  68.563  0.00  0.00    +0.138 C 
ATOM     27  C   UNL     1      -3.844  18.938  69.477  0.00  0.00    +0.171 C 
ATOM     28  O   UNL     1      -3.707  17.840  68.758  0.00  0.00    -0.222 OA
ATOM     29  C   UNL     1      -2.418  19.277  69.961  0.00  0.00    +0.037 C 
ATOM     30  C   UNL     1      -4.661  18.954  70.678  0.00  0.00    +0.176 C 
ATOM     31  O   UNL     1      -6.058  19.101  70.575  0.00  0.00    -0.326 OA
BRANCH  26  32
ATOM     32  N   UNL     1      -4.052  19.503  67.193  0.00  0.00    -0.213 NA
ATOM     33  C   UNL     1      -3.067  20.151  66.334  0.00  0.00    +0.108 C 
ENDBRANCH  26  32
ENDBRANCH  22  23
ENDBRANCH   7  22
TORSDOF 7
ENDMDL
MODEL 9
REMARK VINA RESULT:      -6.4      2.084      8.120
REMARK  Name = 
REMARK  7 active torsions:
REMARK  status: ('A' for Active; 'I' for Inactive)
REMARK    1  A    between atoms: N_2  and  C_3
REMARK    2  A    between atoms: C_3  and  C_5
REMARK    3  A    between atoms: C_10  and  O_11
REMARK    4  A    between atoms: O_11  and  C_12
REMARK    5  A    between atoms: C_15  and  O_16
REMARK    6  A    between atoms: O_16  and  C_17
REMARK    7  A    between atoms: C_23  and  N_24
REMARK                            x       y       z     vdW  Elec       q    Type
REMARK                         _______ _______ _______ _____ _____    ______ ____
ROOT
ATOM      1  C   UNL     1      -7.397  16.122  69.037  0.00  0.00    +0.168 C 
ATOM      2  C   UNL     1      -5.893  15.554  68.435  0.00  0.00    +0.123 C 
ATOM      3  N   UNL     1      -5.601  14.809  69.810  0.00  0.00    -0.130 NA
ATOM      4  C   UNL     1      -6.077  14.248  67.631  0.00  0.00    +0.043 C 
ATOM      5  C   UNL     1      -7.209  13.185  67.574  0.00  0.00    +0.123 C 
ATOM      6  N   UNL     1      -7.369  12.982  69.122  0.00  0.00    -0.130 NA
ATOM      7  C   UNL     1      -8.307  14.471  67.268  0.00  0.00    +0.168 C 
ATOM      8  C   UNL     1      -8.369  14.751  68.939  0.00  0.00    +0.209 C 
ATOM      9  O   UNL     1      -9.625  15.567  68.817  0.00  0.00    -0.218 OA
ENDROOT
BRANCH   1  10
ATOM     10  O   UNL     1      -7.828  16.834  67.804  0.00  0.00    -0.328 OA
BRANCH  10  13
ATOM     11  C   UNL     1      -6.545  19.928  68.556  0.00  0.00    +0.134 C 
ATOM     12  O   UNL     1      -6.469  18.700  67.679  0.00  0.00    -0.331 OA
ATOM     13  C   UNL     1      -7.864  18.316  68.175  0.00  0.00    +0.253 C 
ATOM     14  C   UNL     1      -8.733  18.900  66.801  0.00  0.00    +0.148 C 
ATOM     15  N   UNL     1      -7.604  19.055  65.749  0.00  0.00    -0.128 NA
ATOM     16  C   UNL     1      -8.543  20.443  67.302  0.00  0.00    +0.027 C 
ATOM     17  C   UNL     1      -7.068  20.808  67.276  0.00  0.00    +0.033 C 
BRANCH  11  18
ATOM     18  C   UNL     1      -4.893  20.379  68.463  0.00  0.00    +0.100 C 
ATOM     19  C   UNL     1      -4.925  21.115  69.918  0.00  0.00    +0.021 C 
BRANCH  18  21
ATOM     20  C   UNL     1      -2.888  19.305  68.847  0.00  0.00    +0.107 C 
ATOM     21  N   UNL     1      -4.276  19.074  69.041  0.00  0.00    -0.215 NA
ENDBRANCH  18  21
ENDBRANCH  11  18
ENDBRANCH  10  13
ENDBRANCH   1  10
BRANCH   7  22
ATOM     22  O   UNL     1      -9.571  13.742  67.395  0.00  0.00    -0.327 OA
BRANCH  22  23
ATOM     23  C   UNL     1     -10.277  13.413  66.128  0.00  0.00    +0.268 C 
ATOM     24  C   UNL     1     -10.574  11.802  66.696  0.00  0.00    +0.226 C 
ATOM     25  O   UNL     1     -12.008  11.937  67.082  0.00  0.00    -0.216 OA
ATOM     26  C   UNL     1     -11.012  11.164  65.177  0.00  0.00    +0.138 C 
ATOM     27  C   UNL     1     -11.351  12.543  64.400  0.00  0.00    +0.171 C 
ATOM     28  O   UNL     1     -10.353  12.958  63.644  0.00  0.00    -0.222 OA
ATOM     29  C   UNL     1     -12.348  11.888  63.420  0.00  0.00    +0.037 C 
ATOM     30  C   UNL     1     -12.147  13.478  65.176  0.00  0.00    +0.176 C 
ATOM     31  O   UNL     1     -11.675  13.940  66.419  0.00  0.00    -0.326 OA
BRANCH  26  32
ATOM     32  N   UNL     1      -9.510  11.100  64.726  0.00  0.00    -0.213 NA
ATOM     33  C   UNL     1      -9.332   9.780  64.131  0.00  0.00    +0.108 C 
ENDBRANCH  26  32
ENDBRANCH  22  23
ENDBRANCH   7  22
TORSDOF 7
ENDMDL
