MODEL 1
REMARK VINA RESULT:      -6.9      0.000      0.000
REMARK  Name = 
REMARK  2 active torsions:
REMARK  status: ('A' for Active; 'I' for Inactive)
REMARK    1  A    between atoms: C_7  and  N_8
REMARK    2  A    between atoms: C_13  and  S_14
REMARK                            x       y       z     vdW  Elec       q    Type
REMARK                         _______ _______ _______ _____ _____    ______ ____
ROOT
ATOM      1  N   UNL     1     -11.365   9.040  71.113  0.00  0.00    -0.239 N 
ATOM      2  C   UNL     1      -9.888   9.362  70.582  0.00  0.00    +0.173 C 
ATOM      3  C   UNL     1      -9.612   7.758  70.188  0.00  0.00    +0.046 C 
ATOM      4  N   UNL     1     -10.448   9.675  69.112  0.00  0.00    -0.219 NA
ATOM      5  C   UNL     1     -11.335  10.793  69.081  0.00  0.00    +0.072 A 
ATOM      6  C   UNL     1     -12.008  11.239  70.214  0.00  0.00    +0.070 A 
ATOM      7  C   UNL     1     -12.297  12.585  70.416  0.00  0.00    +0.027 A 
ATOM      8  C   UNL     1     -11.903  13.478  69.423  0.00  0.00    +0.136 A 
ATOM      9  C   UNL     1     -11.777  12.958  68.137  0.00  0.00    +0.078 A 
ATOM     10 CL   UNL     1     -11.804  14.098  66.824  0.00  0.00    -0.081 Cl
ATOM     11  C   UNL     1     -11.480  11.609  67.964  0.00  0.00    +0.029 A 
ATOM     12  C   UNL     1     -12.099  10.249  71.292  0.00  0.00    +0.255 C 
ATOM     13  O   UNL     1     -12.883  10.467  72.234  0.00  0.00    -0.269 OA
ENDROOT
BRANCH   1  16
ATOM     14  C   UNL     1     -13.339   7.136  71.108  0.00  0.00    +0.032 C 
ATOM     15  C   UNL     1     -12.213   6.915  71.755  0.00  0.00    -0.008 A 
ATOM     16  C   UNL     1     -11.447   8.029  72.087  0.00  0.00    +0.052 A 
ATOM     17  C   UNL     1     -10.520   7.859  73.109  0.00  0.00    +0.015 A 
ATOM     18  C   UNL     1     -10.134   6.593  73.540  0.00  0.00    +0.001 A 
ATOM     19  C   UNL     1     -10.795   5.474  73.054  0.00  0.00    -0.000 A 
ATOM     20  C   UNL     1     -11.963   5.677  72.333  0.00  0.00    -0.003 A 
ENDBRANCH   1  16
BRANCH   8  21
ATOM     21  S   UNL     1     -11.282  15.082  69.795  0.00  0.00    +0.094 S 
ATOM     22  O   UNL     1     -12.145  16.154  69.167  0.00  0.00    -0.150 OA
ATOM     23  O   UNL     1     -11.243  15.300  71.275  0.00  0.00    -0.150 OA
ATOM     24  N   UNL     1      -9.657  15.281  69.211  0.00  0.00    +0.039 NA
ENDBRANCH   8  21
TORSDOF 2
ENDMDL
MODEL 2
REMARK VINA RESULT:      -6.9      6.391     10.085
REMARK  Name = 
REMARK  2 active torsions:
REMARK  status: ('A' for Active; 'I' for Inactive)
REMARK    1  A    between atoms: C_7  and  N_8
REMARK    2  A    between atoms: C_13  and  S_14
REMARK                            x       y       z     vdW  Elec       q    Type
REMARK                         _______ _______ _______ _____ _____    ______ ____
ROOT
ATOM      1  N   UNL     1      -8.350  17.779  66.714  0.00  0.00    -0.239 N 
ATOM      2  C   UNL     1      -7.367  16.605  66.239  0.00  0.00    +0.173 C 
ATOM      3  C   UNL     1      -6.139  17.143  67.243  0.00  0.00    +0.046 C 
ATOM      4  N   UNL     1      -7.931  15.626  67.378  0.00  0.00    -0.219 NA
ATOM      5  C   UNL     1      -9.317  15.326  67.217  0.00  0.00    +0.072 A 
ATOM      6  C   UNL     1     -10.173  16.141  66.484  0.00  0.00    +0.070 A 
ATOM      7  C   UNL     1     -11.243  15.623  65.761  0.00  0.00    +0.027 A 
ATOM      8  C   UNL     1     -11.441  14.247  65.812  0.00  0.00    +0.136 A 
ATOM      9  C   UNL     1     -10.961  13.594  66.945  0.00  0.00    +0.078 A 
ATOM     10 CL   UNL     1     -11.626  12.024  67.288  0.00  0.00    -0.081 Cl
ATOM     11  C   UNL     1      -9.884  14.131  67.646  0.00  0.00    +0.029 A 
ATOM     12  C   UNL     1      -9.682  17.508  66.284  0.00  0.00    +0.255 C 
ATOM     13  O   UNL     1     -10.475  18.369  65.860  0.00  0.00    -0.269 OA
ENDROOT
BRANCH   1  16
ATOM     14  C   UNL     1      -8.488  19.618  68.743  0.00  0.00    +0.032 C 
ATOM     15  C   UNL     1      -7.594  19.760  67.786  0.00  0.00    -0.008 A 
ATOM     16  C   UNL     1      -7.833  19.080  66.594  0.00  0.00    +0.052 A 
ATOM     17  C   UNL     1      -7.161  19.549  65.471  0.00  0.00    +0.015 A 
ATOM     18  C   UNL     1      -6.071  20.407  65.579  0.00  0.00    +0.001 A 
ATOM     19  C   UNL     1      -5.735  20.935  66.817  0.00  0.00    -0.000 A 
ATOM     20  C   UNL     1      -6.638  20.765  67.857  0.00  0.00    -0.003 A 
ENDBRANCH   1  16
BRANCH   8  21
ATOM     21  S   UNL     1     -11.965  13.320  64.411  0.00  0.00    +0.094 S 
ATOM     22  O   UNL     1     -13.090  12.377  64.778  0.00  0.00    -0.150 OA
ATOM     23  O   UNL     1     -12.436  14.234  63.323  0.00  0.00    -0.150 OA
ATOM     24  N   UNL     1     -10.661  12.379  63.753  0.00  0.00    +0.039 NA
ENDBRANCH   8  21
TORSDOF 2
ENDMDL
MODEL 3
REMARK VINA RESULT:      -6.9      6.249     10.140
REMARK  Name = 
REMARK  2 active torsions:
REMARK  status: ('A' for Active; 'I' for Inactive)
REMARK    1  A    between atoms: C_7  and  N_8
REMARK    2  A    between atoms: C_13  and  S_14
REMARK                            x       y       z     vdW  Elec       q    Type
REMARK                         _______ _______ _______ _____ _____    ______ ____
ROOT
ATOM      1  N   UNL     1      -7.960  17.874  66.627  0.00  0.00    -0.239 N 
ATOM      2  C   UNL     1      -9.383  18.273  67.248  0.00  0.00    +0.173 C 
ATOM      3  C   UNL     1      -9.267  19.839  66.667  0.00  0.00    +0.046 C 
ATOM      4  N   UNL     1     -10.137  17.786  65.918  0.00  0.00    -0.219 NA
ATOM      5  C   UNL     1      -9.981  16.389  65.669  0.00  0.00    +0.072 A 
ATOM      6  C   UNL     1      -8.933  15.652  66.209  0.00  0.00    +0.070 A 
ATOM      7  C   UNL     1      -9.081  14.315  66.567  0.00  0.00    +0.027 A 
ATOM      8  C   UNL     1     -10.324  13.729  66.344  0.00  0.00    +0.136 A 
ATOM      9  C   UNL     1     -11.101  14.290  65.333  0.00  0.00    +0.078 A 
ATOM     10 CL   UNL     1     -12.380  13.304  64.688  0.00  0.00    -0.081 Cl
ATOM     11  C   UNL     1     -10.937  15.632  65.000  0.00  0.00    +0.029 A 
ATOM     12  C   UNL     1      -7.791  16.458  66.652  0.00  0.00    +0.255 C 
ATOM     13  O   UNL     1      -6.722  15.879  66.918  0.00  0.00    -0.269 OA
ENDROOT
BRANCH   1  16
ATOM     14  C   UNL     1      -6.159  18.858  64.809  0.00  0.00    +0.032 C 
ATOM     15  C   UNL     1      -6.313  19.456  65.973  0.00  0.00    -0.008 A 
ATOM     16  C   UNL     1      -6.889  18.706  66.995  0.00  0.00    +0.052 A 
ATOM     17  C   UNL     1      -6.664  19.154  68.291  0.00  0.00    +0.015 A 
ATOM     18  C   UNL     1      -6.193  20.439  68.547  0.00  0.00    +0.001 A 
ATOM     19  C   UNL     1      -5.791  21.244  67.491  0.00  0.00    -0.000 A 
ATOM     20  C   UNL     1      -5.661  20.653  66.243  0.00  0.00    -0.003 A 
ENDBRANCH   1  16
BRANCH   8  21
ATOM     21  S   UNL     1     -11.030  12.570  67.464  0.00  0.00    +0.094 S 
ATOM     22  O   UNL     1     -12.086  13.228  68.327  0.00  0.00    -0.150 OA
ATOM     23  O   UNL     1     -11.656  11.433  66.719  0.00  0.00    -0.150 OA
ATOM     24  N   UNL     1      -9.823  11.887  68.511  0.00  0.00    +0.039 NA
ENDBRANCH   8  21
TORSDOF 2
ENDMDL
MODEL 4
REMARK VINA RESULT:      -6.5      6.459      8.706
REMARK  Name = 
REMARK  2 active torsions:
REMARK  status: ('A' for Active; 'I' for Inactive)
REMARK    1  A    between atoms: C_7  and  N_8
REMARK    2  A    between atoms: C_13  and  S_14
REMARK                            x       y       z     vdW  Elec       q    Type
REMARK                         _______ _______ _______ _____ _____    ______ ____
ROOT
ATOM      1  N   UNL     1      -9.127  16.235  67.819  0.00  0.00    -0.239 N 
ATOM      2  C   UNL     1      -8.057  15.354  68.626  0.00  0.00    +0.173 C 
ATOM      3  C   UNL     1      -8.274  14.044  67.606  0.00  0.00    +0.046 C 
ATOM      4  N   UNL     1      -6.859  15.920  67.720  0.00  0.00    -0.219 NA
ATOM      5  C   UNL     1      -6.676  17.329  67.856  0.00  0.00    +0.072 A 
ATOM      6  C   UNL     1      -7.685  18.168  68.313  0.00  0.00    +0.070 A 
ATOM      7  C   UNL     1      -7.412  19.305  69.068  0.00  0.00    +0.027 A 
ATOM      8  C   UNL     1      -6.076  19.587  69.335  0.00  0.00    +0.136 A 
ATOM      9  C   UNL     1      -5.145  19.091  68.426  0.00  0.00    +0.078 A 
ATOM     10 CL   UNL     1      -3.572  19.835  68.426  0.00  0.00    -0.081 Cl
ATOM     11  C   UNL     1      -5.441  17.947  67.689  0.00  0.00    +0.029 A 
ATOM     12  C   UNL     1      -9.035  17.603  68.212  0.00  0.00    +0.255 C 
ATOM     13  O   UNL     1     -10.010  18.361  68.365  0.00  0.00    -0.269 OA
ENDROOT
BRANCH   1  16
ATOM     14  C   UNL     1     -10.404  16.115  65.396  0.00  0.00    +0.032 C 
ATOM     15  C   UNL     1     -10.739  15.280  66.359  0.00  0.00    -0.008 A 
ATOM     16  C   UNL     1     -10.392  15.644  67.658  0.00  0.00    +0.052 A 
ATOM     17  C   UNL     1     -11.094  15.021  68.682  0.00  0.00    +0.015 A 
ATOM     18  C   UNL     1     -11.847  13.871  68.456  0.00  0.00    +0.001 A 
ATOM     19  C   UNL     1     -12.032  13.418  67.158  0.00  0.00    -0.000 A 
ATOM     20  C   UNL     1     -11.649  14.258  66.122  0.00  0.00    -0.003 A 
ENDBRANCH   1  16
BRANCH   8  21
ATOM     21  S   UNL     1      -5.544  20.242  70.879  0.00  0.00    +0.094 S 
ATOM     22  O   UNL     1      -4.797  21.543  70.686  0.00  0.00    -0.150 OA
ATOM     23  O   UNL     1      -6.716  20.487  71.777  0.00  0.00    -0.150 OA
ATOM     24  N   UNL     1      -4.495  19.132  71.708  0.00  0.00    +0.039 NA
ENDBRANCH   8  21
TORSDOF 2
ENDMDL
MODEL 5
REMARK VINA RESULT:      -6.4      3.349      7.398
REMARK  Name = 
REMARK  2 active torsions:
REMARK  status: ('A' for Active; 'I' for Inactive)
REMARK    1  A    between atoms: C_7  and  N_8
REMARK    2  A    between atoms: C_13  and  S_14
REMARK                            x       y       z     vdW  Elec       q    Type
REMARK                         _______ _______ _______ _____ _____    ______ ____
ROOT
ATOM      1  N   UNL     1     -10.967  12.654  67.495  0.00  0.00    -0.239 N 
ATOM      2  C   UNL     1     -10.913  11.269  66.690  0.00  0.00    +0.173 C 
ATOM      3  C   UNL     1      -9.949  11.931  65.492  0.00  0.00    +0.046 C 
ATOM      4  N   UNL     1      -9.627  10.796  67.527  0.00  0.00    -0.219 NA
ATOM      5  C   UNL     1      -9.894  10.650  68.921  0.00  0.00    +0.072 A 
ATOM      6  C   UNL     1     -10.957  11.293  69.546  0.00  0.00    +0.070 A 
ATOM      7  C   UNL     1     -11.641  10.719  70.613  0.00  0.00    +0.027 A 
ATOM      8  C   UNL     1     -11.204   9.473  71.053  0.00  0.00    +0.136 A 
ATOM      9  C   UNL     1      -9.869   9.162  70.808  0.00  0.00    +0.078 A 
ATOM     10 CL   UNL     1      -9.169   7.891  71.768  0.00  0.00    -0.081 Cl
ATOM     11  C   UNL     1      -9.212   9.745  69.727  0.00  0.00    +0.029 A 
ATOM     12  C   UNL     1     -11.487  12.443  68.806  0.00  0.00    +0.255 C 
ATOM     13  O   UNL     1     -12.265  13.219  69.390  0.00  0.00    -0.269 OA
ENDROOT
BRANCH   1  16
ATOM     14  C   UNL     1      -9.755  15.108  67.662  0.00  0.00    +0.032 C 
ATOM     15  C   UNL     1     -10.481  14.803  66.605  0.00  0.00    -0.008 A 
ATOM     16  C   UNL     1     -11.398  13.765  66.749  0.00  0.00    +0.052 A 
ATOM     17  C   UNL     1     -12.434  13.725  65.824  0.00  0.00    +0.015 A 
ATOM     18  C   UNL     1     -12.380  14.451  64.637  0.00  0.00    +0.001 A 
ATOM     19  C   UNL     1     -11.348  15.355  64.433  0.00  0.00    -0.000 A 
ATOM     20  C   UNL     1     -10.539  15.665  65.517  0.00  0.00    -0.003 A 
ENDBRANCH   1  16
BRANCH   8  21
ATOM     21  S   UNL     1     -12.320   8.223  71.591  0.00  0.00    +0.094 S 
ATOM     22  O   UNL     1     -12.193   6.981  70.736  0.00  0.00    -0.150 OA
ATOM     23  O   UNL     1     -12.050   7.856  73.017  0.00  0.00    -0.150 OA
ATOM     24  N   UNL     1     -13.967   8.770  71.512  0.00  0.00    +0.039 NA
ENDBRANCH   8  21
TORSDOF 2
ENDMDL
MODEL 6
REMARK VINA RESULT:      -6.3      2.639      3.468
REMARK  Name = 
REMARK  2 active torsions:
REMARK  status: ('A' for Active; 'I' for Inactive)
REMARK    1  A    between atoms: C_7  and  N_8
REMARK    2  A    between atoms: C_13  and  S_14
REMARK                            x       y       z     vdW  Elec       q    Type
REMARK                         _______ _______ _______ _____ _____    ______ ____
ROOT
ATOM      1  N   UNL     1     -11.315   9.572  70.232  0.00  0.00    -0.239 N 
ATOM      2  C   UNL     1     -12.798  10.157  70.399  0.00  0.00    +0.173 C 
ATOM      3  C   UNL     1     -12.795   9.863  72.048  0.00  0.00    +0.046 C 
ATOM      4  N   UNL     1     -12.225  11.640  70.616  0.00  0.00    -0.219 NA
ATOM      5  C   UNL     1     -11.527  12.139  69.476  0.00  0.00    +0.072 A 
ATOM      6  C   UNL     1     -10.989  11.298  68.507  0.00  0.00    +0.070 A 
ATOM      7  C   UNL     1     -10.928  11.663  67.166  0.00  0.00    +0.027 A 
ATOM      8  C   UNL     1     -11.411  12.924  66.826  0.00  0.00    +0.136 A 
ATOM      9  C   UNL     1     -11.391  13.886  67.832  0.00  0.00    +0.078 A 
ATOM     10 CL   UNL     1     -11.484  15.549  67.329  0.00  0.00    -0.081 Cl
ATOM     11  C   UNL     1     -11.460  13.493  69.166  0.00  0.00    +0.029 A 
ATOM     12  C   UNL     1     -10.792   9.914  68.950  0.00  0.00    +0.255 C 
ATOM     13  O   UNL     1     -10.099   9.157  68.246  0.00  0.00    -0.269 OA
ENDROOT
BRANCH   1  16
ATOM     14  C   UNL     1      -9.031   8.827  71.555  0.00  0.00    +0.032 C 
ATOM     15  C   UNL     1     -10.142   8.137  71.719  0.00  0.00    -0.008 A 
ATOM     16  C   UNL     1     -11.120   8.275  70.737  0.00  0.00    +0.052 A 
ATOM     17  C   UNL     1     -12.071   7.263  70.667  0.00  0.00    +0.015 A 
ATOM     18  C   UNL     1     -12.248   6.356  71.708  0.00  0.00    +0.001 A 
ATOM     19  C   UNL     1     -11.361   6.356  72.775  0.00  0.00    -0.000 A 
ATOM     20  C   UNL     1     -10.202   7.108  72.650  0.00  0.00    -0.003 A 
ENDBRANCH   1  16
BRANCH   8  21
ATOM     21  S   UNL     1     -12.297  13.219  65.335  0.00  0.00    +0.094 S 
ATOM     22  O   UNL     1     -12.715  11.917  64.689  0.00  0.00    -0.150 OA
ATOM     23  O   UNL     1     -13.520  14.039  65.604  0.00  0.00    -0.150 OA
ATOM     24  N   UNL     1     -11.333  14.106  64.192  0.00  0.00    +0.039 NA
ENDBRANCH   8  21
TORSDOF 2
ENDMDL
MODEL 7
REMARK VINA RESULT:      -6.3      3.899      5.042
REMARK  Name = 
REMARK  2 active torsions:
REMARK  status: ('A' for Active; 'I' for Inactive)
REMARK    1  A    between atoms: C_7  and  N_8
REMARK    2  A    between atoms: C_13  and  S_14
REMARK                            x       y       z     vdW  Elec       q    Type
REMARK                         _______ _______ _______ _____ _____    ______ ____
ROOT
ATOM      1  N   UNL     1      -9.882   9.456  67.141  0.00  0.00    -0.239 N 
ATOM      2  C   UNL     1     -11.013  10.026  68.124  0.00  0.00    +0.173 C 
ATOM      3  C   UNL     1     -10.369   9.212  69.438  0.00  0.00    +0.046 C 
ATOM      4  N   UNL     1     -10.130  11.328  68.440  0.00  0.00    -0.219 NA
ATOM      5  C   UNL     1      -9.899  12.136  67.286  0.00  0.00    +0.072 A 
ATOM      6  C   UNL     1      -9.994  11.631  65.994  0.00  0.00    +0.070 A 
ATOM      7  C   UNL     1     -10.437  12.410  64.930  0.00  0.00    +0.027 A 
ATOM      8  C   UNL     1     -10.767  13.735  65.203  0.00  0.00    +0.136 A 
ATOM      9  C   UNL     1     -10.140  14.315  66.302  0.00  0.00    +0.078 A 
ATOM     10 CL   UNL     1     -10.116  16.054  66.365  0.00  0.00    -0.081 Cl
ATOM     11  C   UNL     1      -9.712  13.513  67.357  0.00  0.00    +0.029 A 
ATOM     12  C   UNL     1      -9.897  10.171  65.907  0.00  0.00    +0.255 C 
ATOM     13  O   UNL     1      -9.726   9.652  64.789  0.00  0.00    -0.269 OA
ENDROOT
BRANCH   1  16
ATOM     14  C   UNL     1      -7.457   8.207  67.415  0.00  0.00    +0.032 C 
ATOM     15  C   UNL     1      -8.569   7.551  67.678  0.00  0.00    -0.008 A 
ATOM     16  C   UNL     1      -9.744   8.058  67.131  0.00  0.00    +0.052 A 
ATOM     17  C   UNL     1     -10.812   7.173  67.035  0.00  0.00    +0.015 A 
ATOM     18  C   UNL     1     -10.830   5.973  67.742  0.00  0.00    +0.001 A 
ATOM     19  C   UNL     1      -9.699   5.571  68.437  0.00  0.00    -0.000 A 
ATOM     20  C   UNL     1      -8.522   6.270  68.212  0.00  0.00    -0.003 A 
ENDBRANCH   1  16
BRANCH   8  21
ATOM     21  S   UNL     1     -12.127  14.542  64.430  0.00  0.00    +0.094 S 
ATOM     22  O   UNL     1     -12.565  13.794  63.190  0.00  0.00    -0.150 OA
ATOM     23  O   UNL     1     -13.286  14.636  65.372  0.00  0.00    -0.150 OA
ATOM     24  N   UNL     1     -11.717  16.166  63.968  0.00  0.00    +0.039 NA
ENDBRANCH   8  21
TORSDOF 2
ENDMDL
MODEL 8
REMARK VINA RESULT:      -6.3      3.769      7.436
REMARK  Name = 
REMARK  2 active torsions:
REMARK  status: ('A' for Active; 'I' for Inactive)
REMARK    1  A    between atoms: C_7  and  N_8
REMARK    2  A    between atoms: C_13  and  S_14
REMARK                            x       y       z     vdW  Elec       q    Type
REMARK                         _______ _______ _______ _____ _____    ______ ____
ROOT
ATOM      1  N   UNL     1     -10.831  12.687  67.563  0.00  0.00    -0.239 N 
ATOM      2  C   UNL     1     -10.688  13.437  68.973  0.00  0.00    +0.173 C 
ATOM      3  C   UNL     1     -11.757  14.641  68.510  0.00  0.00    +0.046 C 
ATOM      4  N   UNL     1     -11.877  12.559  69.598  0.00  0.00    -0.219 NA
ATOM      5  C   UNL     1     -11.573  11.166  69.646  0.00  0.00    +0.072 A 
ATOM      6  C   UNL     1     -10.609  10.587  68.828  0.00  0.00    +0.070 A 
ATOM      7  C   UNL     1      -9.833   9.512  69.251  0.00  0.00    +0.027 A 
ATOM      8  C   UNL     1     -10.073   9.017  70.530  0.00  0.00    +0.136 A 
ATOM      9  C   UNL     1     -11.349   9.224  71.045  0.00  0.00    +0.078 A 
ATOM     10 CL   UNL     1     -11.839   8.204  72.366  0.00  0.00    -0.081 Cl
ATOM     11  C   UNL     1     -12.101  10.313  70.610  0.00  0.00    +0.029 A 
ATOM     12  C   UNL     1     -10.267  11.379  67.643  0.00  0.00    +0.255 C 
ATOM     13  O   UNL     1      -9.606  10.839  66.737  0.00  0.00    -0.269 OA
ENDROOT
BRANCH   1  16
ATOM     14  C   UNL     1     -12.446  12.656  65.348  0.00  0.00    +0.032 C 
ATOM     15  C   UNL     1     -11.659  13.687  65.574  0.00  0.00    -0.008 A 
ATOM     16  C   UNL     1     -10.581  13.482  66.431  0.00  0.00    +0.052 A 
ATOM     17  C   UNL     1      -9.535  14.393  66.338  0.00  0.00    +0.015 A 
ATOM     18  C   UNL     1      -9.688  15.615  65.689  0.00  0.00    +0.001 A 
ATOM     19  C   UNL     1     -10.855  15.874  64.985  0.00  0.00    -0.000 A 
ATOM     20  C   UNL     1     -11.727  14.816  64.767  0.00  0.00    -0.003 A 
ENDBRANCH   1  16
BRANCH   8  21
ATOM     21  S   UNL     1      -8.775   8.454  71.577  0.00  0.00    +0.094 S 
ATOM     22  O   UNL     1      -9.079   8.763  73.026  0.00  0.00    -0.150 OA
ATOM     23  O   UNL     1      -8.584   6.976  71.429  0.00  0.00    -0.150 OA
ATOM     24  N   UNL     1      -7.262   9.204  71.168  0.00  0.00    +0.039 NA
ENDBRANCH   8  21
TORSDOF 2
ENDMDL
MODEL 9
REMARK VINA RESULT:      -6.2      6.873     10.362
REMARK  Name = 
REMARK  2 active torsions:
REMARK  status: ('A' for Active; 'I' for Inactive)
REMARK    1  A    between atoms: C_7  and  N_8
REMARK    2  A    between atoms: C_13  and  S_14
REMARK                            x       y       z     vdW  Elec       q    Type
REMARK                         _______ _______ _______ _____ _____    ______ ____
ROOT
ATOM      1  N   UNL     1      -7.283  18.200  67.262  0.00  0.00    -0.239 N 
ATOM      2  C   UNL     1      -6.605  17.420  66.037  0.00  0.00    +0.173 C 
ATOM      3  C   UNL     1      -5.069  17.638  66.667  0.00  0.00    +0.046 C 
ATOM      4  N   UNL     1      -6.768  16.016  66.798  0.00  0.00    -0.219 NA
ATOM      5  C   UNL     1      -8.131  15.664  67.030  0.00  0.00    +0.072 A 
ATOM      6  C   UNL     1      -9.150  16.610  67.047  0.00  0.00    +0.070 A 
ATOM      7  C   UNL     1     -10.436  16.315  66.606  0.00  0.00    +0.027 A 
ATOM      8  C   UNL     1     -10.675  15.018  66.159  0.00  0.00    +0.136 A 
ATOM      9  C   UNL     1      -9.851  14.023  66.677  0.00  0.00    +0.078 A 
ATOM     10 CL   UNL     1     -10.428  12.386  66.563  0.00  0.00    -0.081 Cl
ATOM     11  C   UNL     1      -8.565  14.345  67.106  0.00  0.00    +0.029 A 
ATOM     12  C   UNL     1      -8.693  17.987  67.262  0.00  0.00    +0.255 C 
ATOM     13  O   UNL     1      -9.539  18.858  67.534  0.00  0.00    -0.269 OA
ENDROOT
BRANCH   1  16
ATOM     14  C   UNL     1      -6.362  18.983  69.723  0.00  0.00    +0.032 C 
ATOM     15  C   UNL     1      -5.981  19.631  68.641  0.00  0.00    -0.008 A 
ATOM     16  C   UNL     1      -6.777  19.488  67.507  0.00  0.00    +0.052 A 
ATOM     17  C   UNL     1      -6.643  20.469  66.532  0.00  0.00    +0.015 A 
ATOM     18  C   UNL     1      -5.557  21.340  66.518  0.00  0.00    +0.001 A 
ATOM     19  C   UNL     1      -4.665  21.339  67.580  0.00  0.00    -0.000 A 
ATOM     20  C   UNL     1      -5.020  20.630  68.720  0.00  0.00    -0.003 A 
ENDBRANCH   1  16
BRANCH   8  21
ATOM     21  S   UNL     1     -11.723  14.676  64.787  0.00  0.00    +0.094 S 
ATOM     22  O   UNL     1     -11.960  15.923  63.965  0.00  0.00    -0.150 OA
ATOM     23  O   UNL     1     -11.112  13.628  63.909  0.00  0.00    -0.150 OA
ATOM     24  N   UNL     1     -13.265  14.066  65.307  0.00  0.00    +0.039 NA
ENDBRANCH   8  21
TORSDOF 2
ENDMDL
