MODEL 1
REMARK VINA RESULT:      -7.1      0.000      0.000
REMARK  Name = 
REMARK  2 active torsions:
REMARK  status: ('A' for Active; 'I' for Inactive)
REMARK    1  A    between atoms: C_24  and  C_25
REMARK    2  A    between atoms: C_25  and  C_27
REMARK                            x       y       z     vdW  Elec       q    Type
REMARK                         _______ _______ _______ _____ _____    ______ ____
ROOT
ATOM      1  C   UNL     1      -7.487   8.806  65.987  0.00  0.00    +0.000 C 
ATOM      2  C   UNL     1      -8.643   7.962  66.757  0.00  0.00    +0.007 C 
ATOM      3  C   UNL     1      -8.485   8.914  68.152  0.00  0.00    +0.060 C 
ATOM      4  C   UNL     1      -9.777   9.843  67.927  0.00  0.00    +0.009 C 
ATOM      5  C   UNL     1      -9.273  10.226  66.446  0.00  0.00    +0.002 C 
ATOM      6  C   UNL     1     -10.737  11.030  66.161  0.00  0.00    +0.020 C 
ATOM      7  C   UNL     1     -10.190  12.373  66.840  0.00  0.00    +0.102 C 
ATOM      8  C   UNL     1     -10.583  12.223  68.430  0.00  0.00    +0.166 C 
ATOM      9  O   UNL     1     -11.785  11.319  68.200  0.00  0.00    -0.222 OA
ATOM     10 CL   UNL     1      -8.480  12.570  66.761  0.00  0.00    -0.113 Cl
ATOM     11  C   UNL     1     -10.920  13.562  66.383  0.00  0.00    +0.052 C 
ATOM     12  C   UNL     1     -11.253  13.607  64.954  0.00  0.00    -0.005 C 
ATOM     13  C   UNL     1     -11.775  14.677  64.435  0.00  0.00    +0.036 C 
ATOM     14  C   UNL     1     -11.160  15.937  64.888  0.00  0.00    +0.195 C 
ATOM     15  C   UNL     1     -10.028  15.797  65.800  0.00  0.00    +0.038 C 
ATOM     16  O   UNL     1     -11.305  16.996  64.232  0.00  0.00    -0.287 OA
ATOM     17  C   UNL     1     -11.866  12.184  64.488  0.00  0.00    +0.180 C 
ATOM     18  F   UNL     1     -11.641  12.486  63.029  0.00  0.00    -0.233 F 
ATOM     19  C   UNL     1     -12.137  13.907  67.238  0.00  0.00    +0.010 C 
ATOM     20  C   UNL     1     -10.012  14.736  66.611  0.00  0.00    -0.018 C 
ATOM     21  C   UNL     1     -10.364  11.492  64.652  0.00  0.00    +0.041 C 
ATOM     22  C   UNL     1     -10.993   9.061  67.935  0.00  0.00    +0.001 C 
ATOM     23  C   UNL     1      -9.535  10.993  68.710  0.00  0.00    +0.035 C 
ATOM     24  C   UNL     1      -9.817   8.778  66.017  0.00  0.00    +0.000 C 
ENDROOT
BRANCH   3  25
ATOM     25  C   UNL     1      -9.256   7.823  69.047  0.00  0.00    +0.183 C 
ATOM     26  O   UNL     1      -9.373   8.132  70.234  0.00  0.00    -0.293 OA
BRANCH  25  27
ATOM     27  C   UNL     1      -8.806   6.405  68.886  0.00  0.00    +0.246 C 
ATOM     28  O   UNL     1      -9.814   5.487  69.093  0.00  0.00    -0.212 OA
ENDBRANCH  25  27
ENDBRANCH   3  25
TORSDOF 2
ENDMDL
MODEL 2
REMARK VINA RESULT:      -7.1      3.845      8.391
REMARK  Name = 
REMARK  2 active torsions:
REMARK  status: ('A' for Active; 'I' for Inactive)
REMARK    1  A    between atoms: C_24  and  C_25
REMARK    2  A    between atoms: C_25  and  C_27
REMARK                            x       y       z     vdW  Elec       q    Type
REMARK                         _______ _______ _______ _____ _____    ______ ____
ROOT
ATOM      1  C   UNL     1      -6.543  18.392  69.492  0.00  0.00    +0.000 C 
ATOM      2  C   UNL     1      -7.181  19.505  68.493  0.00  0.00    +0.007 C 
ATOM      3  C   UNL     1      -6.737  18.608  67.124  0.00  0.00    +0.060 C 
ATOM      4  C   UNL     1      -8.178  17.973  66.803  0.00  0.00    +0.009 C 
ATOM      5  C   UNL     1      -8.297  17.420  68.311  0.00  0.00    +0.002 C 
ATOM      6  C   UNL     1      -9.894  16.943  68.005  0.00  0.00    +0.020 C 
ATOM      7  C   UNL     1      -9.412  15.547  67.387  0.00  0.00    +0.102 C 
ATOM      8  C   UNL     1      -9.198  15.854  65.786  0.00  0.00    +0.166 C 
ATOM      9  O   UNL     1     -10.211  16.987  65.716  0.00  0.00    -0.222 OA
ATOM     10 CL   UNL     1      -7.904  14.977  67.996  0.00  0.00    -0.113 Cl
ATOM     11  C   UNL     1     -10.466  14.526  67.437  0.00  0.00    +0.052 C 
ATOM     12  C   UNL     1     -11.272  14.488  68.663  0.00  0.00    -0.005 C 
ATOM     13  C   UNL     1     -12.134  13.534  68.853  0.00  0.00    +0.036 C 
ATOM     14  C   UNL     1     -11.652  12.193  68.479  0.00  0.00    +0.195 C 
ATOM     15  C   UNL     1     -10.270  12.126  68.009  0.00  0.00    +0.038 C 
ATOM     16  O   UNL     1     -12.211  11.162  68.921  0.00  0.00    -0.287 OA
ATOM     17  C   UNL     1     -11.727  15.987  69.069  0.00  0.00    +0.180 C 
ATOM     18  F   UNL     1     -12.078  15.574  70.474  0.00  0.00    -0.233 F 
ATOM     19  C   UNL     1     -11.357  14.496  66.197  0.00  0.00    +0.010 C 
ATOM     20  C   UNL     1      -9.775  13.194  67.380  0.00  0.00    -0.018 C 
ATOM     21  C   UNL     1     -10.158  16.340  69.487  0.00  0.00    +0.041 C 
ATOM     22  C   UNL     1      -9.146  19.002  66.491  0.00  0.00    +0.001 C 
ATOM     23  C   UNL     1      -7.905  16.837  66.010  0.00  0.00    +0.035 C 
ATOM     24  C   UNL     1      -8.670  18.931  68.707  0.00  0.00    +0.000 C 
ENDROOT
BRANCH   3  25
ATOM     25  C   UNL     1      -6.931  19.882  66.161  0.00  0.00    +0.183 C 
ATOM     26  O   UNL     1      -6.863  19.624  64.959  0.00  0.00    -0.293 OA
BRANCH  25  27
ATOM     27  C   UNL     1      -6.133  21.098  66.513  0.00  0.00    +0.246 C 
ATOM     28  O   UNL     1      -4.838  21.054  66.044  0.00  0.00    -0.212 OA
ENDBRANCH  25  27
ENDBRANCH   3  25
TORSDOF 2
ENDMDL
MODEL 3
REMARK VINA RESULT:      -7.0      3.962      8.196
REMARK  Name = 
REMARK  2 active torsions:
REMARK  status: ('A' for Active; 'I' for Inactive)
REMARK    1  A    between atoms: C_24  and  C_25
REMARK    2  A    between atoms: C_25  and  C_27
REMARK                            x       y       z     vdW  Elec       q    Type
REMARK                         _______ _______ _______ _____ _____    ______ ____
ROOT
ATOM      1  C   UNL     1      -9.827  19.974  67.968  0.00  0.00    +0.000 C 
ATOM      2  C   UNL     1      -8.398  20.099  67.203  0.00  0.00    +0.007 C 
ATOM      3  C   UNL     1      -7.594  19.294  68.461  0.00  0.00    +0.060 C 
ATOM      4  C   UNL     1      -7.471  17.856  67.754  0.00  0.00    +0.009 C 
ATOM      5  C   UNL     1      -9.056  17.836  67.465  0.00  0.00    +0.002 C 
ATOM      6  C   UNL     1      -8.866  16.424  66.548  0.00  0.00    +0.020 C 
ATOM      7  C   UNL     1      -8.957  15.503  67.855  0.00  0.00    +0.102 C 
ATOM      8  C   UNL     1      -7.403  15.371  68.377  0.00  0.00    +0.166 C 
ATOM      9  O   UNL     1      -6.770  15.568  67.008  0.00  0.00    -0.222 OA
ATOM     10 CL   UNL     1      -9.867  16.185  69.149  0.00  0.00    -0.113 Cl
ATOM     11  C   UNL     1      -9.364  14.129  67.537  0.00  0.00    +0.052 C 
ATOM     12  C   UNL     1     -10.419  13.985  66.526  0.00  0.00    -0.005 C 
ATOM     13  C   UNL     1     -10.938  12.819  66.281  0.00  0.00    +0.036 C 
ATOM     14  C   UNL     1     -11.223  12.013  67.481  0.00  0.00    +0.195 C 
ATOM     15  C   UNL     1     -10.937  12.659  68.760  0.00  0.00    +0.038 C 
ATOM     16  O   UNL     1     -12.025  11.052  67.434  0.00  0.00    -0.287 OA
ATOM     17  C   UNL     1     -10.096  14.933  65.256  0.00  0.00    +0.180 C 
ATOM     18  F   UNL     1     -11.510  14.844  64.743  0.00  0.00    -0.233 F 
ATOM     19  C   UNL     1      -8.197  13.189  67.245  0.00  0.00    +0.010 C 
ATOM     20  C   UNL     1      -9.946  13.553  68.796  0.00  0.00    -0.018 C 
ATOM     21  C   UNL     1     -10.438  16.272  66.179  0.00  0.00    +0.041 C 
ATOM     22  C   UNL     1      -6.670  17.930  66.552  0.00  0.00    +0.001 C 
ATOM     23  C   UNL     1      -7.276  16.946  68.816  0.00  0.00    +0.035 C 
ATOM     24  C   UNL     1      -8.726  18.840  66.256  0.00  0.00    +0.000 C 
ENDROOT
BRANCH   3  25
ATOM     25  C   UNL     1      -6.161  19.819  67.952  0.00  0.00    +0.183 C 
ATOM     26  O   UNL     1      -5.212  19.457  68.647  0.00  0.00    -0.293 OA
BRANCH  25  27
ATOM     27  C   UNL     1      -6.078  21.275  67.615  0.00  0.00    +0.246 C 
ATOM     28  O   UNL     1      -5.116  21.561  66.670  0.00  0.00    -0.212 OA
ENDBRANCH  25  27
ENDBRANCH   3  25
TORSDOF 2
ENDMDL
MODEL 4
REMARK VINA RESULT:      -6.9      4.592      7.062
REMARK  Name = 
REMARK  2 active torsions:
REMARK  status: ('A' for Active; 'I' for Inactive)
REMARK    1  A    between atoms: C_24  and  C_25
REMARK    2  A    between atoms: C_25  and  C_27
REMARK                            x       y       z     vdW  Elec       q    Type
REMARK                         _______ _______ _______ _____ _____    ______ ____
ROOT
ATOM      1  C   UNL     1     -11.859  14.033  68.989  0.00  0.00    +0.000 C 
ATOM      2  C   UNL     1     -11.485  13.374  67.551  0.00  0.00    +0.007 C 
ATOM      3  C   UNL     1     -11.887  14.803  66.731  0.00  0.00    +0.060 C 
ATOM      4  C   UNL     1     -10.392  15.347  66.498  0.00  0.00    +0.009 C 
ATOM      5  C   UNL     1     -10.070  15.205  68.070  0.00  0.00    +0.002 C 
ATOM      6  C   UNL     1      -8.447  15.583  67.766  0.00  0.00    +0.020 C 
ATOM      7  C   UNL     1      -8.748  17.155  67.833  0.00  0.00    +0.102 C 
ATOM      8  C   UNL     1      -9.132  17.568  66.288  0.00  0.00    +0.166 C 
ATOM      9  O   UNL     1      -8.320  16.461  65.633  0.00  0.00    -0.222 OA
ATOM     10 CL   UNL     1     -10.094  17.584  68.818  0.00  0.00    -0.113 Cl
ATOM     11  C   UNL     1      -7.545  17.937  68.143  0.00  0.00    +0.052 C 
ATOM     12  C   UNL     1      -6.650  17.370  69.160  0.00  0.00    -0.005 C 
ATOM     13  C   UNL     1      -5.636  18.055  69.596  0.00  0.00    +0.036 C 
ATOM     14  C   UNL     1      -5.927  19.474  69.861  0.00  0.00    +0.195 C 
ATOM     15  C   UNL     1      -7.313  19.886  69.651  0.00  0.00    +0.038 C 
ATOM     16  O   UNL     1      -5.179  20.157  70.599  0.00  0.00    -0.287 OA
ATOM     17  C   UNL     1      -6.408  15.797  68.864  0.00  0.00    +0.180 C 
ATOM     18  F   UNL     1      -5.887  15.545  70.255  0.00  0.00    -0.233 F 
ATOM     19  C   UNL     1      -6.759  18.380  66.911  0.00  0.00    +0.010 C 
ATOM     20  C   UNL     1      -8.018  19.240  68.720  0.00  0.00    -0.018 C 
ATOM     21  C   UNL     1      -7.976  15.481  69.315  0.00  0.00    +0.041 C 
ATOM     22  C   UNL     1      -9.628  14.440  65.671  0.00  0.00    +0.001 C 
ATOM     23  C   UNL     1     -10.543  16.733  66.273  0.00  0.00    +0.035 C 
ATOM     24  C   UNL     1      -9.912  13.635  67.772  0.00  0.00    +0.000 C 
ENDROOT
BRANCH   3  25
ATOM     25  C   UNL     1     -11.973  14.032  65.322  0.00  0.00    +0.183 C 
ATOM     26  O   UNL     1     -12.490  14.688  64.416  0.00  0.00    -0.293 OA
BRANCH  25  27
ATOM     27  C   UNL     1     -12.506  12.635  65.369  0.00  0.00    +0.246 C 
ATOM     28  O   UNL     1     -13.282  12.311  64.277  0.00  0.00    -0.212 OA
ENDBRANCH  25  27
ENDBRANCH   3  25
TORSDOF 2
ENDMDL
MODEL 5
REMARK VINA RESULT:      -6.9      2.702      7.024
REMARK  Name = 
REMARK  2 active torsions:
REMARK  status: ('A' for Active; 'I' for Inactive)
REMARK    1  A    between atoms: C_24  and  C_25
REMARK    2  A    between atoms: C_25  and  C_27
REMARK                            x       y       z     vdW  Elec       q    Type
REMARK                         _______ _______ _______ _____ _____    ______ ____
ROOT
ATOM      1  C   UNL     1     -10.298  15.222  68.275  0.00  0.00    +0.000 C 
ATOM      2  C   UNL     1     -11.259  14.859  67.015  0.00  0.00    +0.007 C 
ATOM      3  C   UNL     1     -10.071  13.866  66.325  0.00  0.00    +0.060 C 
ATOM      4  C   UNL     1     -10.684  12.450  66.775  0.00  0.00    +0.009 C 
ATOM      5  C   UNL     1     -10.749  12.939  68.309  0.00  0.00    +0.002 C 
ATOM      6  C   UNL     1     -11.580  11.521  68.720  0.00  0.00    +0.020 C 
ATOM      7  C   UNL     1     -10.211  10.709  68.897  0.00  0.00    +0.102 C 
ATOM      8  C   UNL     1      -9.900  10.092  67.404  0.00  0.00    +0.166 C 
ATOM      9  O   UNL     1     -11.355  10.041  66.960  0.00  0.00    -0.222 OA
ATOM     10 CL   UNL     1      -8.856  11.679  69.333  0.00  0.00    -0.113 Cl
ATOM     11  C   UNL     1     -10.372   9.535  69.763  0.00  0.00    +0.052 C 
ATOM     12  C   UNL     1     -11.214   9.718  70.951  0.00  0.00    -0.005 C 
ATOM     13  C   UNL     1     -11.302   8.778  71.844  0.00  0.00    +0.036 C 
ATOM     14  C   UNL     1     -10.020   8.136  72.182  0.00  0.00    +0.195 C 
ATOM     15  C   UNL     1      -8.842   8.683  71.513  0.00  0.00    +0.038 C 
ATOM     16  O   UNL     1      -9.888   7.486  73.246  0.00  0.00    -0.287 OA
ATOM     17  C   UNL     1     -12.582  10.481  70.543  0.00  0.00    +0.180 C 
ATOM     18  F   UNL     1     -12.887  10.843  71.973  0.00  0.00    -0.233 F 
ATOM     19  C   UNL     1     -10.755   8.261  69.013  0.00  0.00    +0.010 C 
ATOM     20  C   UNL     1      -9.007   9.207  70.297  0.00  0.00    -0.018 C 
ATOM     21  C   UNL     1     -11.718  11.879  70.296  0.00  0.00    +0.041 C 
ATOM     22  C   UNL     1     -11.987  12.233  66.187  0.00  0.00    +0.001 C 
ATOM     23  C   UNL     1      -9.596  11.550  66.718  0.00  0.00    +0.035 C 
ATOM     24  C   UNL     1     -12.061  13.753  67.867  0.00  0.00    +0.000 C 
ENDROOT
BRANCH   3  25
ATOM     25  C   UNL     1     -10.809  13.886  64.896  0.00  0.00    +0.183 C 
ATOM     26  O   UNL     1     -10.178  13.336  63.992  0.00  0.00    -0.293 OA
BRANCH  25  27
ATOM     27  C   UNL     1     -11.362  15.207  64.461  0.00  0.00    +0.246 C 
ATOM     28  O   UNL     1     -12.611  15.112  63.888  0.00  0.00    -0.212 OA
ENDBRANCH  25  27
ENDBRANCH   3  25
TORSDOF 2
ENDMDL
MODEL 6
REMARK VINA RESULT:      -6.3      4.091      8.292
REMARK  Name = 
REMARK  2 active torsions:
REMARK  status: ('A' for Active; 'I' for Inactive)
REMARK    1  A    between atoms: C_24  and  C_25
REMARK    2  A    between atoms: C_25  and  C_27
REMARK                            x       y       z     vdW  Elec       q    Type
REMARK                         _______ _______ _______ _____ _____    ______ ____
ROOT
ATOM      1  C   UNL     1      -6.029  17.821  65.242  0.00  0.00    +0.000 C 
ATOM      2  C   UNL     1      -5.916  18.741  66.578  0.00  0.00    +0.007 C 
ATOM      3  C   UNL     1      -7.475  19.366  66.343  0.00  0.00    +0.060 C 
ATOM      4  C   UNL     1      -8.237  18.462  67.431  0.00  0.00    +0.009 C 
ATOM      5  C   UNL     1      -7.637  17.121  66.772  0.00  0.00    +0.002 C 
ATOM      6  C   UNL     1      -8.282  16.211  68.047  0.00  0.00    +0.020 C 
ATOM      7  C   UNL     1      -9.701  16.096  67.315  0.00  0.00    +0.102 C 
ATOM      8  C   UNL     1     -10.541  17.413  67.831  0.00  0.00    +0.166 C 
ATOM      9  O   UNL     1      -9.807  17.545  69.157  0.00  0.00    -0.222 OA
ATOM     10 CL   UNL     1      -9.628  16.187  65.596  0.00  0.00    -0.113 Cl
ATOM     11  C   UNL     1     -10.478  14.945  67.790  0.00  0.00    +0.052 C 
ATOM     12  C   UNL     1      -9.724  13.705  68.016  0.00  0.00    -0.005 C 
ATOM     13  C   UNL     1     -10.348  12.602  68.304  0.00  0.00    +0.036 C 
ATOM     14  C   UNL     1     -11.562  12.361  67.506  0.00  0.00    +0.195 C 
ATOM     15  C   UNL     1     -11.852  13.358  66.478  0.00  0.00    +0.038 C 
ATOM     16  O   UNL     1     -12.055  11.212  67.416  0.00  0.00    -0.287 OA
ATOM     17  C   UNL     1      -8.371  14.027  68.842  0.00  0.00    +0.180 C 
ATOM     18  F   UNL     1      -7.748  12.706  68.472  0.00  0.00    -0.233 F 
ATOM     19  C   UNL     1     -11.383  15.257  68.979  0.00  0.00    +0.010 C 
ATOM     20  C   UNL     1     -11.461  14.613  66.704  0.00  0.00    -0.018 C 
ATOM     21  C   UNL     1      -7.743  14.782  67.501  0.00  0.00    +0.041 C 
ATOM     22  C   UNL     1      -7.741  18.717  68.765  0.00  0.00    +0.001 C 
ATOM     23  C   UNL     1      -9.594  18.493  67.040  0.00  0.00    +0.035 C 
ATOM     24  C   UNL     1      -6.276  17.499  67.536  0.00  0.00    +0.000 C 
ENDROOT
BRANCH   3  25
ATOM     25  C   UNL     1      -7.193  20.587  67.353  0.00  0.00    +0.183 C 
ATOM     26  O   UNL     1      -8.110  21.406  67.426  0.00  0.00    -0.293 OA
BRANCH  25  27
ATOM     27  C   UNL     1      -5.862  21.256  67.219  0.00  0.00    +0.246 C 
ATOM     28  O   UNL     1      -5.179  21.354  68.413  0.00  0.00    -0.212 OA
ENDBRANCH  25  27
ENDBRANCH   3  25
TORSDOF 2
ENDMDL
MODEL 7
REMARK VINA RESULT:      -6.3      4.159      6.386
REMARK  Name = 
REMARK  2 active torsions:
REMARK  status: ('A' for Active; 'I' for Inactive)
REMARK    1  A    between atoms: C_24  and  C_25
REMARK    2  A    between atoms: C_25  and  C_27
REMARK                            x       y       z     vdW  Elec       q    Type
REMARK                         _______ _______ _______ _____ _____    ______ ____
ROOT
ATOM      1  C   UNL     1      -7.811  13.135  67.902  0.00  0.00    +0.000 C 
ATOM      2  C   UNL     1      -9.319  13.114  67.297  0.00  0.00    +0.007 C 
ATOM      3  C   UNL     1      -9.940  13.881  68.677  0.00  0.00    +0.060 C 
ATOM      4  C   UNL     1     -10.069  15.361  68.063  0.00  0.00    +0.009 C 
ATOM      5  C   UNL     1      -8.527  15.329  67.599  0.00  0.00    +0.002 C 
ATOM      6  C   UNL     1      -8.747  16.797  66.783  0.00  0.00    +0.020 C 
ATOM      7  C   UNL     1      -8.468  17.638  68.117  0.00  0.00    +0.102 C 
ATOM      8  C   UNL     1      -9.947  17.807  68.817  0.00  0.00    +0.166 C 
ATOM      9  O   UNL     1     -10.736  17.715  67.519  0.00  0.00    -0.222 OA
ATOM     10 CL   UNL     1      -7.456  16.846  69.264  0.00  0.00    -0.113 Cl
ATOM     11  C   UNL     1      -8.032  19.010  67.826  0.00  0.00    +0.052 C 
ATOM     12  C   UNL     1      -7.088  19.165  66.712  0.00  0.00    -0.005 C 
ATOM     13  C   UNL     1      -6.544  20.319  66.470  0.00  0.00    +0.036 C 
ATOM     14  C   UNL     1      -6.090  21.043  67.670  0.00  0.00    +0.195 C 
ATOM     15  C   UNL     1      -6.264  20.339  68.938  0.00  0.00    +0.038 C 
ATOM     16  O   UNL     1      -5.251  21.971  67.583  0.00  0.00    -0.287 OA
ATOM     17  C   UNL     1      -7.595  18.305  65.439  0.00  0.00    +0.180 C 
ATOM     18  F   UNL     1      -6.244  18.362  64.775  0.00  0.00    -0.233 F 
ATOM     19  C   UNL     1      -9.177  20.013  67.716  0.00  0.00    +0.010 C 
ATOM     20  C   UNL     1      -7.287  19.488  69.039  0.00  0.00    -0.018 C 
ATOM     21  C   UNL     1      -7.220  16.903  66.247  0.00  0.00    +0.041 C 
ATOM     22  C   UNL     1     -11.000  15.389  66.956  0.00  0.00    +0.001 C 
ATOM     23  C   UNL     1     -10.102  16.217  69.186  0.00  0.00    +0.035 C 
ATOM     24  C   UNL     1      -9.037  14.410  66.385  0.00  0.00    +0.000 C 
ENDROOT
BRANCH   3  25
ATOM     25  C   UNL     1     -11.444  13.447  68.306  0.00  0.00    +0.183 C 
ATOM     26  O   UNL     1     -12.295  13.833  69.108  0.00  0.00    -0.293 OA
BRANCH  25  27
ATOM     27  C   UNL     1     -11.640  12.011  67.936  0.00  0.00    +0.246 C 
ATOM     28  O   UNL     1     -11.898  11.200  69.021  0.00  0.00    -0.212 OA
ENDBRANCH  25  27
ENDBRANCH   3  25
TORSDOF 2
ENDMDL
MODEL 8
REMARK VINA RESULT:      -6.2      1.893      2.609
REMARK  Name = 
REMARK  2 active torsions:
REMARK  status: ('A' for Active; 'I' for Inactive)
REMARK    1  A    between atoms: C_24  and  C_25
REMARK    2  A    between atoms: C_25  and  C_27
REMARK                            x       y       z     vdW  Elec       q    Type
REMARK                         _______ _______ _______ _____ _____    ______ ____
ROOT
ATOM      1  C   UNL     1      -8.406  10.599  64.816  0.00  0.00    +0.000 C 
ATOM      2  C   UNL     1      -9.769   9.902  65.363  0.00  0.00    +0.007 C 
ATOM      3  C   UNL     1      -9.300  10.127  66.977  0.00  0.00    +0.060 C 
ATOM      4  C   UNL     1     -10.221  11.406  67.294  0.00  0.00    +0.009 C 
ATOM      5  C   UNL     1      -9.630  12.179  66.010  0.00  0.00    +0.002 C 
ATOM      6  C   UNL     1     -10.755  13.423  66.247  0.00  0.00    +0.020 C 
ATOM      7  C   UNL     1      -9.797  14.158  67.299  0.00  0.00    +0.102 C 
ATOM      8  C   UNL     1     -10.206  13.512  68.755  0.00  0.00    +0.166 C 
ATOM      9  O   UNL     1     -11.638  13.173  68.368  0.00  0.00    -0.222 OA
ATOM     10 CL   UNL     1      -8.116  13.855  67.068  0.00  0.00    -0.113 Cl
ATOM     11  C   UNL     1     -10.104  15.588  67.423  0.00  0.00    +0.052 C 
ATOM     12  C   UNL     1     -10.413  16.294  66.173  0.00  0.00    -0.005 C 
ATOM     13  C   UNL     1     -10.562  17.585  66.168  0.00  0.00    +0.036 C 
ATOM     14  C   UNL     1      -9.569  18.317  66.973  0.00  0.00    +0.195 C 
ATOM     15  C   UNL     1      -8.537  17.497  67.604  0.00  0.00    +0.038 C 
ATOM     16  O   UNL     1      -9.366  19.540  66.786  0.00  0.00    -0.287 OA
ATOM     17  C   UNL     1     -11.459  15.425  65.296  0.00  0.00    +0.180 C 
ATOM     18  F   UNL     1     -11.157  16.201  64.041  0.00  0.00    -0.233 F 
ATOM     19  C   UNL     1     -11.137  15.908  68.501  0.00  0.00    +0.010 C 
ATOM     20  C   UNL     1      -8.862  16.249  67.948  0.00  0.00    -0.018 C 
ATOM     21  C   UNL     1     -10.263  14.315  64.985  0.00  0.00    +0.041 C 
ATOM     22  C   UNL     1     -11.625  11.083  67.172  0.00  0.00    +0.001 C 
ATOM     23  C   UNL     1      -9.614  12.022  68.410  0.00  0.00    +0.035 C 
ATOM     24  C   UNL     1     -10.618  11.252  65.148  0.00  0.00    +0.000 C 
ENDROOT
BRANCH   3  25
ATOM     25  C   UNL     1     -10.378   9.052  67.495  0.00  0.00    +0.183 C 
ATOM     26  O   UNL     1     -10.459   8.964  68.721  0.00  0.00    -0.293 OA
BRANCH  25  27
ATOM     27  C   UNL     1     -10.325   7.704  66.846  0.00  0.00    +0.246 C 
ATOM     28  O   UNL     1     -11.312   6.849  67.286  0.00  0.00    -0.212 OA
ENDBRANCH  25  27
ENDBRANCH   3  25
TORSDOF 2
ENDMDL
MODEL 9
REMARK VINA RESULT:      -6.2      2.930      4.657
REMARK  Name = 
REMARK  2 active torsions:
REMARK  status: ('A' for Active; 'I' for Inactive)
REMARK    1  A    between atoms: C_24  and  C_25
REMARK    2  A    between atoms: C_25  and  C_27
REMARK                            x       y       z     vdW  Elec       q    Type
REMARK                         _______ _______ _______ _____ _____    ______ ____
ROOT
ATOM      1  C   UNL     1     -12.813   7.223  71.069  0.00  0.00    +0.000 C 
ATOM      2  C   UNL     1     -11.688   7.527  72.203  0.00  0.00    +0.007 C 
ATOM      3  C   UNL     1     -10.498   6.703  71.319  0.00  0.00    +0.060 C 
ATOM      4  C   UNL     1      -9.753   7.989  70.706  0.00  0.00    +0.009 C 
ATOM      5  C   UNL     1     -11.149   8.554  70.134  0.00  0.00    +0.002 C 
ATOM      6  C   UNL     1     -10.374   9.991  69.681  0.00  0.00    +0.020 C 
ATOM      7  C   UNL     1      -9.905   9.359  68.287  0.00  0.00    +0.102 C 
ATOM      8  C   UNL     1      -8.444   8.676  68.613  0.00  0.00    +0.166 C 
ATOM      9  O   UNL     1      -8.096   9.614  69.759  0.00  0.00    -0.222 OA
ATOM     10 CL   UNL     1     -10.925   8.105  67.691  0.00  0.00    -0.113 Cl
ATOM     11  C   UNL     1      -9.622  10.388  67.279  0.00  0.00    +0.052 C 
ATOM     12  C   UNL     1     -10.553  11.522  67.235  0.00  0.00    -0.005 C 
ATOM     13  C   UNL     1     -10.462  12.408  66.289  0.00  0.00    +0.036 C 
ATOM     14  C   UNL     1     -10.226  11.847  64.947  0.00  0.00    +0.195 C 
ATOM     15  C   UNL     1     -10.188  10.389  64.869  0.00  0.00    +0.038 C 
ATOM     16  O   UNL     1     -10.466  12.521  63.917  0.00  0.00    -0.287 OA
ATOM     17  C   UNL     1     -10.830  12.065  68.733  0.00  0.00    +0.180 C 
ATOM     18  F   UNL     1     -12.060  12.822  68.306  0.00  0.00    -0.233 F 
ATOM     19  C   UNL     1      -8.173  10.870  67.277  0.00  0.00    +0.010 C 
ATOM     20  C   UNL     1      -9.752   9.722  65.939  0.00  0.00    -0.018 C 
ATOM     21  C   UNL     1     -11.701  10.689  69.062  0.00  0.00    +0.041 C 
ATOM     22  C   UNL     1      -9.185   8.811  71.751  0.00  0.00    +0.001 C 
ATOM     23  C   UNL     1      -9.059   7.501  69.577  0.00  0.00    +0.035 C 
ATOM     24  C   UNL     1     -11.441   9.017  71.644  0.00  0.00    +0.000 C 
ENDROOT
BRANCH   3  25
ATOM     25  C   UNL     1      -9.543   6.592  72.608  0.00  0.00    +0.183 C 
ATOM     26  O   UNL     1      -8.461   6.043  72.392  0.00  0.00    -0.293 OA
BRANCH  25  27
ATOM     27  C   UNL     1     -10.185   6.079  73.859  0.00  0.00    +0.246 C 
ATOM     28  O   UNL     1      -9.598   6.562  75.009  0.00  0.00    -0.212 OA
ENDBRANCH  25  27
ENDBRANCH   3  25
TORSDOF 2
ENDMDL
