MODEL 1
REMARK VINA RESULT:      -4.6      0.000      0.000
REMARK  Name = 
REMARK  4 active torsions:
REMARK  status: ('A' for Active; 'I' for Inactive)
REMARK    1  A    between atoms: C_2  and  O_3
REMARK    2  A    between atoms: O_3  and  C_4
REMARK    3  A    between atoms: C_4  and  C_5
REMARK    4  A    between atoms: C_4  and  C_9
REMARK                            x       y       z     vdW  Elec       q    Type
REMARK                         _______ _______ _______ _____ _____    ______ ____
ROOT
ATOM      1  C   UNL     1     -12.939  15.353  71.498  0.00  0.00    +0.308 C 
ENDROOT
BRANCH   1   2
ATOM      2  C   UNL     1     -11.936  15.591  72.565  0.00  0.00    +0.431 C 
ATOM      3  F   UNL     1     -11.768  16.935  72.887  0.00  0.00    -0.167 F 
ATOM      4  F   UNL     1     -12.216  14.874  73.716  0.00  0.00    -0.167 F 
ATOM      5  F   UNL     1     -10.710  15.106  72.116  0.00  0.00    -0.167 F 
ENDBRANCH   1   2
BRANCH   1   6
ATOM      6  C   UNL     1     -14.343  15.167  71.927  0.00  0.00    +0.431 C 
ATOM      7  F   UNL     1     -14.596  16.102  72.928  0.00  0.00    -0.167 F 
ATOM      8  F   UNL     1     -15.277  15.413  70.925  0.00  0.00    -0.167 F 
ATOM      9  F   UNL     1     -14.632  13.938  72.453  0.00  0.00    -0.167 F 
ENDBRANCH   1   6
BRANCH   1  10
ATOM     10  O   UNL     1     -12.723  15.959  70.301  0.00  0.00    -0.309 OA
BRANCH  10  12
ATOM     11  F   UNL     1     -12.537  13.961  69.344  0.00  0.00    -0.198 F 
ATOM     12  C   UNL     1     -11.994  15.242  69.381  0.00  0.00    +0.341 C 
ENDBRANCH  10  12
ENDBRANCH   1  10
TORSDOF 4
ENDMDL
MODEL 2
REMARK VINA RESULT:      -4.6      1.110      2.144
REMARK  Name = 
REMARK  4 active torsions:
REMARK  status: ('A' for Active; 'I' for Inactive)
REMARK    1  A    between atoms: C_2  and  O_3
REMARK    2  A    between atoms: O_3  and  C_4
REMARK    3  A    between atoms: C_4  and  C_5
REMARK    4  A    between atoms: C_4  and  C_9
REMARK                            x       y       z     vdW  Elec       q    Type
REMARK                         _______ _______ _______ _____ _____    ______ ____
ROOT
ATOM      1  C   UNL     1     -12.517  15.255  71.760  0.00  0.00    +0.308 C 
ENDROOT
BRANCH   1   2
ATOM      2  C   UNL     1     -12.465  15.899  73.095  0.00  0.00    +0.431 C 
ATOM      3  F   UNL     1     -11.951  15.077  74.094  0.00  0.00    -0.167 F 
ATOM      4  F   UNL     1     -11.761  17.092  73.075  0.00  0.00    -0.167 F 
ATOM      5  F   UNL     1     -13.765  16.244  73.457  0.00  0.00    -0.167 F 
ENDBRANCH   1   2
BRANCH   1   6
ATOM      6  C   UNL     1     -13.292  13.999  71.651  0.00  0.00    +0.431 C 
ATOM      7  F   UNL     1     -14.569  14.338  71.210  0.00  0.00    -0.167 F 
ATOM      8  F   UNL     1     -12.786  13.103  70.714  0.00  0.00    -0.167 F 
ATOM      9  F   UNL     1     -13.450  13.310  72.822  0.00  0.00    -0.167 F 
ENDBRANCH   1   6
BRANCH   1  10
ATOM     10  O   UNL     1     -12.496  16.075  70.677  0.00  0.00    -0.309 OA
BRANCH  10  12
ATOM     11  F   UNL     1     -10.427  15.266  70.600  0.00  0.00    -0.198 F 
ATOM     12  C   UNL     1     -11.361  16.026  69.902  0.00  0.00    +0.341 C 
ENDBRANCH  10  12
ENDBRANCH   1  10
TORSDOF 4
ENDMDL
MODEL 3
REMARK VINA RESULT:      -4.6      1.709      3.130
REMARK  Name = 
REMARK  4 active torsions:
REMARK  status: ('A' for Active; 'I' for Inactive)
REMARK    1  A    between atoms: C_2  and  O_3
REMARK    2  A    between atoms: O_3  and  C_4
REMARK    3  A    between atoms: C_4  and  C_5
REMARK    4  A    between atoms: C_4  and  C_9
REMARK                            x       y       z     vdW  Elec       q    Type
REMARK                         _______ _______ _______ _____ _____    ______ ____
ROOT
ATOM      1  C   UNL     1     -13.291  15.624  72.271  0.00  0.00    +0.308 C 
ENDROOT
BRANCH   1   2
ATOM      2  C   UNL     1     -11.998  15.963  71.627  0.00  0.00    +0.431 C 
ATOM      3  F   UNL     1     -11.022  14.982  71.779  0.00  0.00    -0.167 F 
ATOM      4  F   UNL     1     -12.145  16.262  70.283  0.00  0.00    -0.167 F 
ATOM      5  F   UNL     1     -11.520  17.131  72.215  0.00  0.00    -0.167 F 
ENDBRANCH   1   2
BRANCH   1   6
ATOM      6  C   UNL     1     -13.931  14.354  71.860  0.00  0.00    +0.431 C 
ATOM      7  F   UNL     1     -15.272  14.633  71.603  0.00  0.00    -0.167 F 
ATOM      8  F   UNL     1     -13.417  13.817  70.684  0.00  0.00    -0.167 F 
ATOM      9  F   UNL     1     -13.908  13.361  72.800  0.00  0.00    -0.167 F 
ENDBRANCH   1   6
BRANCH   1  10
ATOM     10  O   UNL     1     -13.466  16.029  73.556  0.00  0.00    -0.309 OA
BRANCH  10  12
ATOM     11  F   UNL     1     -12.133  16.695  75.206  0.00  0.00    -0.198 F 
ATOM     12  C   UNL     1     -12.532  15.587  74.464  0.00  0.00    +0.341 C 
ENDBRANCH  10  12
ENDBRANCH   1  10
TORSDOF 4
ENDMDL
MODEL 4
REMARK VINA RESULT:      -4.5      1.382      2.894
REMARK  Name = 
REMARK  4 active torsions:
REMARK  status: ('A' for Active; 'I' for Inactive)
REMARK    1  A    between atoms: C_2  and  O_3
REMARK    2  A    between atoms: O_3  and  C_4
REMARK    3  A    between atoms: C_4  and  C_5
REMARK    4  A    between atoms: C_4  and  C_9
REMARK                            x       y       z     vdW  Elec       q    Type
REMARK                         _______ _______ _______ _____ _____    ______ ____
ROOT
ATOM      1  C   UNL     1     -12.457  15.186  71.911  0.00  0.00    +0.308 C 
ENDROOT
BRANCH   1   2
ATOM      2  C   UNL     1     -13.365  14.026  71.735  0.00  0.00    +0.431 C 
ATOM      3  F   UNL     1     -13.509  13.248  72.881  0.00  0.00    -0.167 F 
ATOM      4  F   UNL     1     -14.616  14.404  71.277  0.00  0.00    -0.167 F 
ATOM      5  F   UNL     1     -12.836  13.214  70.736  0.00  0.00    -0.167 F 
ENDBRANCH   1   2
BRANCH   1   6
ATOM      6  C   UNL     1     -12.519  15.895  73.209  0.00  0.00    +0.431 C 
ATOM      7  F   UNL     1     -13.849  16.248  73.423  0.00  0.00    -0.167 F 
ATOM      8  F   UNL     1     -12.148  15.112  74.298  0.00  0.00    -0.167 F 
ATOM      9  F   UNL     1     -11.789  17.049  73.275  0.00  0.00    -0.167 F 
ENDBRANCH   1   6
BRANCH   1  10
ATOM     10  O   UNL     1     -11.254  15.129  71.283  0.00  0.00    -0.309 OA
BRANCH  10  12
ATOM     11  F   UNL     1     -12.296  16.031  69.538  0.00  0.00    -0.198 F 
ATOM     12  C   UNL     1     -11.083  15.987  70.221  0.00  0.00    +0.341 C 
ENDBRANCH  10  12
ENDBRANCH   1  10
TORSDOF 4
ENDMDL
MODEL 5
REMARK VINA RESULT:      -4.4      1.205      3.084
REMARK  Name = 
REMARK  4 active torsions:
REMARK  status: ('A' for Active; 'I' for Inactive)
REMARK    1  A    between atoms: C_2  and  O_3
REMARK    2  A    between atoms: O_3  and  C_4
REMARK    3  A    between atoms: C_4  and  C_5
REMARK    4  A    between atoms: C_4  and  C_9
REMARK                            x       y       z     vdW  Elec       q    Type
REMARK                         _______ _______ _______ _____ _____    ______ ____
ROOT
ATOM      1  C   UNL     1     -12.996  15.362  71.687  0.00  0.00    +0.308 C 
ENDROOT
BRANCH   1   2
ATOM      2  C   UNL     1     -12.079  15.087  70.554  0.00  0.00    +0.431 C 
ATOM      3  F   UNL     1     -10.735  15.277  70.863  0.00  0.00    -0.167 F 
ATOM      4  F   UNL     1     -12.256  13.816  70.033  0.00  0.00    -0.167 F 
ATOM      5  F   UNL     1     -12.404  15.959  69.518  0.00  0.00    -0.167 F 
ENDBRANCH   1   2
BRANCH   1   6
ATOM      6  C   UNL     1     -12.402  15.970  72.898  0.00  0.00    +0.431 C 
ATOM      7  F   UNL     1     -11.561  15.018  73.469  0.00  0.00    -0.167 F 
ATOM      8  F   UNL     1     -11.605  17.082  72.639  0.00  0.00    -0.167 F 
ATOM      9  F   UNL     1     -13.298  16.335  73.865  0.00  0.00    -0.167 F 
ENDBRANCH   1   6
BRANCH   1  10
ATOM     10  O   UNL     1     -14.276  15.697  71.379  0.00  0.00    -0.309 OA
BRANCH  10  12
ATOM     11  F   UNL     1     -14.611  13.695  72.285  0.00  0.00    -0.198 F 
ATOM     12  C   UNL     1     -15.220  14.713  71.556  0.00  0.00    +0.341 C 
ENDBRANCH  10  12
ENDBRANCH   1  10
TORSDOF 4
ENDMDL
MODEL 6
REMARK VINA RESULT:      -4.4      5.242      7.893
REMARK  Name = 
REMARK  4 active torsions:
REMARK  status: ('A' for Active; 'I' for Inactive)
REMARK    1  A    between atoms: C_2  and  O_3
REMARK    2  A    between atoms: O_3  and  C_4
REMARK    3  A    between atoms: C_4  and  C_5
REMARK    4  A    between atoms: C_4  and  C_9
REMARK                            x       y       z     vdW  Elec       q    Type
REMARK                         _______ _______ _______ _____ _____    ______ ____
ROOT
ATOM      1  C   UNL     1     -11.717  12.663  65.173  0.00  0.00    +0.308 C 
ENDROOT
BRANCH   1   2
ATOM      2  C   UNL     1     -11.494  11.868  63.940  0.00  0.00    +0.431 C 
ATOM      3  F   UNL     1     -12.658  11.612  63.221  0.00  0.00    -0.167 F 
ATOM      4  F   UNL     1     -10.556  12.450  63.104  0.00  0.00    -0.167 F 
ATOM      5  F   UNL     1     -10.947  10.643  64.312  0.00  0.00    -0.167 F 
ENDBRANCH   1   2
BRANCH   1   6
ATOM      6  C   UNL     1     -12.189  14.054  64.998  0.00  0.00    +0.431 C 
ATOM      7  F   UNL     1     -13.402  14.167  65.675  0.00  0.00    -0.167 F 
ATOM      8  F   UNL     1     -11.346  15.011  65.556  0.00  0.00    -0.167 F 
ATOM      9  F   UNL     1     -12.423  14.430  63.704  0.00  0.00    -0.167 F 
ENDBRANCH   1   6
BRANCH   1  10
ATOM     10  O   UNL     1     -12.142  11.989  66.274  0.00  0.00    -0.309 OA
BRANCH  10  12
ATOM     11  F   UNL     1     -12.139  13.076  68.213  0.00  0.00    -0.198 F 
ATOM     12  C   UNL     1     -11.415  12.187  67.424  0.00  0.00    +0.341 C 
ENDBRANCH  10  12
ENDBRANCH   1  10
TORSDOF 4
ENDMDL
MODEL 7
REMARK VINA RESULT:      -4.3      1.570      3.745
REMARK  Name = 
REMARK  4 active torsions:
REMARK  status: ('A' for Active; 'I' for Inactive)
REMARK    1  A    between atoms: C_2  and  O_3
REMARK    2  A    between atoms: O_3  and  C_4
REMARK    3  A    between atoms: C_4  and  C_5
REMARK    4  A    between atoms: C_4  and  C_9
REMARK                            x       y       z     vdW  Elec       q    Type
REMARK                         _______ _______ _______ _____ _____    ______ ____
ROOT
ATOM      1  C   UNL     1     -12.765  15.176  72.182  0.00  0.00    +0.308 C 
ENDROOT
BRANCH   1   2
ATOM      2  C   UNL     1     -13.616  14.047  71.733  0.00  0.00    +0.431 C 
ATOM      3  F   UNL     1     -13.058  13.303  70.696  0.00  0.00    -0.167 F 
ATOM      4  F   UNL     1     -13.955  13.199  72.775  0.00  0.00    -0.167 F 
ATOM      5  F   UNL     1     -14.822  14.572  71.277  0.00  0.00    -0.167 F 
ENDBRANCH   1   2
BRANCH   1   6
ATOM      6  C   UNL     1     -11.877  15.790  71.170  0.00  0.00    +0.431 C 
ATOM      7  F   UNL     1     -12.636  15.986  70.019  0.00  0.00    -0.167 F 
ATOM      8  F   UNL     1     -11.394  17.045  71.530  0.00  0.00    -0.167 F 
ATOM      9  F   UNL     1     -10.798  15.032  70.807  0.00  0.00    -0.167 F 
ENDBRANCH   1   6
BRANCH   1  10
ATOM     10  O   UNL     1     -13.274  15.987  73.147  0.00  0.00    -0.309 OA
BRANCH  10  12
ATOM     11  F   UNL     1     -12.022  14.755  74.510  0.00  0.00    -0.198 F 
ATOM     12  C   UNL     1     -12.587  16.016  74.338  0.00  0.00    +0.341 C 
ENDBRANCH  10  12
ENDBRANCH   1  10
TORSDOF 4
ENDMDL
MODEL 8
REMARK VINA RESULT:      -4.2      5.709      7.673
REMARK  Name = 
REMARK  4 active torsions:
REMARK  status: ('A' for Active; 'I' for Inactive)
REMARK    1  A    between atoms: C_2  and  O_3
REMARK    2  A    between atoms: O_3  and  C_4
REMARK    3  A    between atoms: C_4  and  C_5
REMARK    4  A    between atoms: C_4  and  C_9
REMARK                            x       y       z     vdW  Elec       q    Type
REMARK                         _______ _______ _______ _____ _____    ______ ____
ROOT
ATOM      1  C   UNL     1     -11.881  12.665  65.369  0.00  0.00    +0.308 C 
ENDROOT
BRANCH   1   2
ATOM      2  C   UNL     1     -12.231  12.280  63.980  0.00  0.00    +0.431 C 
ATOM      3  F   UNL     1     -12.203  13.343  63.081  0.00  0.00    -0.167 F 
ATOM      4  F   UNL     1     -11.433  11.254  63.503  0.00  0.00    -0.167 F 
ATOM      5  F   UNL     1     -13.525  11.767  63.989  0.00  0.00    -0.167 F 
ENDBRANCH   1   2
BRANCH   1   6
ATOM      6  C   UNL     1     -12.314  14.005  65.823  0.00  0.00    +0.431 C 
ATOM      7  F   UNL     1     -12.291  13.997  67.216  0.00  0.00    -0.167 F 
ATOM      8  F   UNL     1     -11.465  15.036  65.430  0.00  0.00    -0.167 F 
ATOM      9  F   UNL     1     -13.580  14.363  65.452  0.00  0.00    -0.167 F 
ENDBRANCH   1   6
BRANCH   1  10
ATOM     10  O   UNL     1     -11.842  11.671  66.294  0.00  0.00    -0.309 OA
BRANCH  10  12
ATOM     11  F   UNL     1      -9.670  12.114  66.131  0.00  0.00    -0.198 F 
ATOM     12  C   UNL     1     -10.594  11.196  66.623  0.00  0.00    +0.341 C 
ENDBRANCH  10  12
ENDBRANCH   1  10
TORSDOF 4
ENDMDL
MODEL 9
REMARK VINA RESULT:      -4.1      1.823      2.212
REMARK  Name = 
REMARK  4 active torsions:
REMARK  status: ('A' for Active; 'I' for Inactive)
REMARK    1  A    between atoms: C_2  and  O_3
REMARK    2  A    between atoms: O_3  and  C_4
REMARK    3  A    between atoms: C_4  and  C_5
REMARK    4  A    between atoms: C_4  and  C_9
REMARK                            x       y       z     vdW  Elec       q    Type
REMARK                         _______ _______ _______ _____ _____    ______ ____
ROOT
ATOM      1  C   UNL     1     -12.508  14.361  71.386  0.00  0.00    +0.308 C 
ENDROOT
BRANCH   1   2
ATOM      2  C   UNL     1     -11.782  15.601  71.016  0.00  0.00    +0.431 C 
ATOM      3  F   UNL     1     -12.311  16.248  69.902  0.00  0.00    -0.167 F 
ATOM      4  F   UNL     1     -11.699  16.494  72.070  0.00  0.00    -0.167 F 
ATOM      5  F   UNL     1     -10.466  15.256  70.720  0.00  0.00    -0.167 F 
ENDBRANCH   1   2
BRANCH   1   6
ATOM      6  C   UNL     1     -13.483  14.460  72.494  0.00  0.00    +0.431 C 
ATOM      7  F   UNL     1     -12.758  14.463  73.683  0.00  0.00    -0.167 F 
ATOM      8  F   UNL     1     -14.223  15.640  72.491  0.00  0.00    -0.167 F 
ATOM      9  F   UNL     1     -14.374  13.427  72.578  0.00  0.00    -0.167 F 
ENDBRANCH   1   6
BRANCH   1  10
ATOM     10  O   UNL     1     -12.781  13.483  70.385  0.00  0.00    -0.309 OA
BRANCH  10  12
ATOM     11  F   UNL     1     -12.621  11.456  71.285  0.00  0.00    -0.198 F 
ATOM     12  C   UNL     1     -12.035  12.328  70.371  0.00  0.00    +0.341 C 
ENDBRANCH  10  12
ENDBRANCH   1  10
TORSDOF 4
ENDMDL
