MODEL 1
REMARK VINA RESULT:      -6.6      0.000      0.000
REMARK  Name = 
REMARK  2 active torsions:
REMARK  status: ('A' for Active; 'I' for Inactive)
REMARK    1  A    between atoms: C_2  and  C_3
REMARK    2  A    between atoms: C_22  and  C_23
REMARK                            x       y       z     vdW  Elec       q    Type
REMARK                         _______ _______ _______ _____ _____    ______ ____
ROOT
ATOM      1  C   UNL     1      -8.890   9.406  69.384  0.00  0.00    +0.180 C 
ATOM      2  C   UNL     1      -9.624  10.258  68.331  0.00  0.00    +0.037 C 
ATOM      3  C   UNL     1     -10.502  10.975  69.470  0.00  0.00    +0.003 C 
ATOM      4  C   UNL     1     -11.703  11.749  68.558  0.00  0.00    +0.001 C 
ATOM      5  C   UNL     1     -10.718  13.129  68.606  0.00  0.00    +0.004 C 
ATOM      6  C   UNL     1      -9.578  12.682  67.578  0.00  0.00    +0.000 C 
ATOM      7  C   UNL     1     -11.794  13.939  67.570  0.00  0.00    +0.019 C 
ATOM      8  C   UNL     1     -11.161  13.495  66.170  0.00  0.00    -0.043 C 
ATOM      9  C   UNL     1     -11.505  14.302  65.157  0.00  0.00    +0.010 C 
ATOM     10  C   UNL     1     -10.828  15.605  65.277  0.00  0.00    +0.101 C 
ATOM     11  C   UNL     1     -10.201  15.717  66.617  0.00  0.00    +0.050 C 
ATOM     12  N   UNL     1     -11.011  16.566  64.461  0.00  0.00    -0.034 NA
ATOM     13  O   UNL     1     -11.055  17.882  64.798  0.00  0.00    -0.143 OA
ATOM     14  C   UNL     1     -11.735  12.116  66.010  0.00  0.00    +0.022 C 
ATOM     15  C   UNL     1     -10.991  15.334  67.748  0.00  0.00    +0.010 C 
ATOM     16  C   UNL     1     -11.393  11.255  67.078  0.00  0.00    +0.004 C 
ATOM     17  C   UNL     1     -11.293   9.591  69.773  0.00  0.00    +0.004 C 
ATOM     18  C   UNL     1      -8.883  11.457  67.916  0.00  0.00    +0.003 C 
ATOM     19  C   UNL     1     -10.005   8.961  70.317  0.00  0.00    +0.043 C 
ATOM     20  O   UNL     1      -7.974  10.257  69.944  0.00  0.00    -0.212 OA
ENDROOT
BRANCH   1  22
ATOM     21  C   UNL     1      -7.696   7.252  68.431  0.00  0.00    -0.012 C 
ATOM     22  C   UNL     1      -8.283   8.229  68.781  0.00  0.00    -0.049 C 
ENDBRANCH   1  22
BRANCH   2  23
ATOM     23  C   UNL     1     -10.129   9.307  67.488  0.00  0.00    +0.003 C 
ATOM     24  C   UNL     1      -9.855   8.948  66.142  0.00  0.00    +0.000 C 
ENDBRANCH   2  23
TORSDOF 2
ENDMDL
MODEL 2
REMARK VINA RESULT:      -6.5      3.474      5.464
REMARK  Name = 
REMARK  2 active torsions:
REMARK  status: ('A' for Active; 'I' for Inactive)
REMARK    1  A    between atoms: C_2  and  C_3
REMARK    2  A    between atoms: C_22  and  C_23
REMARK                            x       y       z     vdW  Elec       q    Type
REMARK                         _______ _______ _______ _____ _____    ______ ____
ROOT
ATOM      1  C   UNL     1     -10.202  13.138  67.031  0.00  0.00    +0.180 C 
ATOM      2  C   UNL     1     -10.106  14.658  66.796  0.00  0.00    +0.037 C 
ATOM      3  C   UNL     1     -10.158  14.942  68.377  0.00  0.00    +0.003 C 
ATOM      4  C   UNL     1     -10.435  16.613  68.429  0.00  0.00    +0.001 C 
ATOM      5  C   UNL     1      -8.754  16.792  68.567  0.00  0.00    +0.004 C 
ATOM      6  C   UNL     1      -8.323  16.446  67.066  0.00  0.00    +0.000 C 
ATOM      7  C   UNL     1      -8.923  18.481  68.476  0.00  0.00    +0.019 C 
ATOM      8  C   UNL     1      -8.844  18.647  66.887  0.00  0.00    -0.043 C 
ATOM      9  C   UNL     1      -8.513  19.887  66.503  0.00  0.00    +0.010 C 
ATOM     10  C   UNL     1      -7.097  20.164  66.802  0.00  0.00    +0.101 C 
ATOM     11  C   UNL     1      -6.557  19.095  67.680  0.00  0.00    +0.050 C 
ATOM     12  N   UNL     1      -6.538  21.285  66.569  0.00  0.00    -0.034 NA
ATOM     13  O   UNL     1      -5.602  21.872  67.358  0.00  0.00    -0.143 OA
ATOM     14  C   UNL     1     -10.245  18.288  66.483  0.00  0.00    +0.022 C 
ATOM     15  C   UNL     1      -7.351  18.702  68.803  0.00  0.00    +0.010 C 
ATOM     16  C   UNL     1     -10.616  16.987  66.894  0.00  0.00    +0.004 C 
ATOM     17  C   UNL     1     -11.703  14.446  68.444  0.00  0.00    +0.004 C 
ATOM     18  C   UNL     1      -8.733  15.141  66.588  0.00  0.00    +0.003 C 
ATOM     19  C   UNL     1     -11.269  13.014  68.107  0.00  0.00    +0.043 C 
ATOM     20  O   UNL     1      -8.943  12.765  67.420  0.00  0.00    -0.212 OA
ENDROOT
BRANCH   1  22
ATOM     21  C   UNL     1     -10.993  11.738  64.936  0.00  0.00    -0.012 C 
ATOM     22  C   UNL     1     -10.659  12.447  65.833  0.00  0.00    -0.049 C 
ENDBRANCH   1  22
BRANCH   2  23
ATOM     23  C   UNL     1     -11.163  14.891  65.961  0.00  0.00    +0.003 C 
ATOM     24  C   UNL     1     -11.267  15.305  64.607  0.00  0.00    +0.000 C 
ENDBRANCH   2  23
TORSDOF 2
ENDMDL
MODEL 3
REMARK VINA RESULT:      -6.4      3.554      7.743
REMARK  Name = 
REMARK  2 active torsions:
REMARK  status: ('A' for Active; 'I' for Inactive)
REMARK    1  A    between atoms: C_2  and  C_3
REMARK    2  A    between atoms: C_22  and  C_23
REMARK                            x       y       z     vdW  Elec       q    Type
REMARK                         _______ _______ _______ _____ _____    ______ ____
ROOT
ATOM      1  C   UNL     1      -8.151  19.763  66.772  0.00  0.00    +0.180 C 
ATOM      2  C   UNL     1      -8.356  18.346  67.339  0.00  0.00    +0.037 C 
ATOM      3  C   UNL     1      -9.938  18.427  67.070  0.00  0.00    +0.003 C 
ATOM      4  C   UNL     1     -10.517  17.097  67.948  0.00  0.00    +0.001 C 
ATOM      5  C   UNL     1     -10.430  16.222  66.497  0.00  0.00    +0.004 C 
ATOM      6  C   UNL     1      -8.845  16.043  66.386  0.00  0.00    +0.000 C 
ATOM      7  C   UNL     1     -10.862  14.802  67.324  0.00  0.00    +0.019 C 
ATOM      8  C   UNL     1      -9.399  14.313  67.746  0.00  0.00    -0.043 C 
ATOM      9  C   UNL     1      -9.344  13.006  68.037  0.00  0.00    +0.010 C 
ATOM     10  C   UNL     1      -9.480  12.194  66.815  0.00  0.00    +0.101 C 
ATOM     11  C   UNL     1      -9.911  13.060  65.689  0.00  0.00    +0.050 C 
ATOM     12  N   UNL     1      -9.496  10.921  66.819  0.00  0.00    -0.034 NA
ATOM     13  O   UNL     1     -10.262  10.145  66.008  0.00  0.00    -0.143 OA
ATOM     14  C   UNL     1      -9.137  15.170  68.951  0.00  0.00    +0.022 C 
ATOM     15  C   UNL     1     -10.984  13.975  65.936  0.00  0.00    +0.010 C 
ATOM     16  C   UNL     1      -9.206  16.552  68.664  0.00  0.00    +0.004 C 
ATOM     17  C   UNL     1     -10.104  19.559  68.222  0.00  0.00    +0.004 C 
ATOM     18  C   UNL     1      -8.081  17.273  66.371  0.00  0.00    +0.003 C 
ATOM     19  C   UNL     1      -9.301  20.554  67.376  0.00  0.00    +0.043 C 
ATOM     20  O   UNL     1      -8.208  19.607  65.412  0.00  0.00    -0.212 OA
ENDROOT
BRANCH   1  22
ATOM     21  C   UNL     1      -5.895  20.934  67.493  0.00  0.00    -0.012 C 
ATOM     22  C   UNL     1      -6.893  20.337  67.229  0.00  0.00    -0.049 C 
ENDBRANCH   1  22
BRANCH   2  23
ATOM     23  C   UNL     1      -7.804  18.447  68.586  0.00  0.00    +0.003 C 
ATOM     24  C   UNL     1      -6.642  17.900  69.190  0.00  0.00    +0.000 C 
ENDBRANCH   2  23
TORSDOF 2
ENDMDL
MODEL 4
REMARK VINA RESULT:      -6.2      2.009      3.354
REMARK  Name = 
REMARK  2 active torsions:
REMARK  status: ('A' for Active; 'I' for Inactive)
REMARK    1  A    between atoms: C_2  and  C_3
REMARK    2  A    between atoms: C_22  and  C_23
REMARK                            x       y       z     vdW  Elec       q    Type
REMARK                         _______ _______ _______ _____ _____    ______ ____
ROOT
ATOM      1  C   UNL     1      -9.654   7.302  69.948  0.00  0.00    +0.180 C 
ATOM      2  C   UNL     1     -10.232   8.679  69.570  0.00  0.00    +0.037 C 
ATOM      3  C   UNL     1      -8.802   9.173  69.029  0.00  0.00    +0.003 C 
ATOM      4  C   UNL     1      -9.042  10.842  68.861  0.00  0.00    +0.001 C 
ATOM      5  C   UNL     1      -9.419  10.528  67.238  0.00  0.00    +0.004 C 
ATOM      6  C   UNL     1     -10.867   9.873  67.420  0.00  0.00    +0.000 C 
ATOM      7  C   UNL     1      -9.827  12.163  67.012  0.00  0.00    +0.019 C 
ATOM      8  C   UNL     1     -11.371  12.086  67.421  0.00  0.00    -0.043 C 
ATOM      9  C   UNL     1     -12.094  13.108  66.945  0.00  0.00    +0.010 C 
ATOM     10  C   UNL     1     -12.269  12.987  65.486  0.00  0.00    +0.101 C 
ATOM     11  C   UNL     1     -11.364  11.932  64.964  0.00  0.00    +0.050 C 
ATOM     12  N   UNL     1     -12.887  13.849  64.782  0.00  0.00    -0.034 NA
ATOM     13  O   UNL     1     -12.538  14.230  63.525  0.00  0.00    -0.143 OA
ATOM     14  C   UNL     1     -11.281  12.111  68.920  0.00  0.00    +0.022 C 
ATOM     15  C   UNL     1     -10.006  11.947  65.416  0.00  0.00    +0.010 C 
ATOM     16  C   UNL     1     -10.509  11.046  69.439  0.00  0.00    +0.004 C 
ATOM     17  C   UNL     1      -8.201   9.174  70.538  0.00  0.00    +0.004 C 
ATOM     18  C   UNL     1     -10.914   8.699  68.267  0.00  0.00    +0.003 C 
ATOM     19  C   UNL     1      -8.323   7.646  70.599  0.00  0.00    +0.043 C 
ATOM     20  O   UNL     1      -9.558   6.626  68.761  0.00  0.00    -0.212 OA
ENDROOT
BRANCH   1  22
ATOM     21  C   UNL     1     -11.062   5.956  71.732  0.00  0.00    -0.012 C 
ATOM     22  C   UNL     1     -10.496   6.627  70.925  0.00  0.00    -0.049 C 
ENDBRANCH   1  22
BRANCH   2  23
ATOM     23  C   UNL     1     -10.771   9.105  70.753  0.00  0.00    +0.003 C 
ATOM     24  C   UNL     1     -12.098   9.355  71.189  0.00  0.00    +0.000 C 
ENDBRANCH   2  23
TORSDOF 2
ENDMDL
MODEL 5
REMARK VINA RESULT:      -6.2      2.641      6.729
REMARK  Name = 
REMARK  2 active torsions:
REMARK  status: ('A' for Active; 'I' for Inactive)
REMARK    1  A    between atoms: C_2  and  C_3
REMARK    2  A    between atoms: C_22  and  C_23
REMARK                            x       y       z     vdW  Elec       q    Type
REMARK                         _______ _______ _______ _____ _____    ______ ____
ROOT
ATOM      1  C   UNL     1     -10.008  15.703  66.359  0.00  0.00    +0.180 C 
ATOM      2  C   UNL     1     -10.489  14.571  67.286  0.00  0.00    +0.037 C 
ATOM      3  C   UNL     1     -10.599  13.554  66.047  0.00  0.00    +0.003 C 
ATOM      4  C   UNL     1     -11.474  12.267  66.720  0.00  0.00    +0.001 C 
ATOM      5  C   UNL     1      -9.976  11.538  67.038  0.00  0.00    +0.004 C 
ATOM      6  C   UNL     1      -9.488  12.449  68.259  0.00  0.00    +0.000 C 
ATOM      7  C   UNL     1     -10.761  10.277  67.865  0.00  0.00    +0.019 C 
ATOM      8  C   UNL     1     -10.792  10.929  69.325  0.00  0.00    -0.043 C 
ATOM      9  C   UNL     1     -10.955  10.025  70.301  0.00  0.00    +0.010 C 
ATOM     10  C   UNL     1      -9.734   9.216  70.470  0.00  0.00    +0.101 C 
ATOM     11  C   UNL     1      -8.813   9.464  69.333  0.00  0.00    +0.050 C 
ATOM     12  N   UNL     1      -9.638   8.262  71.309  0.00  0.00    -0.034 NA
ATOM     13  O   UNL     1      -8.964   7.101  71.099  0.00  0.00    -0.143 OA
ATOM     14  C   UNL     1     -11.971  11.852  69.211  0.00  0.00    +0.022 C 
ATOM     15  C   UNL     1      -9.375   9.452  68.016  0.00  0.00    +0.010 C 
ATOM     16  C   UNL     1     -11.822  12.803  68.176  0.00  0.00    +0.004 C 
ATOM     17  C   UNL     1     -11.848  14.391  65.434  0.00  0.00    +0.004 C 
ATOM     18  C   UNL     1      -9.399  13.867  67.978  0.00  0.00    +0.003 C 
ATOM     19  C   UNL     1     -10.924  15.582  65.151  0.00  0.00    +0.043 C 
ATOM     20  O   UNL     1      -8.691  15.420  66.116  0.00  0.00    -0.212 OA
ENDROOT
BRANCH   1  22
ATOM     21  C   UNL     1     -10.263  18.135  67.359  0.00  0.00    -0.012 C 
ATOM     22  C   UNL     1     -10.209  17.008  66.973  0.00  0.00    -0.049 C 
ENDBRANCH   1  22
BRANCH   2  23
ATOM     23  C   UNL     1     -11.579  15.132  67.891  0.00  0.00    +0.003 C 
ATOM     24  C   UNL     1     -11.855  15.548  69.220  0.00  0.00    +0.000 C 
ENDBRANCH   2  23
TORSDOF 2
ENDMDL
MODEL 6
REMARK VINA RESULT:      -6.1      1.453      2.609
REMARK  Name = 
REMARK  2 active torsions:
REMARK  status: ('A' for Active; 'I' for Inactive)
REMARK    1  A    between atoms: C_2  and  C_3
REMARK    2  A    between atoms: C_22  and  C_23
REMARK                            x       y       z     vdW  Elec       q    Type
REMARK                         _______ _______ _______ _____ _____    ______ ____
ROOT
ATOM      1  C   UNL     1     -10.618   8.867  70.005  0.00  0.00    +0.180 C 
ATOM      2  C   UNL     1     -10.067   9.946  69.054  0.00  0.00    +0.037 C 
ATOM      3  C   UNL     1     -10.897   9.334  67.821  0.00  0.00    +0.003 C 
ATOM      4  C   UNL     1     -10.199  10.127  66.495  0.00  0.00    +0.001 C 
ATOM      5  C   UNL     1     -11.454  11.259  66.631  0.00  0.00    +0.004 C 
ATOM      6  C   UNL     1     -10.970  12.041  67.939  0.00  0.00    +0.000 C 
ATOM      7  C   UNL     1     -10.744  12.200  65.407  0.00  0.00    +0.019 C 
ATOM      8  C   UNL     1      -9.787  13.100  66.318  0.00  0.00    -0.043 C 
ATOM      9  C   UNL     1      -9.406  14.236  65.719  0.00  0.00    +0.010 C 
ATOM     10  C   UNL     1     -10.534  15.179  65.624  0.00  0.00    +0.101 C 
ATOM     11  C   UNL     1     -11.797  14.478  65.965  0.00  0.00    +0.050 C 
ATOM     12  N   UNL     1     -10.448  16.320  65.064  0.00  0.00    -0.034 NA
ATOM     13  O   UNL     1     -11.425  16.905  64.323  0.00  0.00    -0.143 OA
ATOM     14  C   UNL     1      -8.632  12.168  66.545  0.00  0.00    +0.022 C 
ATOM     15  C   UNL     1     -12.020  13.196  65.367  0.00  0.00    +0.010 C 
ATOM     16  C   UNL     1      -9.019  10.958  67.164  0.00  0.00    +0.004 C 
ATOM     17  C   UNL     1      -9.965   8.005  67.816  0.00  0.00    +0.004 C 
ATOM     18  C   UNL     1     -10.792  11.223  69.121  0.00  0.00    +0.003 C 
ATOM     19  C   UNL     1     -10.529   7.592  69.181  0.00  0.00    +0.043 C 
ATOM     20  O   UNL     1     -11.891   9.277  70.298  0.00  0.00    -0.212 OA
ENDROOT
BRANCH   1  22
ATOM     21  C   UNL     1      -9.199   8.487  72.201  0.00  0.00    -0.012 C 
ATOM     22  C   UNL     1      -9.777   8.724  71.185  0.00  0.00    -0.049 C 
ENDBRANCH   1  22
BRANCH   2  23
ATOM     23  C   UNL     1      -8.715   9.794  69.192  0.00  0.00    +0.003 C 
ATOM     24  C   UNL     1      -7.670  10.663  69.603  0.00  0.00    +0.000 C 
ENDBRANCH   2  23
TORSDOF 2
ENDMDL
MODEL 7
REMARK VINA RESULT:      -6.1      3.613      5.713
REMARK  Name = 
REMARK  2 active torsions:
REMARK  status: ('A' for Active; 'I' for Inactive)
REMARK    1  A    between atoms: C_2  and  C_3
REMARK    2  A    between atoms: C_22  and  C_23
REMARK                            x       y       z     vdW  Elec       q    Type
REMARK                         _______ _______ _______ _____ _____    ______ ____
ROOT
ATOM      1  C   UNL     1     -11.584  13.609  67.520  0.00  0.00    +0.180 C 
ATOM      2  C   UNL     1     -10.230  14.345  67.508  0.00  0.00    +0.037 C 
ATOM      3  C   UNL     1     -10.812  15.474  66.524  0.00  0.00    +0.003 C 
ATOM      4  C   UNL     1      -9.401  16.271  66.024  0.00  0.00    +0.001 C 
ATOM      5  C   UNL     1      -9.694  17.374  67.279  0.00  0.00    +0.004 C 
ATOM      6  C   UNL     1      -9.289  16.469  68.533  0.00  0.00    +0.000 C 
ATOM      7  C   UNL     1      -8.219  18.150  66.946  0.00  0.00    +0.019 C 
ATOM      8  C   UNL     1      -7.268  17.276  67.890  0.00  0.00    -0.043 C 
ATOM      9  C   UNL     1      -6.118  17.893  68.194  0.00  0.00    +0.010 C 
ATOM     10  C   UNL     1      -6.356  19.007  69.129  0.00  0.00    +0.101 C 
ATOM     11  C   UNL     1      -7.813  19.273  69.223  0.00  0.00    +0.050 C 
ATOM     12  N   UNL     1      -5.433  19.778  69.549  0.00  0.00    -0.034 NA
ATOM     13  O   UNL     1      -5.567  21.112  69.770  0.00  0.00    -0.143 OA
ATOM     14  C   UNL     1      -7.046  16.058  67.040  0.00  0.00    +0.022 C 
ATOM     15  C   UNL     1      -8.551  19.336  67.998  0.00  0.00    +0.010 C 
ATOM     16  C   UNL     1      -8.251  15.403  66.697  0.00  0.00    +0.004 C 
ATOM     17  C   UNL     1     -10.917  14.402  65.309  0.00  0.00    +0.004 C 
ATOM     18  C   UNL     1     -10.024  15.227  68.665  0.00  0.00    +0.003 C 
ATOM     19  C   UNL     1     -12.015  13.641  66.062  0.00  0.00    +0.043 C 
ATOM     20  O   UNL     1     -12.370  14.339  68.371  0.00  0.00    -0.212 OA
ENDROOT
BRANCH   1  22
ATOM     21  C   UNL     1     -11.460  11.096  68.325  0.00  0.00    -0.012 C 
ATOM     22  C   UNL     1     -11.426  12.222  67.934  0.00  0.00    -0.049 C 
ENDBRANCH   1  22
BRANCH   2  23
ATOM     23  C   UNL     1      -9.369  13.365  67.094  0.00  0.00    +0.003 C 
ATOM     24  C   UNL     1      -8.302  12.672  67.722  0.00  0.00    +0.000 C 
ENDBRANCH   2  23
TORSDOF 2
ENDMDL
MODEL 8
REMARK VINA RESULT:      -6.0      4.052      6.964
REMARK  Name = 
REMARK  2 active torsions:
REMARK  status: ('A' for Active; 'I' for Inactive)
REMARK    1  A    between atoms: C_2  and  C_3
REMARK    2  A    between atoms: C_22  and  C_23
REMARK                            x       y       z     vdW  Elec       q    Type
REMARK                         _______ _______ _______ _____ _____    ______ ____
ROOT
ATOM      1  C   UNL     1      -5.494  18.168  67.762  0.00  0.00    +0.180 C 
ATOM      2  C   UNL     1      -6.682  17.216  67.995  0.00  0.00    +0.037 C 
ATOM      3  C   UNL     1      -7.724  18.338  67.506  0.00  0.00    +0.003 C 
ATOM      4  C   UNL     1      -9.208  17.684  67.999  0.00  0.00    +0.001 C 
ATOM      5  C   UNL     1      -9.338  17.043  66.434  0.00  0.00    +0.004 C 
ATOM      6  C   UNL     1      -8.262  15.865  66.536  0.00  0.00    +0.000 C 
ATOM      7  C   UNL     1     -10.760  16.226  66.883  0.00  0.00    +0.019 C 
ATOM      8  C   UNL     1     -10.101  14.871  67.419  0.00  0.00    -0.043 C 
ATOM      9  C   UNL     1     -10.960  13.844  67.448  0.00  0.00    +0.010 C 
ATOM     10  C   UNL     1     -11.270  13.386  66.082  0.00  0.00    +0.101 C 
ATOM     11  C   UNL     1     -10.759  14.374  65.099  0.00  0.00    +0.050 C 
ATOM     12  N   UNL     1     -12.090  12.445  65.828  0.00  0.00    -0.034 NA
ATOM     13  O   UNL     1     -12.941  12.411  64.770  0.00  0.00    -0.143 OA
ATOM     14  C   UNL     1      -9.666  15.280  68.798  0.00  0.00    +0.022 C 
ATOM     15  C   UNL     1     -11.028  15.757  65.355  0.00  0.00    +0.010 C 
ATOM     16  C   UNL     1      -8.770  16.373  68.786  0.00  0.00    +0.004 C 
ATOM     17  C   UNL     1      -7.416  19.238  68.822  0.00  0.00    +0.004 C 
ATOM     18  C   UNL     1      -6.919  16.279  66.886  0.00  0.00    +0.003 C 
ATOM     19  C   UNL     1      -5.986  19.491  68.327  0.00  0.00    +0.043 C 
ATOM     20  O   UNL     1      -5.297  18.156  66.407  0.00  0.00    -0.212 OA
ENDROOT
BRANCH   1  22
ATOM     21  C   UNL     1      -3.284  17.529  69.061  0.00  0.00    -0.012 C 
ATOM     22  C   UNL     1      -4.322  17.742  68.514  0.00  0.00    -0.049 C 
ENDBRANCH   1  22
BRANCH   2  23
ATOM     23  C   UNL     1      -6.523  16.866  69.307  0.00  0.00    +0.003 C 
ATOM     24  C   UNL     1      -6.161  15.659  69.961  0.00  0.00    +0.000 C 
ENDBRANCH   2  23
TORSDOF 2
ENDMDL
MODEL 9
REMARK VINA RESULT:      -5.9      5.358      8.890
REMARK  Name = 
REMARK  2 active torsions:
REMARK  status: ('A' for Active; 'I' for Inactive)
REMARK    1  A    between atoms: C_2  and  C_3
REMARK    2  A    between atoms: C_22  and  C_23
REMARK                            x       y       z     vdW  Elec       q    Type
REMARK                         _______ _______ _______ _____ _____    ______ ____
ROOT
ATOM      1  C   UNL     1      -4.348  19.772  67.616  0.00  0.00    +0.180 C 
ATOM      2  C   UNL     1      -5.794  19.382  67.972  0.00  0.00    +0.037 C 
ATOM      3  C   UNL     1      -6.264  19.587  66.449  0.00  0.00    +0.003 C 
ATOM      4  C   UNL     1      -7.953  19.571  66.593  0.00  0.00    +0.001 C 
ATOM      5  C   UNL     1      -7.874  17.917  66.227  0.00  0.00    +0.004 C 
ATOM      6  C   UNL     1      -7.292  17.363  67.609  0.00  0.00    +0.000 C 
ATOM      7  C   UNL     1      -9.546  17.773  66.497  0.00  0.00    +0.019 C 
ATOM      8  C   UNL     1      -9.512  17.463  68.065  0.00  0.00    -0.043 C 
ATOM      9  C   UNL     1     -10.630  16.872  68.509  0.00  0.00    +0.010 C 
ATOM     10  C   UNL     1     -10.708  15.480  68.032  0.00  0.00    +0.101 C 
ATOM     11  C   UNL     1      -9.676  15.254  66.990  0.00  0.00    +0.050 C 
ATOM     12  N   UNL     1     -11.691  14.709  68.283  0.00  0.00    -0.034 NA
ATOM     13  O   UNL     1     -12.207  13.793  67.422  0.00  0.00    -0.143 OA
ATOM     14  C   UNL     1      -9.339  18.841  68.636  0.00  0.00    +0.022 C 
ATOM     15  C   UNL     1      -9.549  16.243  65.964  0.00  0.00    +0.010 C 
ATOM     16  C   UNL     1      -8.171  19.484  68.166  0.00  0.00    +0.004 C 
ATOM     17  C   UNL     1      -6.035  21.190  66.564  0.00  0.00    +0.004 C 
ATOM     18  C   UNL     1      -6.023  17.930  68.020  0.00  0.00    +0.003 C 
ATOM     19  C   UNL     1      -4.522  20.974  66.701  0.00  0.00    +0.043 C 
ATOM     20  O   UNL     1      -3.825  18.659  67.013  0.00  0.00    -0.212 OA
ENDROOT
BRANCH   1  22
ATOM     21  C   UNL     1      -2.868  20.553  69.660  0.00  0.00    -0.012 C 
ATOM     22  C   UNL     1      -3.605  20.184  68.798  0.00  0.00    -0.049 C 
ENDBRANCH   1  22
BRANCH   2  23
ATOM     23  C   UNL     1      -6.097  20.265  68.972  0.00  0.00    +0.003 C 
ATOM     24  C   UNL     1      -6.304  20.127  70.370  0.00  0.00    +0.000 C 
ENDBRANCH   2  23
TORSDOF 2
ENDMDL
