MODEL 1
REMARK VINA RESULT:      -8.8      0.000      0.000
REMARK  Name = 
REMARK  9 active torsions:
REMARK  status: ('A' for Active; 'I' for Inactive)
REMARK    1  A    between atoms: C_2  and  O_3
REMARK    2  A    between atoms: C_2  and  C_28
REMARK    3  A    between atoms: O_3  and  C_4
REMARK    4  A    between atoms: N_8  and  C_9
REMARK    5  A    between atoms: C_9  and  C_10
REMARK    6  A    between atoms: N_12  and  P_13
REMARK    7  A    between atoms: C_20  and  C_21
REMARK    8  A    between atoms: C_30  and  C_31
REMARK    9  A    between atoms: C_36  and  C_37
REMARK                            x       y       z     vdW  Elec       q    Type
REMARK                         _______ _______ _______ _____ _____    ______ ____
ROOT
ATOM      1  C   UNL     1      -9.772  12.329  68.485  0.00  0.00    +0.255 C 
ATOM      2  C   UNL     1     -10.989  13.548  68.052  0.00  0.00    +0.138 C 
ATOM      3  N   UNL     1      -9.908  14.699  67.972  0.00  0.00    -0.258 NA
ATOM      4  C   UNL     1      -9.038  14.548  66.934  0.00  0.00    +0.105 C 
ATOM      5  C   UNL     1      -8.150  13.329  67.166  0.00  0.00    +0.162 C 
ATOM      6  O   UNL     1      -9.098  12.318  67.084  0.00  0.00    -0.328 OA
ENDROOT
BRANCH   2   7
ATOM      7  C   UNL     1     -11.004  13.218  66.464  0.00  0.00    -0.003 A 
ATOM      8  C   UNL     1     -11.916  12.213  66.128  0.00  0.00    -0.001 A 
ATOM      9  C   UNL     1     -12.075  12.020  64.761  0.00  0.00    +0.029 A 
ATOM     10  C   UNL     1     -12.218  13.166  64.002  0.00  0.00    +0.140 A 
ATOM     11  F   UNL     1     -12.320  13.103  62.643  0.00  0.00    -0.204 F 
ATOM     12  C   UNL     1     -12.007  14.399  64.606  0.00  0.00    +0.029 A 
ATOM     13  C   UNL     1     -11.398  14.388  65.816  0.00  0.00    -0.001 A 
ENDBRANCH   2   7
BRANCH   1  14
ATOM     14  O   UNL     1     -10.713  11.146  68.082  0.00  0.00    -0.327 OA
BRANCH  14  16
ATOM     15  C   UNL     1     -10.099   9.062  67.172  0.00  0.00    +0.037 C 
ATOM     16  C   UNL     1      -9.465  10.229  68.223  0.00  0.00    +0.140 C 
BRANCH  16  17
ATOM     17  C   UNL     1     -10.064   9.491  69.575  0.00  0.00    +0.005 A 
ATOM     18  C   UNL     1     -10.927  10.191  70.328  0.00  0.00    +0.002 A 
ATOM     19  C   UNL     1     -11.649   9.463  71.273  0.00  0.00    +0.071 A 
ATOM     20  C   UNL     1     -11.430   8.095  71.395  0.00  0.00    +0.008 A 
ATOM     21  C   UNL     1     -10.573   7.413  70.540  0.00  0.00    +0.071 A 
ATOM     22  C   UNL     1      -9.916   8.128  69.546  0.00  0.00    +0.002 A 
BRANCH  21  23
ATOM     23  C   UNL     1     -10.586   5.939  70.387  0.00  0.00    +0.419 C 
ATOM     24  F   UNL     1      -9.266   5.552  70.226  0.00  0.00    -0.166 F 
ATOM     25  F   UNL     1     -11.161   5.367  71.488  0.00  0.00    -0.166 F 
ATOM     26  F   UNL     1     -11.303   5.658  69.230  0.00  0.00    -0.166 F 
ENDBRANCH  21  23
BRANCH  19  27
ATOM     27  C   UNL     1     -13.022   9.916  71.670  0.00  0.00    +0.419 C 
ATOM     28  F   UNL     1     -13.557   9.099  72.634  0.00  0.00    -0.166 F 
ATOM     29  F   UNL     1     -12.984  11.247  72.074  0.00  0.00    -0.166 F 
ATOM     30  F   UNL     1     -13.835   9.882  70.565  0.00  0.00    -0.166 F 
ENDBRANCH  19  27
ENDBRANCH  16  17
ENDBRANCH  14  16
ENDBRANCH   1  14
BRANCH   3  31
ATOM     31  C   UNL     1     -10.496  15.914  68.309  0.00  0.00    +0.141 C 
BRANCH  31  32
ATOM     32  C   UNL     1     -11.319  16.026  69.505  0.00  0.00    +0.180 A 
ATOM     33  N   UNL     1     -10.807  16.226  70.746  0.00  0.00    -0.173 NA
ATOM     34  C   UNL     1     -11.632  15.594  71.618  0.00  0.00    +0.376 A 
ATOM     35  O   UNL     1     -11.371  15.163  72.774  0.00  0.00    -0.242 OA
ATOM     36  N   UNL     1     -12.826  15.492  70.983  0.00  0.00    -0.108 N 
ATOM     37  N   UNL     1     -12.650  15.931  69.737  0.00  0.00    -0.140 NA
BRANCH  36  38
ATOM     38  P   UNL     1     -14.308  15.257  71.885  0.00  0.00    +0.516 P 
ATOM     39  O   UNL     1     -14.399  13.720  72.564  0.00  0.00    -0.119 OA
ATOM     40  O   UNL     1     -14.434  16.368  73.164  0.00  0.00    -0.119 OA
ATOM     41  O   UNL     1     -15.525  15.449  71.022  0.00  0.00    -0.227 OA
ENDBRANCH  36  38
ENDBRANCH  31  32
ENDBRANCH   3  31
TORSDOF 9
ENDMDL
MODEL 2
REMARK VINA RESULT:      -8.7      1.281      2.652
REMARK  Name = 
REMARK  9 active torsions:
REMARK  status: ('A' for Active; 'I' for Inactive)
REMARK    1  A    between atoms: C_2  and  O_3
REMARK    2  A    between atoms: C_2  and  C_28
REMARK    3  A    between atoms: O_3  and  C_4
REMARK    4  A    between atoms: N_8  and  C_9
REMARK    5  A    between atoms: C_9  and  C_10
REMARK    6  A    between atoms: N_12  and  P_13
REMARK    7  A    between atoms: C_20  and  C_21
REMARK    8  A    between atoms: C_30  and  C_31
REMARK    9  A    between atoms: C_36  and  C_37
REMARK                            x       y       z     vdW  Elec       q    Type
REMARK                         _______ _______ _______ _____ _____    ______ ____
ROOT
ATOM      1  C   UNL     1      -9.271  12.594  68.552  0.00  0.00    +0.255 C 
ATOM      2  C   UNL     1     -10.727  13.479  68.049  0.00  0.00    +0.138 C 
ATOM      3  N   UNL     1      -9.915  14.813  67.805  0.00  0.00    -0.258 NA
ATOM      4  C   UNL     1      -9.054  14.734  66.752  0.00  0.00    +0.105 C 
ATOM      5  C   UNL     1      -7.924  13.759  67.070  0.00  0.00    +0.162 C 
ATOM      6  O   UNL     1      -8.639  12.571  67.131  0.00  0.00    -0.328 OA
ENDROOT
BRANCH   2   7
ATOM      7  C   UNL     1     -10.705  12.982  66.504  0.00  0.00    -0.003 A 
ATOM      8  C   UNL     1     -11.293  11.726  66.331  0.00  0.00    -0.001 A 
ATOM      9  C   UNL     1     -11.440  11.343  65.003  0.00  0.00    +0.029 A 
ATOM     10  C   UNL     1     -11.941  12.307  64.149  0.00  0.00    +0.140 A 
ATOM     11  F   UNL     1     -12.072  12.064  62.813  0.00  0.00    -0.204 F 
ATOM     12  C   UNL     1     -12.079  13.608  64.615  0.00  0.00    +0.029 A 
ATOM     13  C   UNL     1     -11.449  13.909  65.776  0.00  0.00    -0.001 A 
ENDBRANCH   2   7
BRANCH   1  14
ATOM     14  O   UNL     1      -9.950  11.205  68.312  0.00  0.00    -0.327 OA
BRANCH  14  16
ATOM     15  C   UNL     1      -8.533   9.401  67.777  0.00  0.00    +0.037 C 
ATOM     16  C   UNL     1      -8.692  10.580  68.981  0.00  0.00    +0.140 C 
BRANCH  16  17
ATOM     17  C   UNL     1      -9.600   9.609  69.962  0.00  0.00    +0.005 A 
ATOM     18  C   UNL     1      -8.945   8.730  70.738  0.00  0.00    +0.002 A 
ATOM     19  C   UNL     1      -9.684   8.147  71.766  0.00  0.00    +0.071 A 
ATOM     20  C   UNL     1     -11.026   8.481  71.917  0.00  0.00    +0.008 A 
ATOM     21  C   UNL     1     -11.632   9.450  71.126  0.00  0.00    +0.071 A 
ATOM     22  C   UNL     1     -10.870  10.088  70.155  0.00  0.00    +0.002 A 
BRANCH  21  23
ATOM     23  C   UNL     1     -12.918  10.094  71.479  0.00  0.00    +0.419 C 
ATOM     24  F   UNL     1     -13.363   9.471  72.634  0.00  0.00    -0.166 F 
ATOM     25  F   UNL     1     -12.728  11.437  71.658  0.00  0.00    -0.166 F 
ATOM     26  F   UNL     1     -13.800   9.836  70.436  0.00  0.00    -0.166 F 
ENDBRANCH  21  23
BRANCH  19  27
ATOM     27  C   UNL     1      -8.997   7.724  73.029  0.00  0.00    +0.419 C 
ATOM     28  F   UNL     1      -8.047   8.639  73.410  0.00  0.00    -0.166 F 
ATOM     29  F   UNL     1      -9.937   7.498  74.028  0.00  0.00    -0.166 F 
ATOM     30  F   UNL     1      -8.380   6.517  72.813  0.00  0.00    -0.166 F 
ENDBRANCH  19  27
ENDBRANCH  16  17
ENDBRANCH  14  16
ENDBRANCH   1  14
BRANCH   3  31
ATOM     31  C   UNL     1     -10.739  15.910  68.042  0.00  0.00    +0.141 C 
BRANCH  31  32
ATOM     32  C   UNL     1     -11.476  16.019  69.292  0.00  0.00    +0.180 A 
ATOM     33  N   UNL     1     -10.879  16.230  70.493  0.00  0.00    -0.173 NA
ATOM     34  C   UNL     1     -11.634  15.594  71.424  0.00  0.00    +0.376 A 
ATOM     35  O   UNL     1     -11.288  15.171  72.560  0.00  0.00    -0.242 OA
ATOM     36  N   UNL     1     -12.869  15.478  70.875  0.00  0.00    -0.108 N 
ATOM     37  N   UNL     1     -12.786  15.913  69.618  0.00  0.00    -0.140 NA
BRANCH  36  38
ATOM     38  P   UNL     1     -14.282  15.234  71.882  0.00  0.00    +0.516 P 
ATOM     39  O   UNL     1     -14.324  13.690  72.549  0.00  0.00    -0.119 OA
ATOM     40  O   UNL     1     -14.312  16.331  73.179  0.00  0.00    -0.119 OA
ATOM     41  O   UNL     1     -15.558  15.436  71.113  0.00  0.00    -0.227 OA
ENDBRANCH  36  38
ENDBRANCH  31  32
ENDBRANCH   3  31
TORSDOF 9
ENDMDL
MODEL 3
REMARK VINA RESULT:      -8.3      3.168      4.032
REMARK  Name = 
REMARK  9 active torsions:
REMARK  status: ('A' for Active; 'I' for Inactive)
REMARK    1  A    between atoms: C_2  and  O_3
REMARK    2  A    between atoms: C_2  and  C_28
REMARK    3  A    between atoms: O_3  and  C_4
REMARK    4  A    between atoms: N_8  and  C_9
REMARK    5  A    between atoms: C_9  and  C_10
REMARK    6  A    between atoms: N_12  and  P_13
REMARK    7  A    between atoms: C_20  and  C_21
REMARK    8  A    between atoms: C_30  and  C_31
REMARK    9  A    between atoms: C_36  and  C_37
REMARK                            x       y       z     vdW  Elec       q    Type
REMARK                         _______ _______ _______ _____ _____    ______ ____
ROOT
ATOM      1  C   UNL     1      -9.962  12.471  68.622  0.00  0.00    +0.255 C 
ATOM      2  C   UNL     1     -11.179  13.689  68.186  0.00  0.00    +0.138 C 
ATOM      3  N   UNL     1     -10.110  14.854  68.175  0.00  0.00    -0.258 NA
ATOM      4  C   UNL     1      -9.205  14.743  67.161  0.00  0.00    +0.105 C 
ATOM      5  C   UNL     1      -8.310  13.527  67.387  0.00  0.00    +0.162 C 
ATOM      6  O   UNL     1      -9.242  12.510  67.244  0.00  0.00    -0.328 OA
ENDROOT
BRANCH   2   7
ATOM      7  C   UNL     1     -11.139  13.407  66.588  0.00  0.00    -0.003 A 
ATOM      8  C   UNL     1     -12.007  12.384  66.198  0.00  0.00    -0.001 A 
ATOM      9  C   UNL     1     -12.122  12.226  64.821  0.00  0.00    +0.029 A 
ATOM     10  C   UNL     1     -12.280  13.390  64.092  0.00  0.00    +0.140 A 
ATOM     11  F   UNL     1     -12.342  13.363  62.730  0.00  0.00    -0.204 F 
ATOM     12  C   UNL     1     -12.127  14.610  64.738  0.00  0.00    +0.029 A 
ATOM     13  C   UNL     1     -11.552  14.582  65.964  0.00  0.00    -0.001 A 
ENDBRANCH   2   7
BRANCH   1  14
ATOM     14  O   UNL     1     -10.876  11.291  68.154  0.00  0.00    -0.327 OA
BRANCH  14  16
ATOM     15  C   UNL     1     -10.233   9.235  67.201  0.00  0.00    +0.037 C 
ATOM     16  C   UNL     1      -9.612  10.391  68.271  0.00  0.00    +0.140 C 
BRANCH  16  17
ATOM     17  C   UNL     1     -10.193   9.617  69.611  0.00  0.00    +0.005 A 
ATOM     18  C   UNL     1     -11.060  10.291  70.384  0.00  0.00    +0.002 A 
ATOM     19  C   UNL     1     -11.767   9.534  71.318  0.00  0.00    +0.071 A 
ATOM     20  C   UNL     1     -11.530   8.166  71.410  0.00  0.00    +0.008 A 
ATOM     21  C   UNL     1     -10.670   7.513  70.535  0.00  0.00    +0.071 A 
ATOM     22  C   UNL     1     -10.028   8.258  69.553  0.00  0.00    +0.002 A 
BRANCH  21  23
ATOM     23  C   UNL     1     -10.665   6.043  70.352  0.00  0.00    +0.419 C 
ATOM     24  F   UNL     1     -11.348   5.794  69.173  0.00  0.00    -0.166 F 
ATOM     25  F   UNL     1      -9.376   5.588  70.308  0.00  0.00    -0.166 F 
ATOM     26  F   UNL     1     -11.364   5.499  71.424  0.00  0.00    -0.166 F 
ENDBRANCH  21  23
BRANCH  19  27
ATOM     27  C   UNL     1     -13.142   9.961  71.733  0.00  0.00    +0.419 C 
ATOM     28  F   UNL     1     -13.652   9.131  72.700  0.00  0.00    -0.166 F 
ATOM     29  F   UNL     1     -13.123  11.291  72.141  0.00  0.00    -0.166 F 
ATOM     30  F   UNL     1     -13.968   9.915  70.638  0.00  0.00    -0.166 F 
ENDBRANCH  19  27
ENDBRANCH  16  17
ENDBRANCH  14  16
ENDBRANCH   1  14
BRANCH   3  31
ATOM     31  C   UNL     1     -10.723  16.052  68.528  0.00  0.00    +0.141 C 
BRANCH  31  32
ATOM     32  C   UNL     1     -10.114  17.324  68.166  0.00  0.00    +0.180 A 
ATOM     33  N   UNL     1     -10.816  18.367  67.655  0.00  0.00    -0.173 NA
ATOM     34  C   UNL     1      -9.982  19.026  66.811  0.00  0.00    +0.376 A 
ATOM     35  O   UNL     1     -10.278  19.770  65.837  0.00  0.00    -0.242 OA
ATOM     36  N   UNL     1      -8.728  18.707  67.216  0.00  0.00    -0.108 N 
ATOM     37  N   UNL     1      -8.842  17.788  68.174  0.00  0.00    -0.140 NA
BRANCH  36  38
ATOM     38  P   UNL     1      -7.363  19.722  66.799  0.00  0.00    +0.516 P 
ATOM     39  O   UNL     1      -5.930  19.170  67.488  0.00  0.00    -0.119 OA
ATOM     40  O   UNL     1      -7.116  19.765  65.118  0.00  0.00    -0.119 OA
ATOM     41  O   UNL     1      -7.567  21.144  67.244  0.00  0.00    -0.227 OA
ENDBRANCH  36  38
ENDBRANCH  31  32
ENDBRANCH   3  31
TORSDOF 9
ENDMDL
MODEL 4
REMARK VINA RESULT:      -8.3      1.115      2.816
REMARK  Name = 
REMARK  9 active torsions:
REMARK  status: ('A' for Active; 'I' for Inactive)
REMARK    1  A    between atoms: C_2  and  O_3
REMARK    2  A    between atoms: C_2  and  C_28
REMARK    3  A    between atoms: O_3  and  C_4
REMARK    4  A    between atoms: N_8  and  C_9
REMARK    5  A    between atoms: C_9  and  C_10
REMARK    6  A    between atoms: N_12  and  P_13
REMARK    7  A    between atoms: C_20  and  C_21
REMARK    8  A    between atoms: C_30  and  C_31
REMARK    9  A    between atoms: C_36  and  C_37
REMARK                            x       y       z     vdW  Elec       q    Type
REMARK                         _______ _______ _______ _____ _____    ______ ____
ROOT
ATOM      1  C   UNL     1      -9.053  12.081  68.676  0.00  0.00    +0.255 C 
ATOM      2  C   UNL     1     -10.429  12.805  67.817  0.00  0.00    +0.138 C 
ATOM      3  N   UNL     1      -9.771  14.242  67.830  0.00  0.00    -0.258 NA
ATOM      4  C   UNL     1      -8.658  14.331  67.048  0.00  0.00    +0.105 C 
ATOM      5  C   UNL     1      -7.532  13.488  67.639  0.00  0.00    +0.162 C 
ATOM      6  O   UNL     1      -8.069  12.219  67.480  0.00  0.00    -0.328 OA
ENDROOT
BRANCH   2   7
ATOM      7  C   UNL     1      -9.930  12.403  66.326  0.00  0.00    -0.003 A 
ATOM      8  C   UNL     1     -10.309  11.109  65.959  0.00  0.00    -0.001 A 
ATOM      9  C   UNL     1     -10.043  10.791  64.632  0.00  0.00    +0.029 A 
ATOM     10  C   UNL     1     -10.392  11.750  63.700  0.00  0.00    +0.140 A 
ATOM     11  F   UNL     1     -10.124  11.574  62.374  0.00  0.00    -0.204 F 
ATOM     12  C   UNL     1     -10.793  13.003  64.147  0.00  0.00    +0.029 A 
ATOM     13  C   UNL     1     -10.542  13.295  65.446  0.00  0.00    -0.001 A 
ENDBRANCH   2   7
BRANCH   1  14
ATOM     14  O   UNL     1      -9.450  10.634  68.233  0.00  0.00    -0.327 OA
BRANCH  14  16
ATOM     15  C   UNL     1      -7.824   8.997  68.709  0.00  0.00    +0.037 C 
ATOM     16  C   UNL     1      -8.753  10.146  69.535  0.00  0.00    +0.140 C 
BRANCH  16  17
ATOM     17  C   UNL     1      -9.966   9.077  69.875  0.00  0.00    +0.005 A 
ATOM     18  C   UNL     1      -9.646   7.774  69.918  0.00  0.00    +0.002 A 
ATOM     19  C   UNL     1     -10.589   6.927  70.499  0.00  0.00    +0.071 A 
ATOM     20  C   UNL     1     -11.784   7.459  70.973  0.00  0.00    +0.008 A 
ATOM     21  C   UNL     1     -12.031   8.826  70.964  0.00  0.00    +0.071 A 
ATOM     22  C   UNL     1     -11.054   9.676  70.457  0.00  0.00    +0.002 A 
BRANCH  21  23
ATOM     23  C   UNL     1     -13.097   9.462  71.773  0.00  0.00    +0.419 C 
ATOM     24  F   UNL     1     -13.160   8.752  72.961  0.00  0.00    -0.166 F 
ATOM     25  F   UNL     1     -12.798  10.781  71.974  0.00  0.00    -0.166 F 
ATOM     26  F   UNL     1     -14.286   9.307  71.069  0.00  0.00    -0.166 F 
ENDBRANCH  21  23
BRANCH  19  27
ATOM     27  C   UNL     1     -10.139   5.679  71.195  0.00  0.00    +0.419 C 
ATOM     28  F   UNL     1     -10.365   4.567  70.422  0.00  0.00    -0.166 F 
ATOM     29  F   UNL     1      -8.803   5.797  71.566  0.00  0.00    -0.166 F 
ATOM     30  F   UNL     1     -10.844   5.547  72.366  0.00  0.00    -0.166 F 
ENDBRANCH  19  27
ENDBRANCH  16  17
ENDBRANCH  14  16
ENDBRANCH   1  14
BRANCH   3  31
ATOM     31  C   UNL     1     -10.769  15.211  67.857  0.00  0.00    +0.141 C 
BRANCH  31  32
ATOM     32  C   UNL     1     -11.469  15.511  69.097  0.00  0.00    +0.180 A 
ATOM     33  N   UNL     1     -10.837  15.885  70.239  0.00  0.00    -0.173 NA
ATOM     34  C   UNL     1     -11.572  15.400  71.272  0.00  0.00    +0.376 A 
ATOM     35  O   UNL     1     -11.198  15.141  72.448  0.00  0.00    -0.242 OA
ATOM     36  N   UNL     1     -12.822  15.223  70.779  0.00  0.00    -0.108 N 
ATOM     37  N   UNL     1     -12.771  15.470  69.470  0.00  0.00    -0.140 NA
BRANCH  36  38
ATOM     38  P   UNL     1     -14.208  15.146  71.847  0.00  0.00    +0.516 P 
ATOM     39  O   UNL     1     -14.367  13.635  72.569  0.00  0.00    -0.119 OA
ATOM     40  O   UNL     1     -14.081  16.281  73.105  0.00  0.00    -0.119 OA
ATOM     41  O   UNL     1     -15.491  15.444  71.121  0.00  0.00    -0.227 OA
ENDBRANCH  36  38
ENDBRANCH  31  32
ENDBRANCH   3  31
TORSDOF 9
ENDMDL
MODEL 5
REMARK VINA RESULT:      -8.1      3.722      5.558
REMARK  Name = 
REMARK  9 active torsions:
REMARK  status: ('A' for Active; 'I' for Inactive)
REMARK    1  A    between atoms: C_2  and  O_3
REMARK    2  A    between atoms: C_2  and  C_28
REMARK    3  A    between atoms: O_3  and  C_4
REMARK    4  A    between atoms: N_8  and  C_9
REMARK    5  A    between atoms: C_9  and  C_10
REMARK    6  A    between atoms: N_12  and  P_13
REMARK    7  A    between atoms: C_20  and  C_21
REMARK    8  A    between atoms: C_30  and  C_31
REMARK    9  A    between atoms: C_36  and  C_37
REMARK                            x       y       z     vdW  Elec       q    Type
REMARK                         _______ _______ _______ _____ _____    ______ ____
ROOT
ATOM      1  C   UNL     1     -10.525  13.136  68.022  0.00  0.00    +0.255 C 
ATOM      2  C   UNL     1      -9.971  14.260  69.281  0.00  0.00    +0.138 C 
ATOM      3  N   UNL     1      -9.857  15.459  68.257  0.00  0.00    -0.258 NA
ATOM      4  C   UNL     1     -11.065  15.878  67.784  0.00  0.00    +0.105 C 
ATOM      5  C   UNL     1     -11.686  14.799  66.901  0.00  0.00    +0.162 C 
ATOM      6  O   UNL     1     -11.915  13.812  67.850  0.00  0.00    -0.328 OA
ENDROOT
BRANCH   2   7
ATOM      7  C   UNL     1     -11.449  14.644  69.829  0.00  0.00    -0.003 A 
ATOM      8  C   UNL     1     -11.987  13.665  70.668  0.00  0.00    -0.001 A 
ATOM      9  C   UNL     1     -13.176  14.033  71.286  0.00  0.00    +0.029 A 
ATOM     10  C   UNL     1     -13.204  15.301  71.836  0.00  0.00    +0.140 A 
ATOM     11  F   UNL     1     -14.337  15.792  72.414  0.00  0.00    -0.204 F 
ATOM     12  C   UNL     1     -12.149  16.165  71.575  0.00  0.00    +0.029 A 
ATOM     13  C   UNL     1     -11.307  15.815  70.573  0.00  0.00    -0.001 A 
ENDBRANCH   2   7
BRANCH   1  14
ATOM     14  O   UNL     1     -11.102  12.133  69.075  0.00  0.00    -0.327 OA
BRANCH  14  16
ATOM     15  C   UNL     1     -11.184  10.540  67.342  0.00  0.00    +0.037 C 
ATOM     16  C   UNL     1     -10.089  11.099  68.505  0.00  0.00    +0.140 C 
BRANCH  16  17
ATOM     17  C   UNL     1     -10.519   9.952  69.615  0.00  0.00    +0.005 A 
ATOM     18  C   UNL     1     -11.387  10.315  70.573  0.00  0.00    +0.002 A 
ATOM     19  C   UNL     1     -11.969   9.278  71.300  0.00  0.00    +0.071 A 
ATOM     20  C   UNL     1     -11.616   7.962  71.018  0.00  0.00    +0.008 A 
ATOM     21  C   UNL     1     -10.762   7.644  69.968  0.00  0.00    +0.071 A 
ATOM     22  C   UNL     1     -10.247   8.676  69.193  0.00  0.00    +0.002 A 
BRANCH  21  23
ATOM     23  C   UNL     1     -10.648   6.280  69.403  0.00  0.00    +0.419 C 
ATOM     24  F   UNL     1      -9.372   6.182  68.872  0.00  0.00    -0.166 F 
ATOM     25  F   UNL     1     -10.872   5.354  70.384  0.00  0.00    -0.166 F 
ATOM     26  F   UNL     1     -11.589   6.184  68.384  0.00  0.00    -0.166 F 
ENDBRANCH  21  23
BRANCH  19  27
ATOM     27  C   UNL     1     -13.346   9.449  71.868  0.00  0.00    +0.419 C 
ATOM     28  F   UNL     1     -14.306   9.014  70.988  0.00  0.00    -0.166 F 
ATOM     29  F   UNL     1     -13.435   8.807  73.099  0.00  0.00    -0.166 F 
ATOM     30  F   UNL     1     -13.556  10.781  72.122  0.00  0.00    -0.166 F 
ENDBRANCH  19  27
ENDBRANCH  16  17
ENDBRANCH  14  16
ENDBRANCH   1  14
BRANCH   3  31
ATOM     31  C   UNL     1      -8.851  16.328  68.668  0.00  0.00    +0.141 C 
BRANCH  31  32
ATOM     32  C   UNL     1      -8.165  17.169  67.698  0.00  0.00    +0.180 A 
ATOM     33  N   UNL     1      -7.518  16.678  66.610  0.00  0.00    -0.173 NA
ATOM     34  C   UNL     1      -6.472  17.507  66.367  0.00  0.00    +0.376 A 
ATOM     35  O   UNL     1      -5.397  17.258  65.757  0.00  0.00    -0.242 OA
ATOM     36  N   UNL     1      -6.803  18.690  66.942  0.00  0.00    -0.108 N 
ATOM     37  N   UNL     1      -7.942  18.502  67.608  0.00  0.00    -0.140 NA
BRANCH  36  38
ATOM     38  P   UNL     1      -6.041  20.183  66.432  0.00  0.00    +0.516 P 
ATOM     39  O   UNL     1      -6.200  20.441  64.777  0.00  0.00    -0.119 OA
ATOM     40  O   UNL     1      -6.735  21.525  67.208  0.00  0.00    -0.119 OA
ATOM     41  O   UNL     1      -4.573  20.201  66.760  0.00  0.00    -0.227 OA
ENDBRANCH  36  38
ENDBRANCH  31  32
ENDBRANCH   3  31
TORSDOF 9
ENDMDL
MODEL 6
REMARK VINA RESULT:      -8.1      1.828      2.333
REMARK  Name = 
REMARK  9 active torsions:
REMARK  status: ('A' for Active; 'I' for Inactive)
REMARK    1  A    between atoms: C_2  and  O_3
REMARK    2  A    between atoms: C_2  and  C_28
REMARK    3  A    between atoms: O_3  and  C_4
REMARK    4  A    between atoms: N_8  and  C_9
REMARK    5  A    between atoms: C_9  and  C_10
REMARK    6  A    between atoms: N_12  and  P_13
REMARK    7  A    between atoms: C_20  and  C_21
REMARK    8  A    between atoms: C_30  and  C_31
REMARK    9  A    between atoms: C_36  and  C_37
REMARK                            x       y       z     vdW  Elec       q    Type
REMARK                         _______ _______ _______ _____ _____    ______ ____
ROOT
ATOM      1  C   UNL     1      -8.822  11.724  68.490  0.00  0.00    +0.255 C 
ATOM      2  C   UNL     1     -10.343  11.890  67.586  0.00  0.00    +0.138 C 
ATOM      3  N   UNL     1     -10.225  13.466  67.543  0.00  0.00    -0.258 NA
ATOM      4  C   UNL     1      -9.195  13.907  66.768  0.00  0.00    +0.105 C 
ATOM      5  C   UNL     1      -7.860  13.533  67.406  0.00  0.00    +0.162 C 
ATOM      6  O   UNL     1      -7.918  12.151  67.298  0.00  0.00    -0.328 OA
ENDROOT
BRANCH   2   7
ATOM      7  C   UNL     1      -9.699  11.631  66.119  0.00  0.00    -0.003 A 
ATOM      8  C   UNL     1      -9.659  10.277  65.777  0.00  0.00    -0.001 A 
ATOM      9  C   UNL     1      -9.268  10.031  64.465  0.00  0.00    +0.029 A 
ATOM     10  C   UNL     1      -9.860  10.824  63.500  0.00  0.00    +0.140 A 
ATOM     11  F   UNL     1      -9.509  10.713  62.187  0.00  0.00    -0.204 F 
ATOM     12  C   UNL     1     -10.633  11.904  63.905  0.00  0.00    +0.029 A 
ATOM     13  C   UNL     1     -10.523  12.281  65.201  0.00  0.00    -0.001 A 
ENDBRANCH   2   7
BRANCH   1  14
ATOM     14  O   UNL     1      -8.679  10.214  68.106  0.00  0.00    -0.327 OA
BRANCH  14  16
ATOM     15  C   UNL     1      -6.849   9.070  69.049  0.00  0.00    +0.037 C 
ATOM     16  C   UNL     1      -8.174   9.990  69.561  0.00  0.00    +0.140 C 
BRANCH  16  17
ATOM     17  C   UNL     1      -9.144   8.669  69.775  0.00  0.00    +0.005 A 
ATOM     18  C   UNL     1     -10.008   8.699  70.803  0.00  0.00    +0.002 A 
ATOM     19  C   UNL     1     -11.015   7.734  70.788  0.00  0.00    +0.071 A 
ATOM     20  C   UNL     1     -11.058   6.808  69.751  0.00  0.00    +0.008 A 
ATOM     21  C   UNL     1     -10.177   6.870  68.678  0.00  0.00    +0.071 A 
ATOM     22  C   UNL     1      -9.225   7.883  68.655  0.00  0.00    +0.002 A 
BRANCH  21  23
ATOM     23  C   UNL     1     -10.408   6.159  67.399  0.00  0.00    +0.419 C 
ATOM     24  F   UNL     1      -9.327   6.458  66.585  0.00  0.00    -0.166 F 
ATOM     25  F   UNL     1     -10.524   4.816  67.632  0.00  0.00    -0.166 F 
ATOM     26  F   UNL     1     -11.571   6.685  66.847  0.00  0.00    -0.166 F 
ENDBRANCH  21  23
BRANCH  19  27
ATOM     27  C   UNL     1     -12.342   8.034  71.416  0.00  0.00    +0.419 C 
ATOM     28  F   UNL     1     -13.269   7.071  71.108  0.00  0.00    -0.166 F 
ATOM     29  F   UNL     1     -12.191   8.195  72.790  0.00  0.00    -0.166 F 
ATOM     30  F   UNL     1     -12.791   9.242  70.943  0.00  0.00    -0.166 F 
ENDBRANCH  19  27
ENDBRANCH  16  17
ENDBRANCH  14  16
ENDBRANCH   1  14
BRANCH   3  31
ATOM     31  C   UNL     1     -11.499  14.027  67.518  0.00  0.00    +0.141 C 
BRANCH  31  32
ATOM     32  C   UNL     1     -12.066  14.616  68.722  0.00  0.00    +0.180 A 
ATOM     33  N   UNL     1     -11.865  15.909  69.085  0.00  0.00    -0.173 NA
ATOM     34  C   UNL     1     -11.863  15.940  70.441  0.00  0.00    +0.376 A 
ATOM     35  O   UNL     1     -11.330  16.789  71.207  0.00  0.00    -0.242 OA
ATOM     36  N   UNL     1     -12.550  14.838  70.833  0.00  0.00    -0.108 N 
ATOM     37  N   UNL     1     -12.818  14.129  69.737  0.00  0.00    -0.140 NA
BRANCH  36  38
ATOM     38  P   UNL     1     -13.269  14.745  72.427  0.00  0.00    +0.516 P 
ATOM     39  O   UNL     1     -12.113  14.819  73.648  0.00  0.00    -0.119 OA
ATOM     40  O   UNL     1     -14.348  16.030  72.693  0.00  0.00    -0.119 OA
ATOM     41  O   UNL     1     -14.052  13.474  72.615  0.00  0.00    -0.227 OA
ENDBRANCH  36  38
ENDBRANCH  31  32
ENDBRANCH   3  31
TORSDOF 9
ENDMDL
MODEL 7
REMARK VINA RESULT:      -8.1      3.882      6.082
REMARK  Name = 
REMARK  9 active torsions:
REMARK  status: ('A' for Active; 'I' for Inactive)
REMARK    1  A    between atoms: C_2  and  O_3
REMARK    2  A    between atoms: C_2  and  C_28
REMARK    3  A    between atoms: O_3  and  C_4
REMARK    4  A    between atoms: N_8  and  C_9
REMARK    5  A    between atoms: C_9  and  C_10
REMARK    6  A    between atoms: N_12  and  P_13
REMARK    7  A    between atoms: C_20  and  C_21
REMARK    8  A    between atoms: C_30  and  C_31
REMARK    9  A    between atoms: C_36  and  C_37
REMARK                            x       y       z     vdW  Elec       q    Type
REMARK                         _______ _______ _______ _____ _____    ______ ____
ROOT
ATOM      1  C   UNL     1     -10.502  13.184  67.973  0.00  0.00    +0.255 C 
ATOM      2  C   UNL     1      -9.961  14.303  69.243  0.00  0.00    +0.138 C 
ATOM      3  N   UNL     1      -9.890  15.520  68.236  0.00  0.00    -0.258 NA
ATOM      4  C   UNL     1     -11.114  15.915  67.783  0.00  0.00    +0.105 C 
ATOM      5  C   UNL     1     -11.718  14.834  66.891  0.00  0.00    +0.162 C 
ATOM      6  O   UNL     1     -11.910  13.827  67.827  0.00  0.00    -0.328 OA
ENDROOT
BRANCH   2   7
ATOM      7  C   UNL     1     -11.442  14.642  69.814  0.00  0.00    -0.003 A 
ATOM      8  C   UNL     1     -11.926  13.659  70.682  0.00  0.00    -0.001 A 
ATOM      9  C   UNL     1     -13.116  13.993  71.317  0.00  0.00    +0.029 A 
ATOM     10  C   UNL     1     -13.181  15.270  71.843  0.00  0.00    +0.140 A 
ATOM     11  F   UNL     1     -14.321  15.729  72.435  0.00  0.00    -0.204 F 
ATOM     12  C   UNL     1     -12.165  16.168  71.545  0.00  0.00    +0.029 A 
ATOM     13  C   UNL     1     -11.331  15.831  70.533  0.00  0.00    -0.001 A 
ENDBRANCH   2   7
BRANCH   1  14
ATOM     14  O   UNL     1     -11.041  12.151  69.018  0.00  0.00    -0.327 OA
BRANCH  14  16
ATOM     15  C   UNL     1     -10.922  10.565  67.280  0.00  0.00    +0.037 C 
ATOM     16  C   UNL     1      -9.930  11.192  68.501  0.00  0.00    +0.140 C 
BRANCH  16  17
ATOM     17  C   UNL     1     -10.338  10.013  69.585  0.00  0.00    +0.005 A 
ATOM     18  C   UNL     1      -9.338   9.288  70.112  0.00  0.00    +0.002 A 
ATOM     19  C   UNL     1      -9.658   8.523  71.234  0.00  0.00    +0.071 A 
ATOM     20  C   UNL     1     -10.961   8.537  71.720  0.00  0.00    +0.008 A 
ATOM     21  C   UNL     1     -11.938   9.361  71.174  0.00  0.00    +0.071 A 
ATOM     22  C   UNL     1     -11.595  10.182  70.106  0.00  0.00    +0.002 A 
BRANCH  21  23
ATOM     23  C   UNL     1     -13.206   9.683  71.868  0.00  0.00    +0.419 C 
ATOM     24  F   UNL     1     -13.263   8.859  72.980  0.00  0.00    -0.166 F 
ATOM     25  F   UNL     1     -13.223  11.008  72.206  0.00  0.00    -0.166 F 
ATOM     26  F   UNL     1     -14.239   9.364  70.994  0.00  0.00    -0.166 F 
ENDBRANCH  21  23
BRANCH  19  27
ATOM     27  C   UNL     1      -8.607   8.237  72.263  0.00  0.00    +0.419 C 
ATOM     28  F   UNL     1      -7.444   8.911  71.989  0.00  0.00    -0.166 F 
ATOM     29  F   UNL     1      -9.095   8.528  73.533  0.00  0.00    -0.166 F 
ATOM     30  F   UNL     1      -8.343   6.890  72.261  0.00  0.00    -0.166 F 
ENDBRANCH  19  27
ENDBRANCH  16  17
ENDBRANCH  14  16
ENDBRANCH   1  14
BRANCH   3  31
ATOM     31  C   UNL     1      -8.901  16.408  68.648  0.00  0.00    +0.141 C 
BRANCH  31  32
ATOM     32  C   UNL     1      -8.235  17.267  67.681  0.00  0.00    +0.180 A 
ATOM     33  N   UNL     1      -7.619  16.797  66.566  0.00  0.00    -0.173 NA
ATOM     34  C   UNL     1      -6.574  17.626  66.316  0.00  0.00    +0.376 A 
ATOM     35  O   UNL     1      -5.517  17.384  65.673  0.00  0.00    -0.242 OA
ATOM     36  N   UNL     1      -6.884  18.797  66.924  0.00  0.00    -0.108 N 
ATOM     37  N   UNL     1      -8.007  18.600  67.614  0.00  0.00    -0.140 NA
BRANCH  36  38
ATOM     38  P   UNL     1      -6.126  20.297  66.429  0.00  0.00    +0.516 P 
ATOM     39  O   UNL     1      -4.469  20.295  66.720  0.00  0.00    -0.119 OA
ATOM     40  O   UNL     1      -6.333  20.572  64.765  0.00  0.00    -0.119 OA
ATOM     41  O   UNL     1      -6.715  21.483  67.141  0.00  0.00    -0.227 OA
ENDBRANCH  36  38
ENDBRANCH  31  32
ENDBRANCH   3  31
TORSDOF 9
ENDMDL
MODEL 8
REMARK VINA RESULT:      -8.1      4.573      6.556
REMARK  Name = 
REMARK  9 active torsions:
REMARK  status: ('A' for Active; 'I' for Inactive)
REMARK    1  A    between atoms: C_2  and  O_3
REMARK    2  A    between atoms: C_2  and  C_28
REMARK    3  A    between atoms: O_3  and  C_4
REMARK    4  A    between atoms: N_8  and  C_9
REMARK    5  A    between atoms: C_9  and  C_10
REMARK    6  A    between atoms: N_12  and  P_13
REMARK    7  A    between atoms: C_20  and  C_21
REMARK    8  A    between atoms: C_30  and  C_31
REMARK    9  A    between atoms: C_36  and  C_37
REMARK                            x       y       z     vdW  Elec       q    Type
REMARK                         _______ _______ _______ _____ _____    ______ ____
ROOT
ATOM      1  C   UNL     1     -10.694  10.363  68.491  0.00  0.00    +0.255 C 
ATOM      2  C   UNL     1      -9.725  11.517  67.549  0.00  0.00    +0.138 C 
ATOM      3  N   UNL     1      -8.758  10.382  67.025  0.00  0.00    -0.258 NA
ATOM      4  C   UNL     1      -9.366   9.508  66.173  0.00  0.00    +0.105 C 
ATOM      5  C   UNL     1     -10.406   8.681  66.923  0.00  0.00    +0.162 C 
ATOM      6  O   UNL     1     -11.320   9.675  67.244  0.00  0.00    -0.328 OA
ENDROOT
BRANCH   2   7
ATOM      7  C   UNL     1     -10.693  11.530  66.246  0.00  0.00    -0.003 A 
ATOM      8  C   UNL     1     -11.714  12.480  66.340  0.00  0.00    -0.001 A 
ATOM      9  C   UNL     1     -12.459  12.634  65.177  0.00  0.00    +0.029 A 
ATOM     10  C   UNL     1     -11.735  12.719  64.002  0.00  0.00    +0.140 A 
ATOM     11  F   UNL     1     -12.362  12.810  62.795  0.00  0.00    -0.204 F 
ATOM     12  C   UNL     1     -10.371  12.462  64.038  0.00  0.00    +0.029 A 
ATOM     13  C   UNL     1      -9.892  11.867  65.157  0.00  0.00    -0.001 A 
ENDBRANCH   2   7
BRANCH   1  14
ATOM     14  O   UNL     1     -11.899  11.356  68.594  0.00  0.00    -0.327 OA
BRANCH  14  16
ATOM     15  C   UNL     1     -13.000  10.923  70.631  0.00  0.00    +0.037 C 
ATOM     16  C   UNL     1     -11.512  11.522  70.092  0.00  0.00    +0.140 C 
BRANCH  16  17
ATOM     17  C   UNL     1     -12.012  13.096  70.126  0.00  0.00    +0.005 A 
ATOM     18  C   UNL     1     -12.701  13.502  71.205  0.00  0.00    +0.002 A 
ATOM     19  C   UNL     1     -12.844  14.880  71.362  0.00  0.00    +0.071 A 
ATOM     20  C   UNL     1     -12.300  15.736  70.410  0.00  0.00    +0.008 A 
ATOM     21  C   UNL     1     -11.538  15.261  69.350  0.00  0.00    +0.071 A 
ATOM     22  C   UNL     1     -11.329  13.891  69.242  0.00  0.00    +0.002 A 
BRANCH  21  23
ATOM     23  C   UNL     1     -10.647  16.126  68.542  0.00  0.00    +0.419 C 
ATOM     24  F   UNL     1     -10.325  15.401  67.406  0.00  0.00    -0.166 F 
ATOM     25  F   UNL     1     -11.289  17.296  68.243  0.00  0.00    -0.166 F 
ATOM     26  F   UNL     1      -9.502  16.347  69.298  0.00  0.00    -0.166 F 
ENDBRANCH  21  23
BRANCH  19  27
ATOM     27  C   UNL     1     -12.961  15.464  72.737  0.00  0.00    +0.419 C 
ATOM     28  F   UNL     1     -11.980  16.395  72.969  0.00  0.00    -0.166 F 
ATOM     29  F   UNL     1     -14.236  15.988  72.923  0.00  0.00    -0.166 F 
ATOM     30  F   UNL     1     -12.832  14.453  73.658  0.00  0.00    -0.166 F 
ENDBRANCH  19  27
ENDBRANCH  16  17
ENDBRANCH  14  16
ENDBRANCH   1  14
BRANCH   3  31
ATOM     31  C   UNL     1      -7.492  10.915  66.802  0.00  0.00    +0.141 C 
BRANCH  31  32
ATOM     32  C   UNL     1      -6.984  11.982  67.652  0.00  0.00    +0.180 A 
ATOM     33  N   UNL     1      -6.596  13.193  67.177  0.00  0.00    -0.173 NA
ATOM     34  C   UNL     1      -5.587  13.624  67.975  0.00  0.00    +0.376 A 
ATOM     35  O   UNL     1      -4.673  14.450  67.707  0.00  0.00    -0.242 OA
ATOM     36  N   UNL     1      -5.740  12.960  69.147  0.00  0.00    -0.108 N 
ATOM     37  N   UNL     1      -6.725  12.079  68.978  0.00  0.00    -0.140 NA
BRANCH  36  38
ATOM     38  P   UNL     1      -5.034  13.574  70.627  0.00  0.00    +0.516 P 
ATOM     39  O   UNL     1      -3.355  13.451  70.626  0.00  0.00    -0.119 OA
ATOM     40  O   UNL     1      -5.406  15.217  70.854  0.00  0.00    -0.119 OA
ATOM     41  O   UNL     1      -5.546  12.842  71.837  0.00  0.00    -0.227 OA
ENDBRANCH  36  38
ENDBRANCH  31  32
ENDBRANCH   3  31
TORSDOF 9
ENDMDL
MODEL 9
REMARK VINA RESULT:      -7.9      5.065      7.096
REMARK  Name = 
REMARK  9 active torsions:
REMARK  status: ('A' for Active; 'I' for Inactive)
REMARK    1  A    between atoms: C_2  and  O_3
REMARK    2  A    between atoms: C_2  and  C_28
REMARK    3  A    between atoms: O_3  and  C_4
REMARK    4  A    between atoms: N_8  and  C_9
REMARK    5  A    between atoms: C_9  and  C_10
REMARK    6  A    between atoms: N_12  and  P_13
REMARK    7  A    between atoms: C_20  and  C_21
REMARK    8  A    between atoms: C_30  and  C_31
REMARK    9  A    between atoms: C_36  and  C_37
REMARK                            x       y       z     vdW  Elec       q    Type
REMARK                         _______ _______ _______ _____ _____    ______ ____
ROOT
ATOM      1  C   UNL     1      -8.987  14.637  68.030  0.00  0.00    +0.255 C 
ATOM      2  C   UNL     1      -8.640  15.905  69.225  0.00  0.00    +0.138 C 
ATOM      3  N   UNL     1      -7.096  15.898  68.886  0.00  0.00    -0.258 NA
ATOM      4  C   UNL     1      -6.817  16.371  67.639  0.00  0.00    +0.105 C 
ATOM      5  C   UNL     1      -7.352  15.410  66.581  0.00  0.00    +0.162 C 
ATOM      6  O   UNL     1      -8.716  15.546  66.798  0.00  0.00    -0.328 OA
ENDROOT
BRANCH   2   7
ATOM      7  C   UNL     1      -9.019  17.156  68.263  0.00  0.00    -0.003 A 
ATOM      8  C   UNL     1     -10.381  17.466  68.290  0.00  0.00    -0.001 A 
ATOM      9  C   UNL     1     -10.715  18.631  67.609  0.00  0.00    +0.029 A 
ATOM     10  C   UNL     1      -9.899  19.722  67.843  0.00  0.00    +0.140 A 
ATOM     11  F   UNL     1     -10.093  20.900  67.185  0.00  0.00    -0.204 F 
ATOM     12  C   UNL     1      -8.728  19.537  68.566  0.00  0.00    +0.029 A 
ATOM     13  C   UNL     1      -8.318  18.259  68.747  0.00  0.00    -0.001 A 
ENDBRANCH   2   7
BRANCH   1  14
ATOM     14  O   UNL     1     -10.511  14.988  68.000  0.00  0.00    -0.327 OA
BRANCH  14  16
ATOM     15  C   UNL     1     -12.101  14.120  66.494  0.00  0.00    +0.037 C 
ATOM     16  C   UNL     1     -10.720  13.601  67.325  0.00  0.00    +0.140 C 
BRANCH  16  17
ATOM     17  C   UNL     1     -11.582  13.020  68.610  0.00  0.00    +0.005 A 
ATOM     18  C   UNL     1     -11.561  11.693  68.817  0.00  0.00    +0.002 A 
ATOM     19  C   UNL     1     -12.025  11.257  70.057  0.00  0.00    +0.071 A 
ATOM     20  C   UNL     1     -12.489  12.189  70.980  0.00  0.00    +0.008 A 
ATOM     21  C   UNL     1     -12.422  13.556  70.735  0.00  0.00    +0.071 A 
ATOM     22  C   UNL     1     -11.884  13.991  69.530  0.00  0.00    +0.002 A 
BRANCH  21  23
ATOM     23  C   UNL     1     -12.552  14.576  71.802  0.00  0.00    +0.419 C 
ATOM     24  F   UNL     1     -11.265  14.991  72.103  0.00  0.00    -0.166 F 
ATOM     25  F   UNL     1     -13.337  15.605  71.362  0.00  0.00    -0.166 F 
ATOM     26  F   UNL     1     -13.110  13.940  72.904  0.00  0.00    -0.166 F 
ENDBRANCH  21  23
BRANCH  19  27
ATOM     27  C   UNL     1     -11.470  10.002  70.659  0.00  0.00    +0.419 C 
ATOM     28  F   UNL     1     -11.927   9.819  71.940  0.00  0.00    -0.166 F 
ATOM     29  F   UNL     1     -11.758   8.915  69.840  0.00  0.00    -0.166 F 
ATOM     30  F   UNL     1     -10.101  10.096  70.692  0.00  0.00    -0.166 F 
ENDBRANCH  19  27
ENDBRANCH  16  17
ENDBRANCH  14  16
ENDBRANCH   1  14
BRANCH   3  31
ATOM     31  C   UNL     1      -6.369  16.248  70.020  0.00  0.00    +0.141 C 
BRANCH  31  32
ATOM     32  C   UNL     1      -5.452  17.377  69.986  0.00  0.00    +0.180 A 
ATOM     33  N   UNL     1      -4.237  17.334  69.379  0.00  0.00    -0.173 NA
ATOM     34  C   UNL     1      -3.415  18.149  70.087  0.00  0.00    +0.376 A 
ATOM     35  O   UNL     1      -2.157  18.120  70.164  0.00  0.00    -0.242 OA
ATOM     36  N   UNL     1      -4.231  19.018  70.733  0.00  0.00    -0.108 N 
ATOM     37  N   UNL     1      -5.485  18.626  70.508  0.00  0.00    -0.140 NA
BRANCH  36  38
ATOM     38  P   UNL     1      -3.629  20.559  71.309  0.00  0.00    +0.516 P 
ATOM     39  O   UNL     1      -2.655  21.324  70.170  0.00  0.00    -0.119 OA
ATOM     40  O   UNL     1      -4.903  21.626  71.662  0.00  0.00    -0.119 OA
ATOM     41  O   UNL     1      -2.826  20.409  72.572  0.00  0.00    -0.227 OA
ENDBRANCH  36  38
ENDBRANCH  31  32
ENDBRANCH   3  31
TORSDOF 9
ENDMDL
