MODEL 1
REMARK VINA RESULT:      -4.3      0.000      0.000
REMARK  Name = 
REMARK  1 active torsions:
REMARK  status: ('A' for Active; 'I' for Inactive)
REMARK    1  A    between atoms: C_2  and  C_3
REMARK                            x       y       z     vdW  Elec       q    Type
REMARK                         _______ _______ _______ _____ _____    ______ ____
ROOT
ATOM      1  C   UNL     1     -12.605  15.278  73.113  0.00  0.00    +0.011 A 
ATOM      2  C   UNL     1     -11.964  16.078  72.180  0.00  0.00    -0.002 A 
ATOM      3  C   UNL     1     -12.160  15.773  70.839  0.00  0.00    -0.000 A 
ATOM      4  C   UNL     1     -12.668  14.540  70.452  0.00  0.00    -0.000 A 
ATOM      5  C   UNL     1     -12.915  13.636  71.478  0.00  0.00    -0.000 A 
ATOM      6  C   UNL     1     -13.337  14.175  72.689  0.00  0.00    -0.002 A 
ENDROOT
BRANCH   1   8
ATOM      7  O   UNL     1     -12.410  16.897  74.809  0.00  0.00    -0.215 OA
ATOM      8  C   UNL     1     -12.459  15.540  74.566  0.00  0.00    +0.209 C 
ENDBRANCH   1   8
TORSDOF 1
ENDMDL
MODEL 2
REMARK VINA RESULT:      -4.1      0.183      1.691
REMARK  Name = 
REMARK  1 active torsions:
REMARK  status: ('A' for Active; 'I' for Inactive)
REMARK    1  A    between atoms: C_2  and  C_3
REMARK                            x       y       z     vdW  Elec       q    Type
REMARK                         _______ _______ _______ _____ _____    ______ ____
ROOT
ATOM      1  C   UNL     1     -12.485  15.149  73.156  0.00  0.00    +0.011 A 
ATOM      2  C   UNL     1     -13.197  14.026  72.762  0.00  0.00    -0.002 A 
ATOM      3  C   UNL     1     -13.125  13.664  71.423  0.00  0.00    -0.000 A 
ATOM      4  C   UNL     1     -12.670  14.559  70.463  0.00  0.00    -0.000 A 
ATOM      5  C   UNL     1     -12.343  15.829  70.923  0.00  0.00    -0.000 A 
ATOM      6  C   UNL     1     -11.808  15.904  72.205  0.00  0.00    -0.002 A 
ENDROOT
BRANCH   1   8
ATOM      7  O   UNL     1     -12.378  16.971  74.640  0.00  0.00    -0.215 OA
ATOM      8  C   UNL     1     -12.497  15.599  74.569  0.00  0.00    +0.209 C 
ENDBRANCH   1   8
TORSDOF 1
ENDMDL
MODEL 3
REMARK VINA RESULT:      -4.0      2.439      3.683
REMARK  Name = 
REMARK  1 active torsions:
REMARK  status: ('A' for Active; 'I' for Inactive)
REMARK    1  A    between atoms: C_2  and  C_3
REMARK                            x       y       z     vdW  Elec       q    Type
REMARK                         _______ _______ _______ _____ _____    ______ ____
ROOT
ATOM      1  C   UNL     1     -12.494  15.586  70.657  0.00  0.00    +0.011 A 
ATOM      2  C   UNL     1     -13.762  15.124  70.974  0.00  0.00    -0.002 A 
ATOM      3  C   UNL     1     -14.211  15.338  72.271  0.00  0.00    -0.000 A 
ATOM      4  C   UNL     1     -13.326  15.668  73.289  0.00  0.00    -0.000 A 
ATOM      5  C   UNL     1     -11.984  15.721  72.934  0.00  0.00    -0.000 A 
ATOM      6  C   UNL     1     -11.702  16.159  71.645  0.00  0.00    -0.002 A 
ENDROOT
BRANCH   1   8
ATOM      7  O   UNL     1     -11.586  16.629  68.754  0.00  0.00    -0.215 OA
ATOM      8  C   UNL     1     -11.942  15.410  69.291  0.00  0.00    +0.209 C 
ENDBRANCH   1   8
TORSDOF 1
ENDMDL
MODEL 4
REMARK VINA RESULT:      -4.0      2.235      3.304
REMARK  Name = 
REMARK  1 active torsions:
REMARK  status: ('A' for Active; 'I' for Inactive)
REMARK    1  A    between atoms: C_2  and  C_3
REMARK                            x       y       z     vdW  Elec       q    Type
REMARK                         _______ _______ _______ _____ _____    ______ ____
ROOT
ATOM      1  C   UNL     1     -12.126  15.004  70.758  0.00  0.00    +0.011 A 
ATOM      2  C   UNL     1     -11.874  16.091  71.582  0.00  0.00    -0.002 A 
ATOM      3  C   UNL     1     -12.115  15.929  72.941  0.00  0.00    -0.000 A 
ATOM      4  C   UNL     1     -12.894  14.879  73.409  0.00  0.00    -0.000 A 
ATOM      5  C   UNL     1     -13.441  14.048  72.438  0.00  0.00    -0.000 A 
ATOM      6  C   UNL     1     -12.676  13.846  71.295  0.00  0.00    -0.002 A 
ENDROOT
BRANCH   1   8
ATOM      7  O   UNL     1     -11.819  16.404  68.893  0.00  0.00    -0.215 OA
ATOM      8  C   UNL     1     -11.885  15.087  69.297  0.00  0.00    +0.209 C 
ENDBRANCH   1   8
TORSDOF 1
ENDMDL
MODEL 5
REMARK VINA RESULT:      -3.9      6.603      7.670
REMARK  Name = 
REMARK  1 active torsions:
REMARK  status: ('A' for Active; 'I' for Inactive)
REMARK    1  A    between atoms: C_2  and  C_3
REMARK                            x       y       z     vdW  Elec       q    Type
REMARK                         _______ _______ _______ _____ _____    ______ ____
ROOT
ATOM      1  C   UNL     1     -10.208  17.656  66.356  0.00  0.00    +0.011 A 
ATOM      2  C   UNL     1     -10.531  18.952  65.986  0.00  0.00    -0.002 A 
ATOM      3  C   UNL     1     -10.178  19.971  66.861  0.00  0.00    -0.000 A 
ATOM      4  C   UNL     1      -9.849  19.697  68.182  0.00  0.00    -0.000 A 
ATOM      5  C   UNL     1      -9.942  18.365  68.568  0.00  0.00    -0.000 A 
ATOM      6  C   UNL     1      -9.631  17.417  67.598  0.00  0.00    -0.002 A 
ENDROOT
BRANCH   1   8
ATOM      7  O   UNL     1     -11.214  16.942  64.353  0.00  0.00    -0.215 OA
ATOM      8  C   UNL     1     -10.537  16.510  65.474  0.00  0.00    +0.209 C 
ENDBRANCH   1   8
TORSDOF 1
ENDMDL
MODEL 6
REMARK VINA RESULT:      -3.7      8.083      8.764
REMARK  Name = 
REMARK  1 active torsions:
REMARK  status: ('A' for Active; 'I' for Inactive)
REMARK    1  A    between atoms: C_2  and  C_3
REMARK                            x       y       z     vdW  Elec       q    Type
REMARK                         _______ _______ _______ _____ _____    ______ ____
ROOT
ATOM      1  C   UNL     1     -11.179  14.233  64.626  0.00  0.00    +0.011 A 
ATOM      2  C   UNL     1     -12.379  13.799  64.084  0.00  0.00    -0.002 A 
ATOM      3  C   UNL     1     -12.498  12.443  63.806  0.00  0.00    -0.000 A 
ATOM      4  C   UNL     1     -11.377  11.627  63.733  0.00  0.00    -0.000 A 
ATOM      5  C   UNL     1     -10.152  12.259  63.909  0.00  0.00    -0.000 A 
ATOM      6  C   UNL     1     -10.132  13.334  64.791  0.00  0.00    -0.002 A 
ENDROOT
BRANCH   1   8
ATOM      7  O   UNL     1     -11.533  16.473  63.999  0.00  0.00    -0.215 OA
ATOM      8  C   UNL     1     -10.971  15.662  64.964  0.00  0.00    +0.209 C 
ENDBRANCH   1   8
TORSDOF 1
ENDMDL
MODEL 7
REMARK VINA RESULT:      -3.7      6.306      7.928
REMARK  Name = 
REMARK  1 active torsions:
REMARK  status: ('A' for Active; 'I' for Inactive)
REMARK    1  A    between atoms: C_2  and  C_3
REMARK                            x       y       z     vdW  Elec       q    Type
REMARK                         _______ _______ _______ _____ _____    ______ ____
ROOT
ATOM      1  C   UNL     1     -12.073  12.710  65.235  0.00  0.00    +0.011 A 
ATOM      2  C   UNL     1     -11.434  11.795  66.057  0.00  0.00    -0.002 A 
ATOM      3  C   UNL     1     -11.440  12.053  67.422  0.00  0.00    -0.000 A 
ATOM      4  C   UNL     1     -11.746  13.317  67.909  0.00  0.00    -0.000 A 
ATOM      5  C   UNL     1     -11.994  14.294  66.952  0.00  0.00    -0.000 A 
ATOM      6  C   UNL     1     -12.612  13.869  65.781  0.00  0.00    -0.002 A 
ENDROOT
BRANCH   1   8
ATOM      7  O   UNL     1     -12.607  13.634  63.138  0.00  0.00    -0.215 OA
ATOM      8  C   UNL     1     -12.125  12.505  63.767  0.00  0.00    +0.209 C 
ENDBRANCH   1   8
TORSDOF 1
ENDMDL
MODEL 8
REMARK VINA RESULT:      -3.7      6.607      7.619
REMARK  Name = 
REMARK  1 active torsions:
REMARK  status: ('A' for Active; 'I' for Inactive)
REMARK    1  A    between atoms: C_2  and  C_3
REMARK                            x       y       z     vdW  Elec       q    Type
REMARK                         _______ _______ _______ _____ _____    ______ ____
ROOT
ATOM      1  C   UNL     1     -11.061  14.726  65.480  0.00  0.00    +0.011 A 
ATOM      2  C   UNL     1     -10.510  13.749  64.665  0.00  0.00    -0.002 A 
ATOM      3  C   UNL     1     -10.921  12.438  64.877  0.00  0.00    -0.000 A 
ATOM      4  C   UNL     1     -11.561  12.070  66.053  0.00  0.00    -0.000 A 
ATOM      5  C   UNL     1     -11.716  13.075  67.000  0.00  0.00    -0.000 A 
ATOM      6  C   UNL     1     -11.919  14.361  66.511  0.00  0.00    -0.002 A 
ENDROOT
BRANCH   1   8
ATOM      7  O   UNL     1     -11.320  16.691  64.215  0.00  0.00    -0.215 OA
ATOM      8  C   UNL     1     -10.687  16.152  65.315  0.00  0.00    +0.209 C 
ENDBRANCH   1   8
TORSDOF 1
ENDMDL
MODEL 9
REMARK VINA RESULT:      -3.6      7.682      8.655
REMARK  Name = 
REMARK  1 active torsions:
REMARK  status: ('A' for Active; 'I' for Inactive)
REMARK    1  A    between atoms: C_2  and  C_3
REMARK                            x       y       z     vdW  Elec       q    Type
REMARK                         _______ _______ _______ _____ _____    ______ ____
ROOT
ATOM      1  C   UNL     1     -11.919  12.819  64.920  0.00  0.00    +0.011 A 
ATOM      2  C   UNL     1     -11.562  12.441  63.635  0.00  0.00    -0.002 A 
ATOM      3  C   UNL     1     -10.871  11.245  63.492  0.00  0.00    -0.000 A 
ATOM      4  C   UNL     1     -10.256  10.639  64.580  0.00  0.00    -0.000 A 
ATOM      5  C   UNL     1     -10.343  11.326  65.786  0.00  0.00    -0.000 A 
ATOM      6  C   UNL     1     -11.510  12.050  66.003  0.00  0.00    -0.002 A 
ENDROOT
BRANCH   1   8
ATOM      7  O   UNL     1     -12.634  14.881  64.043  0.00  0.00    -0.215 OA
ATOM      8  C   UNL     1     -12.670  14.075  65.161  0.00  0.00    +0.209 C 
ENDBRANCH   1   8
TORSDOF 1
ENDMDL
