MODEL 1
REMARK VINA RESULT:      -7.1      0.000      0.000
REMARK  Name = 
REMARK  5 active torsions:
REMARK  status: ('A' for Active; 'I' for Inactive)
REMARK    1  A    between atoms: C_2  and  C_3
REMARK    2  A    between atoms: C_3  and  C_4
REMARK    3  A    between atoms: C_7  and  C_8
REMARK    4  A    between atoms: C_20  and  C_21
REMARK    5  A    between atoms: N_24  and  C_25
REMARK                            x       y       z     vdW  Elec       q    Type
REMARK                         _______ _______ _______ _____ _____    ______ ____
ROOT
ATOM      1  C   UNL     1     -11.169  13.703  68.360  0.00  0.00    +0.028 A 
ATOM      2  C   UNL     1     -11.548  13.143  69.574  0.00  0.00    +0.062 A 
ATOM      3  C   UNL     1     -11.273  11.796  69.758  0.00  0.00    +0.055 A 
ATOM      4  C   UNL     1     -11.993  11.173  70.769  0.00  0.00    +0.199 A 
ATOM      5  C   UNL     1     -12.987  11.823  71.480  0.00  0.00    +0.066 A 
ATOM      6  C   UNL     1     -13.091  13.200  71.313  0.00  0.00    +0.144 A 
ATOM      7  O   UNL     1     -11.995   9.907  70.804  0.00  0.00    -0.286 OA
ATOM      8  C   UNL     1     -10.904  11.029  68.660  0.00  0.00    +0.011 A 
ATOM      9  C   UNL     1     -10.651  11.596  67.418  0.00  0.00    +0.073 A 
ATOM     10  C   UNL     1     -10.689  10.801  66.279  0.00  0.00    +0.202 A 
ATOM     11  O   UNL     1     -10.479   9.563  66.398  0.00  0.00    -0.286 OA
ATOM     12  C   UNL     1     -11.282  11.236  65.100  0.00  0.00    +0.086 A 
ATOM     13  C   UNL     1     -11.649  12.574  65.035  0.00  0.00    +0.228 A 
ATOM     14  O   UNL     1     -11.318  13.378  66.026  0.00  0.00    -0.447 OA
ATOM     15  N   UNL     1     -12.212  13.853  70.517  0.00  0.00    -0.322 N 
ATOM     16  C   UNL     1     -10.976  12.932  67.220  0.00  0.00    +0.146 A 
ENDROOT
BRANCH   6  17
ATOM     17  C   UNL     1     -13.880  13.893  72.339  0.00  0.00    +0.403 C 
ATOM     18  O   UNL     1     -15.079  14.454  71.890  0.00  0.00    -0.239 OA
ATOM     19  O   UNL     1     -13.291  14.328  73.372  0.00  0.00    -0.239 OA
ENDBRANCH   6  17
BRANCH  13  20
ATOM     20  C   UNL     1     -12.159  13.117  63.769  0.00  0.00    +0.422 C 
ATOM     21  O   UNL     1     -12.506  14.469  63.727  0.00  0.00    -0.237 OA
ATOM     22  O   UNL     1     -12.765  12.354  62.961  0.00  0.00    -0.237 OA
ENDBRANCH  13  20
BRANCH  15  23
ATOM     23  C   UNL     1     -12.532  15.249  70.236  0.00  0.00    +0.106 C 
ATOM     24  C   UNL     1     -11.696  16.069  71.211  0.00  0.00    +0.026 C 
ENDBRANCH  15  23
BRANCH   1  25
ATOM     25  C   UNL     1     -11.167  15.169  68.211  0.00  0.00    +0.031 C 
BRANCH  25  27
ATOM     26  C   UNL     1      -8.842  15.460  69.007  0.00  0.00    +0.000 C 
ATOM     27  C   UNL     1      -9.787  15.670  67.838  0.00  0.00    +0.005 C 
ENDBRANCH  25  27
ENDBRANCH   1  25
TORSDOF 5
ENDMDL
MODEL 2
REMARK VINA RESULT:      -7.1      2.054      6.823
REMARK  Name = 
REMARK  5 active torsions:
REMARK  status: ('A' for Active; 'I' for Inactive)
REMARK    1  A    between atoms: C_2  and  C_3
REMARK    2  A    between atoms: C_3  and  C_4
REMARK    3  A    between atoms: C_7  and  C_8
REMARK    4  A    between atoms: C_20  and  C_21
REMARK    5  A    between atoms: N_24  and  C_25
REMARK                            x       y       z     vdW  Elec       q    Type
REMARK                         _______ _______ _______ _____ _____    ______ ____
ROOT
ATOM      1  C   UNL     1     -10.883  12.709  68.420  0.00  0.00    +0.028 A 
ATOM      2  C   UNL     1     -10.495  13.045  67.128  0.00  0.00    +0.062 A 
ATOM      3  C   UNL     1     -10.015  14.332  66.931  0.00  0.00    +0.055 A 
ATOM      4  C   UNL     1     -10.015  14.771  65.613  0.00  0.00    +0.199 A 
ATOM      5  C   UNL     1     -10.547  14.020  64.580  0.00  0.00    +0.066 A 
ATOM      6  C   UNL     1     -10.878  12.699  64.861  0.00  0.00    +0.144 A 
ATOM      7  O   UNL     1      -9.855  16.010  65.401  0.00  0.00    -0.286 OA
ATOM      8  C   UNL     1     -10.200  15.279  67.929  0.00  0.00    +0.011 A 
ATOM      9  C   UNL     1     -10.709  14.944  69.177  0.00  0.00    +0.073 A 
ATOM     10  C   UNL     1     -11.256  15.933  69.985  0.00  0.00    +0.202 A 
ATOM     11  O   UNL     1     -10.876  17.125  69.821  0.00  0.00    -0.286 OA
ATOM     12  C   UNL     1     -12.427  15.730  70.703  0.00  0.00    +0.086 A 
ATOM     13  C   UNL     1     -12.921  14.432  70.752  0.00  0.00    +0.228 A 
ATOM     14  O   UNL     1     -12.207  13.456  70.226  0.00  0.00    -0.447 OA
ATOM     15  N   UNL     1     -10.633  12.187  66.090  0.00  0.00    -0.322 N 
ATOM     16  C   UNL     1     -11.237  13.672  69.357  0.00  0.00    +0.146 A 
ENDROOT
BRANCH   6  17
ATOM     17  C   UNL     1     -11.075  11.843  63.684  0.00  0.00    +0.403 C 
ATOM     18  O   UNL     1      -9.932  11.623  62.910  0.00  0.00    -0.239 OA
ATOM     19  O   UNL     1     -12.238  11.737  63.193  0.00  0.00    -0.239 OA
ENDBRANCH   6  17
BRANCH  13  20
ATOM     20  C   UNL     1     -14.081  14.138  71.602  0.00  0.00    +0.422 C 
ATOM     21  O   UNL     1     -15.200  14.966  71.496  0.00  0.00    -0.237 OA
ATOM     22  O   UNL     1     -13.909  13.564  72.717  0.00  0.00    -0.237 OA
ENDBRANCH  13  20
BRANCH  15  23
ATOM     23  C   UNL     1     -11.208  10.870  66.351  0.00  0.00    +0.106 C 
ATOM     24  C   UNL     1     -10.119   9.865  65.993  0.00  0.00    +0.026 C 
ENDBRANCH  15  23
BRANCH   1  25
ATOM     25  C   UNL     1     -11.124  11.295  68.756  0.00  0.00    +0.031 C 
BRANCH  25  27
ATOM     26  C   UNL     1     -10.477   9.631  70.470  0.00  0.00    +0.000 C 
ATOM     27  C   UNL     1      -9.967  10.726  69.550  0.00  0.00    +0.005 C 
ENDBRANCH  25  27
ENDBRANCH   1  25
TORSDOF 5
ENDMDL
MODEL 3
REMARK VINA RESULT:      -6.9      5.638      8.890
REMARK  Name = 
REMARK  5 active torsions:
REMARK  status: ('A' for Active; 'I' for Inactive)
REMARK    1  A    between atoms: C_2  and  C_3
REMARK    2  A    between atoms: C_3  and  C_4
REMARK    3  A    between atoms: C_7  and  C_8
REMARK    4  A    between atoms: C_20  and  C_21
REMARK    5  A    between atoms: N_24  and  C_25
REMARK                            x       y       z     vdW  Elec       q    Type
REMARK                         _______ _______ _______ _____ _____    ______ ____
ROOT
ATOM      1  C   UNL     1      -6.738  17.550  68.796  0.00  0.00    +0.028 A 
ATOM      2  C   UNL     1      -7.908  17.468  68.051  0.00  0.00    +0.062 A 
ATOM      3  C   UNL     1      -8.101  18.434  67.074  0.00  0.00    +0.055 A 
ATOM      4  C   UNL     1      -9.409  18.580  66.631  0.00  0.00    +0.199 A 
ATOM      5  C   UNL     1     -10.465  17.883  67.191  0.00  0.00    +0.066 A 
ATOM      6  C   UNL     1     -10.150  16.849  68.066  0.00  0.00    +0.144 A 
ATOM      7  O   UNL     1      -9.695  19.614  65.956  0.00  0.00    -0.286 OA
ATOM      8  C   UNL     1      -7.287  19.559  67.071  0.00  0.00    +0.011 A 
ATOM      9  C   UNL     1      -6.191  19.676  67.916  0.00  0.00    +0.073 A 
ATOM     10  C   UNL     1      -5.659  20.932  68.181  0.00  0.00    +0.202 A 
ATOM     11  O   UNL     1      -5.835  21.854  67.338  0.00  0.00    -0.286 OA
ATOM     12  C   UNL     1      -5.258  21.305  69.458  0.00  0.00    +0.086 A 
ATOM     13  C   UNL     1      -5.211  20.305  70.421  0.00  0.00    +0.228 A 
ATOM     14  O   UNL     1      -5.430  19.055  70.059  0.00  0.00    -0.447 OA
ATOM     15  N   UNL     1      -8.855  16.532  68.301  0.00  0.00    -0.322 N 
ATOM     16  C   UNL     1      -6.029  18.738  68.927  0.00  0.00    +0.146 A 
ENDROOT
BRANCH   6  17
ATOM     17  C   UNL     1     -11.246  15.909  68.338  0.00  0.00    +0.403 C 
ATOM     18  O   UNL     1     -11.566  15.047  67.286  0.00  0.00    -0.239 OA
ATOM     19  O   UNL     1     -12.089  16.198  69.238  0.00  0.00    -0.239 OA
ENDBRANCH   6  17
BRANCH  13  20
ATOM     20  C   UNL     1      -4.672  20.615  71.751  0.00  0.00    +0.422 C 
ATOM     21  O   UNL     1      -4.510  21.958  72.097  0.00  0.00    -0.237 OA
ATOM     22  O   UNL     1      -3.899  19.790  72.320  0.00  0.00    -0.237 OA
ENDBRANCH  13  20
BRANCH  15  23
ATOM     23  C   UNL     1      -8.624  15.585  69.388  0.00  0.00    +0.106 C 
ATOM     24  C   UNL     1      -8.498  14.218  68.726  0.00  0.00    +0.026 C 
ENDBRANCH  15  23
BRANCH   1  25
ATOM     25  C   UNL     1      -6.337  16.409  69.639  0.00  0.00    +0.031 C 
BRANCH  25  27
ATOM     26  C   UNL     1      -5.017  15.121  67.990  0.00  0.00    +0.000 C 
ATOM     27  C   UNL     1      -4.948  15.931  69.271  0.00  0.00    +0.005 C 
ENDBRANCH  25  27
ENDBRANCH   1  25
TORSDOF 5
ENDMDL
MODEL 4
REMARK VINA RESULT:      -6.8      2.208      6.836
REMARK  Name = 
REMARK  5 active torsions:
REMARK  status: ('A' for Active; 'I' for Inactive)
REMARK    1  A    between atoms: C_2  and  C_3
REMARK    2  A    between atoms: C_3  and  C_4
REMARK    3  A    between atoms: C_7  and  C_8
REMARK    4  A    between atoms: C_20  and  C_21
REMARK    5  A    between atoms: N_24  and  C_25
REMARK                            x       y       z     vdW  Elec       q    Type
REMARK                         _______ _______ _______ _____ _____    ______ ____
ROOT
ATOM      1  C   UNL     1     -10.892  10.444  68.678  0.00  0.00    +0.028 A 
ATOM      2  C   UNL     1     -10.950  11.465  67.737  0.00  0.00    +0.062 A 
ATOM      3  C   UNL     1     -11.301  12.725  68.197  0.00  0.00    +0.055 A 
ATOM      4  C   UNL     1     -11.737  13.615  67.224  0.00  0.00    +0.199 A 
ATOM      5  C   UNL     1     -11.905  13.244  65.901  0.00  0.00    +0.066 A 
ATOM      6  C   UNL     1     -11.400  12.005  65.520  0.00  0.00    +0.144 A 
ATOM      7  O   UNL     1     -12.326  14.670  67.604  0.00  0.00    -0.286 OA
ATOM      8  C   UNL     1     -11.834  12.850  69.473  0.00  0.00    +0.011 A 
ATOM      9  C   UNL     1     -11.882  11.781  70.358  0.00  0.00    +0.073 A 
ATOM     10  C   UNL     1     -12.762  11.819  71.433  0.00  0.00    +0.202 A 
ATOM     11  O   UNL     1     -13.138  12.941  71.869  0.00  0.00    -0.286 OA
ATOM     12  C   UNL     1     -13.503  10.707  71.814  0.00  0.00    +0.086 A 
ATOM     13  C   UNL     1     -13.178   9.497  71.214  0.00  0.00    +0.228 A 
ATOM     14  O   UNL     1     -12.128   9.437  70.419  0.00  0.00    -0.447 OA
ATOM     15  N   UNL     1     -10.737  11.239  66.418  0.00  0.00    -0.322 N 
ATOM     16  C   UNL     1     -11.581  10.512  69.882  0.00  0.00    +0.146 A 
ENDROOT
BRANCH   6  17
ATOM     17  C   UNL     1     -11.257  11.810  64.071  0.00  0.00    +0.403 C 
ATOM     18  O   UNL     1     -10.114  12.380  63.504  0.00  0.00    -0.239 OA
ATOM     19  O   UNL     1     -12.293  11.577  63.381  0.00  0.00    -0.239 OA
ENDBRANCH   6  17
BRANCH  13  20
ATOM     20  C   UNL     1     -13.840   8.269  71.673  0.00  0.00    +0.422 C 
ATOM     21  O   UNL     1     -14.930   8.394  72.537  0.00  0.00    -0.237 OA
ATOM     22  O   UNL     1     -13.176   7.195  71.757  0.00  0.00    -0.237 OA
ENDBRANCH  13  20
BRANCH  15  23
ATOM     23  C   UNL     1     -10.437   9.877  65.987  0.00  0.00    +0.106 C 
ATOM     24  C   UNL     1      -8.992   9.906  65.502  0.00  0.00    +0.026 C 
ENDBRANCH  15  23
BRANCH   1  25
ATOM     25  C   UNL     1     -10.254   9.165  68.317  0.00  0.00    +0.031 C 
BRANCH  25  27
ATOM     26  C   UNL     1      -8.012   9.900  69.062  0.00  0.00    +0.000 C 
ATOM     27  C   UNL     1      -9.100   8.858  69.249  0.00  0.00    +0.005 C 
ENDBRANCH  25  27
ENDBRANCH   1  25
TORSDOF 5
ENDMDL
MODEL 5
REMARK VINA RESULT:      -6.7      2.781      5.215
REMARK  Name = 
REMARK  5 active torsions:
REMARK  status: ('A' for Active; 'I' for Inactive)
REMARK    1  A    between atoms: C_2  and  C_3
REMARK    2  A    between atoms: C_3  and  C_4
REMARK    3  A    between atoms: C_7  and  C_8
REMARK    4  A    between atoms: C_20  and  C_21
REMARK    5  A    between atoms: N_24  and  C_25
REMARK                            x       y       z     vdW  Elec       q    Type
REMARK                         _______ _______ _______ _____ _____    ______ ____
ROOT
ATOM      1  C   UNL     1     -10.979  13.394  67.372  0.00  0.00    +0.028 A 
ATOM      2  C   UNL     1     -10.920  14.756  67.103  0.00  0.00    +0.062 A 
ATOM      3  C   UNL     1     -11.410  15.177  65.876  0.00  0.00    +0.055 A 
ATOM      4  C   UNL     1     -10.989  16.435  65.466  0.00  0.00    +0.199 A 
ATOM      5  C   UNL     1     -10.067  17.179  66.181  0.00  0.00    +0.066 A 
ATOM      6  C   UNL     1      -9.741  16.730  67.456  0.00  0.00    +0.144 A 
ATOM      7  O   UNL     1     -11.170  16.757  64.254  0.00  0.00    -0.286 OA
ATOM      8  C   UNL     1     -11.668  14.229  64.894  0.00  0.00    +0.011 A 
ATOM      9  C   UNL     1     -11.599  12.866  65.151  0.00  0.00    +0.073 A 
ATOM     10  C   UNL     1     -11.456  11.974  64.095  0.00  0.00    +0.202 A 
ATOM     11  O   UNL     1     -11.857  12.322  62.951  0.00  0.00    -0.286 OA
ATOM     12  C   UNL     1     -10.596  10.885  64.166  0.00  0.00    +0.086 A 
ATOM     13  C   UNL     1     -10.041  10.599  65.406  0.00  0.00    +0.228 A 
ATOM     14  O   UNL     1     -10.438  11.285  66.460  0.00  0.00    -0.447 OA
ATOM     15  N   UNL     1     -10.354  15.635  67.965  0.00  0.00    -0.322 N 
ATOM     16  C   UNL     1     -11.059  12.446  66.360  0.00  0.00    +0.146 A 
ENDROOT
BRANCH   6  17
ATOM     17  C   UNL     1      -9.072  17.719  68.312  0.00  0.00    +0.403 C 
ATOM     18  O   UNL     1      -9.877  18.778  68.739  0.00  0.00    -0.239 OA
ATOM     19  O   UNL     1      -7.812  17.827  68.250  0.00  0.00    -0.239 OA
ENDBRANCH   6  17
BRANCH  13  20
ATOM     20  C   UNL     1      -9.229   9.386  65.566  0.00  0.00    +0.422 C 
ATOM     21  O   UNL     1      -9.809   8.289  66.207  0.00  0.00    -0.237 OA
ATOM     22  O   UNL     1      -7.970   9.481  65.640  0.00  0.00    -0.237 OA
ENDBRANCH  13  20
BRANCH  15  23
ATOM     23  C   UNL     1      -9.794  15.121  69.212  0.00  0.00    +0.106 C 
ATOM     24  C   UNL     1     -10.717  15.622  70.317  0.00  0.00    +0.026 C 
ENDBRANCH  15  23
BRANCH   1  25
ATOM     25  C   UNL     1     -10.748  12.919  68.748  0.00  0.00    +0.031 C 
BRANCH  25  27
ATOM     26  C   UNL     1     -11.545  10.873  69.889  0.00  0.00    +0.000 C 
ATOM     27  C   UNL     1     -11.969  12.196  69.279  0.00  0.00    +0.005 C 
ENDBRANCH  25  27
ENDBRANCH   1  25
TORSDOF 5
ENDMDL
MODEL 6
REMARK VINA RESULT:      -6.6      4.177      7.165
REMARK  Name = 
REMARK  5 active torsions:
REMARK  status: ('A' for Active; 'I' for Inactive)
REMARK    1  A    between atoms: C_2  and  C_3
REMARK    2  A    between atoms: C_3  and  C_4
REMARK    3  A    between atoms: C_7  and  C_8
REMARK    4  A    between atoms: C_20  and  C_21
REMARK    5  A    between atoms: N_24  and  C_25
REMARK                            x       y       z     vdW  Elec       q    Type
REMARK                         _______ _______ _______ _____ _____    ______ ____
ROOT
ATOM      1  C   UNL     1      -9.349  17.500  68.251  0.00  0.00    +0.028 A 
ATOM      2  C   UNL     1      -8.028  17.224  67.921  0.00  0.00    +0.062 A 
ATOM      3  C   UNL     1      -7.750  15.948  67.452  0.00  0.00    +0.055 A 
ATOM      4  C   UNL     1      -6.415  15.570  67.511  0.00  0.00    +0.199 A 
ATOM      5  C   UNL     1      -5.442  16.367  68.087  0.00  0.00    +0.066 A 
ATOM      6  C   UNL     1      -5.797  17.674  68.403  0.00  0.00    +0.144 A 
ATOM      7  O   UNL     1      -6.139  14.342  67.363  0.00  0.00    -0.286 OA
ATOM      8  C   UNL     1      -8.711  14.956  67.594  0.00  0.00    +0.011 A 
ATOM      9  C   UNL     1      -9.994  15.234  68.048  0.00  0.00    +0.073 A 
ATOM     10  C   UNL     1     -10.779  14.208  68.559  0.00  0.00    +0.202 A 
ATOM     11  O   UNL     1     -10.545  13.025  68.189  0.00  0.00    -0.286 OA
ATOM     12  C   UNL     1     -11.557  14.377  69.698  0.00  0.00    +0.086 A 
ATOM     13  C   UNL     1     -11.687  15.671  70.187  0.00  0.00    +0.228 A 
ATOM     14  O   UNL     1     -11.175  16.671  69.496  0.00  0.00    -0.447 OA
ATOM     15  N   UNL     1      -7.037  18.129  68.104  0.00  0.00    -0.322 N 
ATOM     16  C   UNL     1     -10.256  16.496  68.565  0.00  0.00    +0.146 A 
ENDROOT
BRANCH   6  17
ATOM     17  C   UNL     1      -4.670  18.582  68.652  0.00  0.00    +0.403 C 
ATOM     18  O   UNL     1      -3.887  18.878  67.533  0.00  0.00    -0.239 OA
ATOM     19  O   UNL     1      -4.209  18.677  69.827  0.00  0.00    -0.239 OA
ENDBRANCH   6  17
BRANCH  13  20
ATOM     20  C   UNL     1     -12.601  15.925  71.308  0.00  0.00    +0.422 C 
ATOM     21  O   UNL     1     -12.052  16.057  72.584  0.00  0.00    -0.237 OA
ATOM     22  O   UNL     1     -13.795  15.510  71.247  0.00  0.00    -0.237 OA
ENDBRANCH  13  20
BRANCH  15  23
ATOM     23  C   UNL     1      -7.383  19.432  68.665  0.00  0.00    +0.106 C 
ATOM     24  C   UNL     1      -7.013  20.454  67.596  0.00  0.00    +0.026 C 
ENDBRANCH  15  23
BRANCH   1  25
ATOM     25  C   UNL     1      -9.760  18.898  68.476  0.00  0.00    +0.031 C 
BRANCH  25  27
ATOM     26  C   UNL     1     -10.149  19.322  66.070  0.00  0.00    +0.000 C 
ATOM     27  C   UNL     1     -10.785  19.329  67.447  0.00  0.00    +0.005 C 
ENDBRANCH  25  27
ENDBRANCH   1  25
TORSDOF 5
ENDMDL
MODEL 7
REMARK VINA RESULT:      -6.6      2.311      5.777
REMARK  Name = 
REMARK  5 active torsions:
REMARK  status: ('A' for Active; 'I' for Inactive)
REMARK    1  A    between atoms: C_2  and  C_3
REMARK    2  A    between atoms: C_3  and  C_4
REMARK    3  A    between atoms: C_7  and  C_8
REMARK    4  A    between atoms: C_20  and  C_21
REMARK    5  A    between atoms: N_24  and  C_25
REMARK                            x       y       z     vdW  Elec       q    Type
REMARK                         _______ _______ _______ _____ _____    ______ ____
ROOT
ATOM      1  C   UNL     1     -11.247  12.969  67.421  0.00  0.00    +0.028 A 
ATOM      2  C   UNL     1     -11.014  11.692  67.918  0.00  0.00    +0.062 A 
ATOM      3  C   UNL     1     -11.556  11.391  69.159  0.00  0.00    +0.055 A 
ATOM      4  C   UNL     1     -10.996  10.296  69.803  0.00  0.00    +0.199 A 
ATOM      5  C   UNL     1      -9.908   9.610  69.292  0.00  0.00    +0.066 A 
ATOM      6  C   UNL     1      -9.528   9.904  67.987  0.00  0.00    +0.144 A 
ATOM      7  O   UNL     1     -11.248  10.139  71.035  0.00  0.00    -0.286 OA
ATOM      8  C   UNL     1     -12.047  12.424  69.946  0.00  0.00    +0.011 A 
ATOM      9  C   UNL     1     -12.155  13.725  69.471  0.00  0.00    +0.073 A 
ATOM     10  C   UNL     1     -12.251  14.779  70.370  0.00  0.00    +0.202 A 
ATOM     11  O   UNL     1     -12.707  14.551  71.524  0.00  0.00    -0.286 OA
ATOM     12  C   UNL     1     -11.558  15.969  70.183  0.00  0.00    +0.086 A 
ATOM     13  C   UNL     1     -10.931  16.147  68.957  0.00  0.00    +0.228 A 
ATOM     14  O   UNL     1     -11.116  15.252  68.006  0.00  0.00    -0.447 OA
ATOM     15  N   UNL     1     -10.242  10.795  67.259  0.00  0.00    -0.322 N 
ATOM     16  C   UNL     1     -11.566  14.036  68.252  0.00  0.00    +0.146 A 
ENDROOT
BRANCH   6  17
ATOM     17  C   UNL     1      -8.639   8.918  67.361  0.00  0.00    +0.403 C 
ATOM     18  O   UNL     1      -9.194   7.649  67.175  0.00  0.00    -0.239 OA
ATOM     19  O   UNL     1      -7.386   9.087  67.439  0.00  0.00    -0.239 OA
ENDBRANCH   6  17
BRANCH  13  20
ATOM     20  C   UNL     1     -10.296  17.437  68.658  0.00  0.00    +0.422 C 
ATOM     21  O   UNL     1     -10.979  18.327  67.827  0.00  0.00    -0.237 OA
ATOM     22  O   UNL     1      -9.034  17.529  68.666  0.00  0.00    -0.237 OA
ENDBRANCH  13  20
BRANCH  15  23
ATOM     23  C   UNL     1      -9.643  11.195  65.989  0.00  0.00    +0.106 C 
ATOM     24  C   UNL     1     -10.151  10.193  64.959  0.00  0.00    +0.026 C 
ENDBRANCH  15  23
BRANCH   1  25
ATOM     25  C   UNL     1     -10.953  13.258  66.006  0.00  0.00    +0.031 C 
BRANCH  25  27
ATOM     26  C   UNL     1     -12.037  13.102  63.787  0.00  0.00    +0.000 C 
ATOM     27  C   UNL     1     -12.231  13.516  65.234  0.00  0.00    +0.005 C 
ENDBRANCH  25  27
ENDBRANCH   1  25
TORSDOF 5
ENDMDL
MODEL 8
REMARK VINA RESULT:      -6.3      2.498      5.527
REMARK  Name = 
REMARK  5 active torsions:
REMARK  status: ('A' for Active; 'I' for Inactive)
REMARK    1  A    between atoms: C_2  and  C_3
REMARK    2  A    between atoms: C_3  and  C_4
REMARK    3  A    between atoms: C_7  and  C_8
REMARK    4  A    between atoms: C_20  and  C_21
REMARK    5  A    between atoms: N_24  and  C_25
REMARK                            x       y       z     vdW  Elec       q    Type
REMARK                         _______ _______ _______ _____ _____    ______ ____
ROOT
ATOM      1  C   UNL     1     -10.748  12.802  67.922  0.00  0.00    +0.028 A 
ATOM      2  C   UNL     1     -11.149  11.714  68.688  0.00  0.00    +0.062 A 
ATOM      3  C   UNL     1     -12.105  11.952  69.665  0.00  0.00    +0.055 A 
ATOM      4  C   UNL     1     -12.196  10.984  70.657  0.00  0.00    +0.199 A 
ATOM      5  C   UNL     1     -11.329   9.907  70.725  0.00  0.00    +0.066 A 
ATOM      6  C   UNL     1     -10.500   9.689  69.630  0.00  0.00    +0.144 A 
ATOM      7  O   UNL     1     -12.840  11.271  71.709  0.00  0.00    -0.286 OA
ATOM      8  C   UNL     1     -12.401  13.263  70.011  0.00  0.00    +0.011 A 
ATOM      9  C   UNL     1     -11.886  14.344  69.307  0.00  0.00    +0.073 A 
ATOM     10  C   UNL     1     -11.858  15.600  69.901  0.00  0.00    +0.202 A 
ATOM     11  O   UNL     1     -12.686  15.855  70.818  0.00  0.00    -0.286 OA
ATOM     12  C   UNL     1     -10.762  16.444  69.780  0.00  0.00    +0.086 A 
ATOM     13  C   UNL     1      -9.778  16.076  68.870  0.00  0.00    +0.228 A 
ATOM     14  O   UNL     1      -9.983  15.028  68.096  0.00  0.00    -0.447 OA
ATOM     15  N   UNL     1     -10.595  10.487  68.540  0.00  0.00    -0.322 N 
ATOM     16  C   UNL     1     -10.892  14.110  68.367  0.00  0.00    +0.146 A 
ENDROOT
BRANCH   6  17
ATOM     17  C   UNL     1      -9.883   8.358  69.572  0.00  0.00    +0.403 C 
ATOM     18  O   UNL     1     -10.761   7.307  69.289  0.00  0.00    -0.239 OA
ATOM     19  O   UNL     1      -8.791   8.162  70.183  0.00  0.00    -0.239 OA
ENDBRANCH   6  17
BRANCH  13  20
ATOM     20  C   UNL     1      -8.663  16.994  68.608  0.00  0.00    +0.422 C 
ATOM     21  O   UNL     1      -7.399  16.644  69.086  0.00  0.00    -0.237 OA
ATOM     22  O   UNL     1      -8.892  18.231  68.472  0.00  0.00    -0.237 OA
ENDBRANCH  13  20
BRANCH  15  23
ATOM     23  C   UNL     1      -9.545  10.317  67.540  0.00  0.00    +0.106 C 
ATOM     24  C   UNL     1     -10.124   9.378  66.488  0.00  0.00    +0.026 C 
ENDBRANCH  15  23
BRANCH   1  25
ATOM     25  C   UNL     1      -9.965  12.570  66.695  0.00  0.00    +0.031 C 
BRANCH  25  27
ATOM     26  C   UNL     1     -12.027  12.450  65.332  0.00  0.00    +0.000 C 
ATOM     27  C   UNL     1     -10.682  13.134  65.485  0.00  0.00    +0.005 C 
ENDBRANCH  25  27
ENDBRANCH   1  25
TORSDOF 5
ENDMDL
MODEL 9
REMARK VINA RESULT:      -6.2      3.489      6.655
REMARK  Name = 
REMARK  5 active torsions:
REMARK  status: ('A' for Active; 'I' for Inactive)
REMARK    1  A    between atoms: C_2  and  C_3
REMARK    2  A    between atoms: C_3  and  C_4
REMARK    3  A    between atoms: C_7  and  C_8
REMARK    4  A    between atoms: C_20  and  C_21
REMARK    5  A    between atoms: N_24  and  C_25
REMARK                            x       y       z     vdW  Elec       q    Type
REMARK                         _______ _______ _______ _____ _____    ______ ____
ROOT
ATOM      1  C   UNL     1      -9.694  16.384  68.358  0.00  0.00    +0.028 A 
ATOM      2  C   UNL     1      -8.554  15.750  67.880  0.00  0.00    +0.062 A 
ATOM      3  C   UNL     1      -8.686  14.424  67.495  0.00  0.00    +0.055 A 
ATOM      4  C   UNL     1      -7.499  13.708  67.407  0.00  0.00    +0.199 A 
ATOM      5  C   UNL     1      -6.278  14.248  67.772  0.00  0.00    +0.066 A 
ATOM      6  C   UNL     1      -6.236  15.616  68.014  0.00  0.00    +0.144 A 
ATOM      7  O   UNL     1      -7.571  12.445  67.335  0.00  0.00    -0.286 OA
ATOM      8  C   UNL     1      -9.834  13.731  67.855  0.00  0.00    +0.011 A 
ATOM      9  C   UNL     1     -10.919  14.362  68.450  0.00  0.00    +0.073 A 
ATOM     10  C   UNL     1     -11.851  13.610  69.154  0.00  0.00    +0.202 A 
ATOM     11  O   UNL     1     -11.986  12.389  68.864  0.00  0.00    -0.286 OA
ATOM     12  C   UNL     1     -12.376  14.039  70.366  0.00  0.00    +0.086 A 
ATOM     13  C   UNL     1     -12.095  15.344  70.749  0.00  0.00    +0.228 A 
ATOM     14  O   UNL     1     -11.458  16.135  69.908  0.00  0.00    -0.447 OA
ATOM     15  N   UNL     1      -7.349  16.368  67.844  0.00  0.00    -0.322 N 
ATOM     16  C   UNL     1     -10.768  15.674  68.881  0.00  0.00    +0.146 A 
ENDROOT
BRANCH   6  17
ATOM     17  C   UNL     1      -4.890  16.205  68.024  0.00  0.00    +0.403 C 
ATOM     18  O   UNL     1      -4.218  16.174  66.799  0.00  0.00    -0.239 OA
ATOM     19  O   UNL     1      -4.264  16.278  69.122  0.00  0.00    -0.239 OA
ENDBRANCH   6  17
BRANCH  13  20
ATOM     20  C   UNL     1     -12.730  15.890  71.955  0.00  0.00    +0.422 C 
ATOM     21  O   UNL     1     -12.000  15.874  73.145  0.00  0.00    -0.237 OA
ATOM     22  O   UNL     1     -13.990  15.860  72.066  0.00  0.00    -0.237 OA
ENDBRANCH  13  20
BRANCH  15  23
ATOM     23  C   UNL     1      -7.261  17.744  68.326  0.00  0.00    +0.106 C 
ATOM     24  C   UNL     1      -6.773  18.567  67.140  0.00  0.00    +0.026 C 
ENDBRANCH  15  23
BRANCH   1  25
ATOM     25  C   UNL     1      -9.696  17.850  68.508  0.00  0.00    +0.031 C 
BRANCH  25  27
ATOM     26  C   UNL     1     -10.190  19.971  67.334  0.00  0.00    +0.000 C 
ATOM     27  C   UNL     1     -10.545  18.499  67.436  0.00  0.00    +0.005 C 
ENDBRANCH  25  27
ENDBRANCH   1  25
TORSDOF 5
ENDMDL
