MODEL 1
REMARK VINA RESULT:      -8.8      0.000      0.000
REMARK  Name = 
REMARK  7 active torsions:
REMARK  status: ('A' for Active; 'I' for Inactive)
REMARK    1  A    between atoms: C_5  and  C_6
REMARK    2  A    between atoms: N_8  and  C_9
REMARK    3  A    between atoms: C_12  and  C_13
REMARK    4  A    between atoms: C_13  and  N_14
REMARK    5  A    between atoms: C_21  and  C_22
REMARK    6  A    between atoms: C_28  and  C_29
REMARK    7  A    between atoms: C_30  and  C_31
REMARK                            x       y       z     vdW  Elec       q    Type
REMARK                         _______ _______ _______ _____ _____    ______ ____
ROOT
ATOM      1  C   UNL     1     -10.775  15.370  68.195  0.00  0.00    +0.269 C 
ATOM      2  N   UNL     1      -9.644  14.548  67.993  0.00  0.00    -0.175 NA
ATOM      3  O   UNL     1     -11.161  16.025  67.179  0.00  0.00    -0.268 OA
ENDROOT
BRANCH   1   8
ATOM      4  C   UNL     1     -13.079  14.766  73.341  0.00  0.00    +0.032 C 
ATOM      5  C   UNL     1     -12.407  14.850  72.015  0.00  0.00    -0.014 A 
ATOM      6  C   UNL     1     -12.402  13.793  71.114  0.00  0.00    +0.038 A 
ATOM      7  C   UNL     1     -12.206  14.055  69.763  0.00  0.00    +0.013 A 
ATOM      8  C   UNL     1     -11.666  15.246  69.357  0.00  0.00    +0.056 A 
ATOM      9  C   UNL     1     -11.496  16.218  70.336  0.00  0.00    +0.004 A 
ATOM     10  C   UNL     1     -11.729  16.001  71.666  0.00  0.00    -0.004 A 
BRANCH   6  11
ATOM     11  C   UNL     1     -12.916  12.521  71.569  0.00  0.00    -0.059 C 
ATOM     12  C   UNL     1     -13.203  11.354  71.748  0.00  0.00    -0.039 C 
BRANCH  12  13
ATOM     13  C   UNL     1     -13.194   9.915  71.761  0.00  0.00    +0.145 A 
ATOM     14  N   UNL     1     -12.042   9.210  71.714  0.00  0.00    -0.203 N 
ATOM     15  C   UNL     1     -12.351   7.942  72.008  0.00  0.00    +0.165 A 
ATOM     16  C   UNL     1     -11.295   7.044  72.089  0.00  0.00    +0.040 A 
ATOM     17  C   UNL     1     -10.004   7.545  72.048  0.00  0.00    +0.026 A 
ATOM     18  C   UNL     1      -9.767   8.743  71.385  0.00  0.00    +0.121 A 
ATOM     19  N   UNL     1     -13.680   7.792  71.790  0.00  0.00    -0.223 NA
ATOM     20  N   UNL     1     -10.854   9.534  71.215  0.00  0.00    -0.162 NA
ATOM     21  C   UNL     1     -14.230   9.025  71.843  0.00  0.00    +0.128 A 
ENDBRANCH  12  13
ENDBRANCH   6  11
ENDBRANCH   1   8
BRANCH   2  22
ATOM     22  C   UNL     1      -9.361  13.880  66.760  0.00  0.00    +0.074 A 
ATOM     23  C   UNL     1     -10.177  13.978  65.647  0.00  0.00    +0.020 A 
ATOM     24  C   UNL     1     -10.573  12.883  64.906  0.00  0.00    +0.070 A 
ATOM     25  C   UNL     1      -9.858  11.704  65.072  0.00  0.00    -0.002 A 
ATOM     26  C   UNL     1      -8.848  11.623  66.023  0.00  0.00    -0.002 A 
ATOM     27  C   UNL     1      -8.576  12.735  66.813  0.00  0.00    +0.016 A 
BRANCH  24  28
ATOM     28  C   UNL     1     -11.799  12.887  64.049  0.00  0.00    +0.418 C 
ATOM     29  F   UNL     1     -11.525  12.524  62.751  0.00  0.00    -0.166 F 
ATOM     30  F   UNL     1     -12.821  12.155  64.603  0.00  0.00    -0.166 F 
ATOM     31  F   UNL     1     -12.232  14.210  64.011  0.00  0.00    -0.166 F 
ENDBRANCH  24  28
BRANCH  25  32
ATOM     32  C   UNL     1     -10.185  10.569  64.164  0.00  0.00    +0.099 C 
BRANCH  32  33
ATOM     33  N   UNL     1      -8.938  10.213  63.496  0.00  0.00    -0.267 NA
ATOM     34  C   UNL     1      -8.627   8.822  63.821  0.00  0.00    +0.090 C 
ATOM     35  C   UNL     1      -7.492   8.422  62.897  0.00  0.00    +0.090 C 
ATOM     36  N   UNL     1      -8.065   8.231  61.587  0.00  0.00    -0.269 NA
ATOM     37  C   UNL     1      -6.995   8.396  60.612  0.00  0.00    +0.090 C 
ATOM     38  C   UNL     1      -9.156   9.128  61.302  0.00  0.00    +0.090 C 
ATOM     39  C   UNL     1      -9.093  10.416  62.075  0.00  0.00    +0.090 C 
ENDBRANCH  32  33
ENDBRANCH  25  32
ENDBRANCH   2  22
TORSDOF 7
ENDMDL
MODEL 2
REMARK VINA RESULT:      -8.5      5.129      6.733
REMARK  Name = 
REMARK  7 active torsions:
REMARK  status: ('A' for Active; 'I' for Inactive)
REMARK    1  A    between atoms: C_5  and  C_6
REMARK    2  A    between atoms: N_8  and  C_9
REMARK    3  A    between atoms: C_12  and  C_13
REMARK    4  A    between atoms: C_13  and  N_14
REMARK    5  A    between atoms: C_21  and  C_22
REMARK    6  A    between atoms: C_28  and  C_29
REMARK    7  A    between atoms: C_30  and  C_31
REMARK                            x       y       z     vdW  Elec       q    Type
REMARK                         _______ _______ _______ _____ _____    ______ ____
ROOT
ATOM      1  C   UNL     1     -10.545  15.344  68.181  0.00  0.00    +0.269 C 
ATOM      2  N   UNL     1      -9.985  16.586  67.809  0.00  0.00    -0.175 NA
ATOM      3  O   UNL     1      -9.944  14.320  67.733  0.00  0.00    -0.268 OA
ENDROOT
BRANCH   1   8
ATOM      4  C   UNL     1     -13.235  14.685  73.129  0.00  0.00    +0.032 C 
ATOM      5  C   UNL     1     -12.462  14.787  71.861  0.00  0.00    -0.014 A 
ATOM      6  C   UNL     1     -12.339  13.723  70.976  0.00  0.00    +0.038 A 
ATOM      7  C   UNL     1     -12.044  13.982  69.642  0.00  0.00    +0.013 A 
ATOM      8  C   UNL     1     -11.523  15.192  69.267  0.00  0.00    +0.056 A 
ATOM      9  C   UNL     1     -11.474  16.178  70.245  0.00  0.00    +0.004 A 
ATOM     10  C   UNL     1     -11.806  15.962  71.555  0.00  0.00    -0.004 A 
BRANCH   6  11
ATOM     11  C   UNL     1     -12.834  12.434  71.403  0.00  0.00    -0.059 C 
ATOM     12  C   UNL     1     -13.070  11.257  71.588  0.00  0.00    -0.039 C 
BRANCH  12  13
ATOM     13  C   UNL     1     -12.970   9.823  71.667  0.00  0.00    +0.145 A 
ATOM     14  N   UNL     1     -11.775   9.193  71.673  0.00  0.00    -0.203 N 
ATOM     15  C   UNL     1     -12.009   7.922  72.019  0.00  0.00    +0.165 A 
ATOM     16  C   UNL     1     -10.900   7.098  72.161  0.00  0.00    +0.040 A 
ATOM     17  C   UNL     1      -9.642   7.679  72.120  0.00  0.00    +0.026 A 
ATOM     18  C   UNL     1      -9.469   8.858  71.406  0.00  0.00    +0.121 A 
ATOM     19  N   UNL     1     -13.321   7.677  71.785  0.00  0.00    -0.223 NA
ATOM     20  N   UNL     1     -10.600   9.570  71.181  0.00  0.00    -0.162 NA
ATOM     21  C   UNL     1     -13.949   8.873  71.771  0.00  0.00    +0.128 A 
ENDBRANCH  12  13
ENDBRANCH   6  11
ENDBRANCH   1   8
BRANCH   2  22
ATOM     22  C   UNL     1      -8.583  16.799  67.626  0.00  0.00    +0.074 A 
ATOM     23  C   UNL     1      -7.836  17.633  68.439  0.00  0.00    +0.020 A 
ATOM     24  C   UNL     1      -6.949  18.569  67.945  0.00  0.00    +0.070 A 
ATOM     25  C   UNL     1      -6.540  18.429  66.624  0.00  0.00    -0.002 A 
ATOM     26  C   UNL     1      -7.089  17.437  65.820  0.00  0.00    -0.002 A 
ATOM     27  C   UNL     1      -8.061  16.598  66.354  0.00  0.00    +0.016 A 
BRANCH  24  28
ATOM     28  C   UNL     1      -6.527  19.773  68.724  0.00  0.00    +0.418 C 
ATOM     29  F   UNL     1      -5.216  19.692  69.131  0.00  0.00    -0.166 F 
ATOM     30  F   UNL     1      -6.808  20.943  68.063  0.00  0.00    -0.166 F 
ATOM     31  F   UNL     1      -7.304  19.770  69.879  0.00  0.00    -0.166 F 
ENDBRANCH  24  28
BRANCH  25  32
ATOM     32  C   UNL     1      -5.471  19.345  66.137  0.00  0.00    +0.099 C 
BRANCH  32  33
ATOM     33  N   UNL     1      -5.648  19.439  64.692  0.00  0.00    -0.267 NA
ATOM     34  C   UNL     1      -6.201  20.756  64.384  0.00  0.00    +0.090 C 
ATOM     35  C   UNL     1      -6.108  20.907  62.878  0.00  0.00    +0.090 C 
ATOM     36  N   UNL     1      -4.721  21.160  62.567  0.00  0.00    -0.269 NA
ATOM     37  C   UNL     1      -4.505  20.765  61.181  0.00  0.00    +0.090 C 
ATOM     38  C   UNL     1      -3.804  20.475  63.440  0.00  0.00    +0.090 C 
ATOM     39  C   UNL     1      -4.374  19.223  64.049  0.00  0.00    +0.090 C 
ENDBRANCH  32  33
ENDBRANCH  25  32
ENDBRANCH   2  22
TORSDOF 7
ENDMDL
MODEL 3
REMARK VINA RESULT:      -8.5      5.281      9.867
REMARK  Name = 
REMARK  7 active torsions:
REMARK  status: ('A' for Active; 'I' for Inactive)
REMARK    1  A    between atoms: C_5  and  C_6
REMARK    2  A    between atoms: N_8  and  C_9
REMARK    3  A    between atoms: C_12  and  C_13
REMARK    4  A    between atoms: C_13  and  N_14
REMARK    5  A    between atoms: C_21  and  C_22
REMARK    6  A    between atoms: C_28  and  C_29
REMARK    7  A    between atoms: C_30  and  C_31
REMARK                            x       y       z     vdW  Elec       q    Type
REMARK                         _______ _______ _______ _____ _____    ______ ____
ROOT
ATOM      1  C   UNL     1     -12.603  10.220  70.698  0.00  0.00    +0.269 C 
ATOM      2  N   UNL     1     -11.553   9.280  70.607  0.00  0.00    -0.175 NA
ATOM      3  O   UNL     1     -13.770   9.727  70.779  0.00  0.00    -0.268 OA
ENDROOT
BRANCH   1   8
ATOM      4  C   UNL     1     -13.068  15.791  71.643  0.00  0.00    +0.032 C 
ATOM      5  C   UNL     1     -13.003  14.342  71.311  0.00  0.00    -0.014 A 
ATOM      6  C   UNL     1     -12.394  13.869  70.155  0.00  0.00    +0.038 A 
ATOM      7  C   UNL     1     -11.939  12.556  70.117  0.00  0.00    +0.013 A 
ATOM      8  C   UNL     1     -12.392  11.636  71.026  0.00  0.00    +0.056 A 
ATOM      9  C   UNL     1     -13.176  12.123  72.066  0.00  0.00    +0.004 A 
ATOM     10  C   UNL     1     -13.596  13.422  72.152  0.00  0.00    -0.004 A 
BRANCH   6  11
ATOM     11  C   UNL     1     -11.975  14.841  69.172  0.00  0.00    -0.059 C 
ATOM     12  C   UNL     1     -11.384  15.544  68.377  0.00  0.00    -0.039 C 
BRANCH  12  13
ATOM     13  C   UNL     1     -10.432  16.057  67.427  0.00  0.00    +0.145 A 
ATOM     14  N   UNL     1     -10.127  17.372  67.363  0.00  0.00    -0.203 N 
ATOM     15  C   UNL     1      -9.043  17.481  66.586  0.00  0.00    +0.165 A 
ATOM     16  C   UNL     1      -8.506  18.753  66.439  0.00  0.00    +0.040 A 
ATOM     17  C   UNL     1      -9.002  19.771  67.238  0.00  0.00    +0.026 A 
ATOM     18  C   UNL     1     -10.308  19.685  67.703  0.00  0.00    +0.121 A 
ATOM     19  N   UNL     1      -8.966  16.351  65.842  0.00  0.00    -0.223 NA
ATOM     20  N   UNL     1     -10.838  18.438  67.711  0.00  0.00    -0.162 NA
ATOM     21  C   UNL     1      -9.677  15.403  66.490  0.00  0.00    +0.128 A 
ENDBRANCH  12  13
ENDBRANCH   6  11
ENDBRANCH   1   8
BRANCH   2  22
ATOM     22  C   UNL     1     -11.575   8.003  71.252  0.00  0.00    +0.074 A 
ATOM     23  C   UNL     1     -11.064   7.793  72.521  0.00  0.00    +0.020 A 
ATOM     24  C   UNL     1     -10.234   6.734  72.831  0.00  0.00    +0.070 A 
ATOM     25  C   UNL     1     -10.194   5.668  71.941  0.00  0.00    -0.002 A 
ATOM     26  C   UNL     1     -10.895   5.728  70.742  0.00  0.00    -0.002 A 
ATOM     27  C   UNL     1     -11.624   6.874  70.445  0.00  0.00    +0.016 A 
BRANCH  24  28
ATOM     28  C   UNL     1      -9.300   6.755  73.999  0.00  0.00    +0.418 C 
ATOM     29  F   UNL     1      -9.885   6.254  75.138  0.00  0.00    -0.166 F 
ATOM     30  F   UNL     1      -8.097   6.158  73.711  0.00  0.00    -0.166 F 
ATOM     31  F   UNL     1      -9.030   8.098  74.246  0.00  0.00    -0.166 F 
ENDBRANCH  24  28
BRANCH  25  32
ATOM     32  C   UNL     1      -9.419   4.463  72.348  0.00  0.00    +0.099 C 
BRANCH  32  33
ATOM     33  N   UNL     1     -10.379   3.367  72.410  0.00  0.00    -0.267 NA
ATOM     34  C   UNL     1      -9.707   2.144  71.977  0.00  0.00    +0.090 C 
ATOM     35  C   UNL     1     -10.649   1.006  72.319  0.00  0.00    +0.090 C 
ATOM     36  N   UNL     1     -10.577   0.816  73.748  0.00  0.00    -0.269 NA
ATOM     37  C   UNL     1     -11.811   0.163  74.166  0.00  0.00    +0.090 C 
ATOM     38  C   UNL     1     -10.376   2.040  74.479  0.00  0.00    +0.090 C 
ATOM     39  C   UNL     1     -10.882   3.260  73.760  0.00  0.00    +0.090 C 
ENDBRANCH  32  33
ENDBRANCH  25  32
ENDBRANCH   2  22
TORSDOF 7
ENDMDL
MODEL 4
REMARK VINA RESULT:      -8.5      4.194      7.712
REMARK  Name = 
REMARK  7 active torsions:
REMARK  status: ('A' for Active; 'I' for Inactive)
REMARK    1  A    between atoms: C_5  and  C_6
REMARK    2  A    between atoms: N_8  and  C_9
REMARK    3  A    between atoms: C_12  and  C_13
REMARK    4  A    between atoms: C_13  and  N_14
REMARK    5  A    between atoms: C_21  and  C_22
REMARK    6  A    between atoms: C_28  and  C_29
REMARK    7  A    between atoms: C_30  and  C_31
REMARK                            x       y       z     vdW  Elec       q    Type
REMARK                         _______ _______ _______ _____ _____    ______ ____
ROOT
ATOM      1  C   UNL     1     -10.220  14.939  66.029  0.00  0.00    +0.269 C 
ATOM      2  N   UNL     1     -10.900  15.400  67.178  0.00  0.00    -0.175 NA
ATOM      3  O   UNL     1      -9.730  15.844  65.286  0.00  0.00    -0.268 OA
ENDROOT
BRANCH   1   8
ATOM      4  C   UNL     1      -9.856   9.313  65.421  0.00  0.00    +0.032 C 
ATOM      5  C   UNL     1     -10.022  10.774  65.653  0.00  0.00    -0.014 A 
ATOM      6  C   UNL     1      -9.709  11.376  66.866  0.00  0.00    +0.038 A 
ATOM      7  C   UNL     1      -9.422  12.736  66.893  0.00  0.00    +0.013 A 
ATOM      8  C   UNL     1      -9.790  13.545  65.851  0.00  0.00    +0.056 A 
ATOM      9  C   UNL     1     -10.294  12.914  64.720  0.00  0.00    +0.004 A 
ATOM     10  C   UNL     1     -10.540  11.569  64.651  0.00  0.00    -0.004 A 
BRANCH   6  11
ATOM     11  C   UNL     1      -9.383  10.514  67.978  0.00  0.00    -0.059 C 
ATOM     12  C   UNL     1      -9.316   9.911  69.031  0.00  0.00    -0.039 C 
BRANCH  12  13
ATOM     13  C   UNL     1      -9.628   9.305  70.299  0.00  0.00    +0.145 A 
ATOM     14  N   UNL     1     -10.843   9.444  70.874  0.00  0.00    -0.203 N 
ATOM     15  C   UNL     1     -10.898   8.564  71.880  0.00  0.00    +0.165 A 
ATOM     16  C   UNL     1     -12.099   8.481  72.573  0.00  0.00    +0.040 A 
ATOM     17  C   UNL     1     -13.195   9.163  72.069  0.00  0.00    +0.026 A 
ATOM     18  C   UNL     1     -12.984  10.301  71.301  0.00  0.00    +0.121 A 
ATOM     19  N   UNL     1      -9.622   8.232  72.195  0.00  0.00    -0.223 NA
ATOM     20  N   UNL     1     -11.753  10.403  70.745  0.00  0.00    -0.162 NA
ATOM     21  C   UNL     1      -8.863   8.514  71.113  0.00  0.00    +0.128 A 
ENDBRANCH  12  13
ENDBRANCH   6  11
ENDBRANCH   1   8
BRANCH   2  22
ATOM     22  C   UNL     1     -10.522  16.573  67.904  0.00  0.00    +0.074 A 
ATOM     23  C   UNL     1     -10.731  17.855  67.425  0.00  0.00    +0.020 A 
ATOM     24  C   UNL     1      -9.759  18.834  67.448  0.00  0.00    +0.070 A 
ATOM     25  C   UNL     1      -8.667  18.634  68.284  0.00  0.00    -0.002 A 
ATOM     26  C   UNL     1      -8.530  17.443  68.988  0.00  0.00    -0.002 A 
ATOM     27  C   UNL     1      -9.494  16.454  68.831  0.00  0.00    +0.016 A 
BRANCH  24  28
ATOM     28  C   UNL     1      -9.776  20.012  66.527  0.00  0.00    +0.418 C 
ATOM     29  F   UNL     1      -9.966  21.195  67.203  0.00  0.00    -0.166 F 
ATOM     30  F   UNL     1      -8.680  20.041  65.701  0.00  0.00    -0.166 F 
ATOM     31  F   UNL     1     -10.888  19.838  65.708  0.00  0.00    -0.166 F 
ENDBRANCH  24  28
BRANCH  25  32
ATOM     32  C   UNL     1      -7.696  19.755  68.424  0.00  0.00    +0.099 C 
BRANCH  32  33
ATOM     33  N   UNL     1      -6.461  19.159  68.922  0.00  0.00    -0.267 NA
ATOM     34  C   UNL     1      -5.493  19.132  67.827  0.00  0.00    +0.090 C 
ATOM     35  C   UNL     1      -4.162  18.768  68.456  0.00  0.00    +0.090 C 
ATOM     36  N   UNL     1      -3.691  19.941  69.151  0.00  0.00    -0.269 NA
ATOM     37  C   UNL     1      -2.760  19.496  70.180  0.00  0.00    +0.090 C 
ATOM     38  C   UNL     1      -4.750  20.728  69.729  0.00  0.00    +0.090 C 
ATOM     39  C   UNL     1      -5.987  19.932  70.045  0.00  0.00    +0.090 C 
ENDBRANCH  32  33
ENDBRANCH  25  32
ENDBRANCH   2  22
TORSDOF 7
ENDMDL
MODEL 5
REMARK VINA RESULT:      -8.2      3.104      7.638
REMARK  Name = 
REMARK  7 active torsions:
REMARK  status: ('A' for Active; 'I' for Inactive)
REMARK    1  A    between atoms: C_5  and  C_6
REMARK    2  A    between atoms: N_8  and  C_9
REMARK    3  A    between atoms: C_12  and  C_13
REMARK    4  A    between atoms: C_13  and  N_14
REMARK    5  A    between atoms: C_21  and  C_22
REMARK    6  A    between atoms: C_28  and  C_29
REMARK    7  A    between atoms: C_30  and  C_31
REMARK                            x       y       z     vdW  Elec       q    Type
REMARK                         _______ _______ _______ _____ _____    ______ ____
ROOT
ATOM      1  C   UNL     1     -12.288   9.330  71.694  0.00  0.00    +0.269 C 
ATOM      2  N   UNL     1     -11.525  10.307  71.018  0.00  0.00    -0.175 NA
ATOM      3  O   UNL     1     -13.455   9.691  72.037  0.00  0.00    -0.268 OA
ENDROOT
BRANCH   1   8
ATOM      4  C   UNL     1      -9.705   4.286  71.885  0.00  0.00    +0.032 C 
ATOM      5  C   UNL     1     -10.307   5.642  71.774  0.00  0.00    -0.014 A 
ATOM      6  C   UNL     1     -10.758   6.161  70.566  0.00  0.00    +0.038 A 
ATOM      7  C   UNL     1     -11.711   7.172  70.576  0.00  0.00    +0.013 A 
ATOM      8  C   UNL     1     -11.938   7.903  71.713  0.00  0.00    +0.056 A 
ATOM      9  C   UNL     1     -11.302   7.468  72.870  0.00  0.00    +0.004 A 
ATOM     10  C   UNL     1     -10.396   6.443  72.895  0.00  0.00    -0.004 A 
BRANCH   6  11
ATOM     11  C   UNL     1     -10.460   5.416  69.364  0.00  0.00    -0.059 C 
ATOM     12  C   UNL     1     -10.193   5.033  68.243  0.00  0.00    -0.039 C 
BRANCH  12  13
ATOM     13  C   UNL     1      -9.716   4.953  66.887  0.00  0.00    +0.145 A 
ATOM     14  N   UNL     1      -9.234   6.035  66.236  0.00  0.00    -0.203 N 
ATOM     15  C   UNL     1      -8.640   5.587  65.125  0.00  0.00    +0.165 A 
ATOM     16  C   UNL     1      -8.004   6.532  64.331  0.00  0.00    +0.040 A 
ATOM     17  C   UNL     1      -7.868   7.819  64.827  0.00  0.00    +0.026 A 
ATOM     18  C   UNL     1      -8.796   8.287  65.748  0.00  0.00    +0.121 A 
ATOM     19  N   UNL     1      -9.134   4.350  64.876  0.00  0.00    -0.223 NA
ATOM     20  N   UNL     1      -9.486   7.328  66.412  0.00  0.00    -0.162 NA
ATOM     21  C   UNL     1      -9.625   3.879  66.044  0.00  0.00    +0.128 A 
ENDBRANCH  12  13
ENDBRANCH   6  11
ENDBRANCH   1   8
BRANCH   2  22
ATOM     22  C   UNL     1     -12.090  11.279  70.133  0.00  0.00    +0.074 A 
ATOM     23  C   UNL     1     -12.040  11.162  68.755  0.00  0.00    +0.020 A 
ATOM     24  C   UNL     1     -11.667  12.200  67.925  0.00  0.00    +0.070 A 
ATOM     25  C   UNL     1     -11.681  13.483  68.457  0.00  0.00    -0.002 A 
ATOM     26  C   UNL     1     -11.968  13.683  69.802  0.00  0.00    -0.002 A 
ATOM     27  C   UNL     1     -12.226  12.578  70.607  0.00  0.00    +0.016 A 
BRANCH  24  28
ATOM     28  C   UNL     1     -11.136  11.980  66.545  0.00  0.00    +0.418 C 
ATOM     29  F   UNL     1     -12.014  12.408  65.577  0.00  0.00    -0.166 F 
ATOM     30  F   UNL     1      -9.874  12.499  66.386  0.00  0.00    -0.166 F 
ATOM     31  F   UNL     1     -11.020  10.600  66.397  0.00  0.00    -0.166 F 
ENDBRANCH  24  28
BRANCH  25  32
ATOM     32  C   UNL     1     -11.427  14.616  67.523  0.00  0.00    +0.099 C 
BRANCH  32  33
ATOM     33  N   UNL     1     -10.446  15.471  68.183  0.00  0.00    -0.267 NA
ATOM     34  C   UNL     1      -9.248  15.521  67.347  0.00  0.00    +0.090 C 
ATOM     35  C   UNL     1      -8.381  16.623  67.927  0.00  0.00    +0.090 C 
ATOM     36  N   UNL     1      -8.984  17.877  67.543  0.00  0.00    -0.269 NA
ATOM     37  C   UNL     1      -8.539  18.885  68.496  0.00  0.00    +0.090 C 
ATOM     38  C   UNL     1     -10.422  17.828  67.488  0.00  0.00    +0.090 C 
ATOM     39  C   UNL     1     -11.024  16.779  68.382  0.00  0.00    +0.090 C 
ENDBRANCH  32  33
ENDBRANCH  25  32
ENDBRANCH   2  22
TORSDOF 7
ENDMDL
MODEL 6
REMARK VINA RESULT:      -8.2      4.406      9.726
REMARK  Name = 
REMARK  7 active torsions:
REMARK  status: ('A' for Active; 'I' for Inactive)
REMARK    1  A    between atoms: C_5  and  C_6
REMARK    2  A    between atoms: N_8  and  C_9
REMARK    3  A    between atoms: C_12  and  C_13
REMARK    4  A    between atoms: C_13  and  N_14
REMARK    5  A    between atoms: C_21  and  C_22
REMARK    6  A    between atoms: C_28  and  C_29
REMARK    7  A    between atoms: C_30  and  C_31
REMARK                            x       y       z     vdW  Elec       q    Type
REMARK                         _______ _______ _______ _____ _____    ______ ____
ROOT
ATOM      1  C   UNL     1     -10.012  11.326  67.546  0.00  0.00    +0.269 C 
ATOM      2  N   UNL     1      -9.898  11.116  68.938  0.00  0.00    -0.175 NA
ATOM      3  O   UNL     1      -9.643  10.355  66.817  0.00  0.00    -0.268 OA
ENDROOT
BRANCH   1   8
ATOM      4  C   UNL     1     -12.292  15.318  64.227  0.00  0.00    +0.032 C 
ATOM      5  C   UNL     1     -11.602  14.299  65.065  0.00  0.00    -0.014 A 
ATOM      6  C   UNL     1     -10.731  14.646  66.091  0.00  0.00    +0.038 A 
ATOM      7  C   UNL     1     -10.499  13.738  67.117  0.00  0.00    +0.013 A 
ATOM      8  C   UNL     1     -10.806  12.412  66.957  0.00  0.00    +0.056 A 
ATOM      9  C   UNL     1     -11.508  12.072  65.806  0.00  0.00    +0.004 A 
ATOM     10  C   UNL     1     -11.792  12.958  64.803  0.00  0.00    -0.004 A 
BRANCH   6  11
ATOM     11  C   UNL     1     -10.361  16.037  66.216  0.00  0.00    -0.059 C 
ATOM     12  C   UNL     1      -9.918  17.121  66.538  0.00  0.00    -0.039 C 
BRANCH  12  13
ATOM     13  C   UNL     1      -9.116  18.173  67.106  0.00  0.00    +0.145 A 
ATOM     14  N   UNL     1      -8.037  18.672  66.464  0.00  0.00    -0.203 N 
ATOM     15  C   UNL     1      -7.682  19.787  67.111  0.00  0.00    +0.165 A 
ATOM     16  C   UNL     1      -6.626  20.512  66.573  0.00  0.00    +0.040 A 
ATOM     17  C   UNL     1      -6.144  20.142  65.328  0.00  0.00    +0.026 A 
ATOM     18  C   UNL     1      -6.279  18.821  64.919  0.00  0.00    +0.121 A 
ATOM     19  N   UNL     1      -8.226  19.724  68.350  0.00  0.00    -0.223 NA
ATOM     20  N   UNL     1      -7.240  18.113  65.560  0.00  0.00    -0.162 NA
ATOM     21  C   UNL     1      -9.260  18.857  68.283  0.00  0.00    +0.128 A 
ENDBRANCH  12  13
ENDBRANCH   6  11
ENDBRANCH   1   8
BRANCH   2  22
ATOM     22  C   UNL     1     -10.087   9.844  69.565  0.00  0.00    +0.074 A 
ATOM     23  C   UNL     1     -11.337   9.327  69.856  0.00  0.00    +0.020 A 
ATOM     24  C   UNL     1     -11.655   8.771  71.079  0.00  0.00    +0.070 A 
ATOM     25  C   UNL     1     -10.604   8.408  71.911  0.00  0.00    -0.002 A 
ATOM     26  C   UNL     1      -9.292   8.691  71.550  0.00  0.00    -0.002 A 
ATOM     27  C   UNL     1      -9.051   9.353  70.351  0.00  0.00    +0.016 A 
BRANCH  24  28
ATOM     28  C   UNL     1     -13.060   8.672  71.580  0.00  0.00    +0.418 C 
ATOM     29  F   UNL     1     -13.563   7.397  71.462  0.00  0.00    -0.166 F 
ATOM     30  F   UNL     1     -13.196   9.183  72.848  0.00  0.00    -0.166 F 
ATOM     31  F   UNL     1     -13.822   9.480  70.741  0.00  0.00    -0.166 F 
ENDBRANCH  24  28
BRANCH  25  32
ATOM     32  C   UNL     1     -10.941   7.672  73.162  0.00  0.00    +0.099 C 
BRANCH  32  33
ATOM     33  N   UNL     1     -10.100   6.480  73.168  0.00  0.00    -0.267 NA
ATOM     34  C   UNL     1      -9.791   6.146  74.557  0.00  0.00    +0.090 C 
ATOM     35  C   UNL     1      -9.159   4.767  74.524  0.00  0.00    +0.090 C 
ATOM     36  N   UNL     1     -10.225   3.822  74.290  0.00  0.00    -0.269 NA
ATOM     37  C   UNL     1      -9.628   2.624  73.715  0.00  0.00    +0.090 C 
ATOM     38  C   UNL     1     -11.265   4.333  73.435  0.00  0.00    +0.090 C 
ATOM     39  C   UNL     1     -10.798   5.410  72.495  0.00  0.00    +0.090 C 
ENDBRANCH  32  33
ENDBRANCH  25  32
ENDBRANCH   2  22
TORSDOF 7
ENDMDL
MODEL 7
REMARK VINA RESULT:      -8.0      5.286      9.006
REMARK  Name = 
REMARK  7 active torsions:
REMARK  status: ('A' for Active; 'I' for Inactive)
REMARK    1  A    between atoms: C_5  and  C_6
REMARK    2  A    between atoms: N_8  and  C_9
REMARK    3  A    between atoms: C_12  and  C_13
REMARK    4  A    between atoms: C_13  and  N_14
REMARK    5  A    between atoms: C_21  and  C_22
REMARK    6  A    between atoms: C_28  and  C_29
REMARK    7  A    between atoms: C_30  and  C_31
REMARK                            x       y       z     vdW  Elec       q    Type
REMARK                         _______ _______ _______ _____ _____    ______ ____
ROOT
ATOM      1  C   UNL     1     -12.649  10.274  70.715  0.00  0.00    +0.269 C 
ATOM      2  N   UNL     1     -11.599   9.347  70.530  0.00  0.00    -0.175 NA
ATOM      3  O   UNL     1     -13.803   9.767  70.867  0.00  0.00    -0.268 OA
ENDROOT
BRANCH   1   8
ATOM      4  C   UNL     1     -13.085  15.831  71.752  0.00  0.00    +0.032 C 
ATOM      5  C   UNL     1     -13.030  14.387  71.398  0.00  0.00    -0.014 A 
ATOM      6  C   UNL     1     -12.448  13.930  70.221  0.00  0.00    +0.038 A 
ATOM      7  C   UNL     1     -11.996  12.618  70.153  0.00  0.00    +0.013 A 
ATOM      8  C   UNL     1     -12.429  11.685  71.059  0.00  0.00    +0.056 A 
ATOM      9  C   UNL     1     -13.188  12.157  72.124  0.00  0.00    +0.004 A 
ATOM     10  C   UNL     1     -13.604  13.456  72.239  0.00  0.00    -0.004 A 
BRANCH   6  11
ATOM     11  C   UNL     1     -12.051  14.916  69.242  0.00  0.00    -0.059 C 
ATOM     12  C   UNL     1     -11.482  15.619  68.431  0.00  0.00    -0.039 C 
BRANCH  12  13
ATOM     13  C   UNL     1     -10.574  16.120  67.432  0.00  0.00    +0.145 A 
ATOM     14  N   UNL     1     -10.192  17.416  67.404  0.00  0.00    -0.203 N 
ATOM     15  C   UNL     1      -9.166  17.498  66.550  0.00  0.00    +0.165 A 
ATOM     16  C   UNL     1      -8.561  18.742  66.418  0.00  0.00    +0.040 A 
ATOM     17  C   UNL     1      -8.930  19.747  67.298  0.00  0.00    +0.026 A 
ATOM     18  C   UNL     1     -10.200  19.716  67.860  0.00  0.00    +0.121 A 
ATOM     19  N   UNL     1      -9.217  16.404  65.752  0.00  0.00    -0.223 NA
ATOM     20  N   UNL     1     -10.806  18.504  67.854  0.00  0.00    -0.162 NA
ATOM     21  C   UNL     1      -9.936  15.469  66.412  0.00  0.00    +0.128 A 
ENDBRANCH  12  13
ENDBRANCH   6  11
ENDBRANCH   1   8
BRANCH   2  22
ATOM     22  C   UNL     1     -11.564   8.057  71.147  0.00  0.00    +0.074 A 
ATOM     23  C   UNL     1     -10.926   7.816  72.351  0.00  0.00    +0.020 A 
ATOM     24  C   UNL     1     -10.076   6.746  72.551  0.00  0.00    +0.070 A 
ATOM     25  C   UNL     1     -10.137   5.700  71.639  0.00  0.00    -0.002 A 
ATOM     26  C   UNL     1     -10.959   5.789  70.522  0.00  0.00    -0.002 A 
ATOM     27  C   UNL     1     -11.705   6.946  70.326  0.00  0.00    +0.016 A 
BRANCH  24  28
ATOM     28  C   UNL     1      -9.026   6.737  73.616  0.00  0.00    +0.418 C 
ATOM     29  F   UNL     1      -9.313   5.840  74.618  0.00  0.00    -0.166 F 
ATOM     30  F   UNL     1      -7.765   6.571  73.098  0.00  0.00    -0.166 F 
ATOM     31  F   UNL     1      -9.057   8.004  74.192  0.00  0.00    -0.166 F 
ENDBRANCH  24  28
BRANCH  25  32
ATOM     32  C   UNL     1      -9.333   4.482  71.938  0.00  0.00    +0.099 C 
BRANCH  32  33
ATOM     33  N   UNL     1      -8.809   4.020  70.657  0.00  0.00    -0.267 NA
ATOM     34  C   UNL     1      -7.396   4.386  70.583  0.00  0.00    +0.090 C 
ATOM     35  C   UNL     1      -6.838   3.654  69.378  0.00  0.00    +0.090 C 
ATOM     36  N   UNL     1      -6.699   2.268  69.756  0.00  0.00    -0.269 NA
ATOM     37  C   UNL     1      -6.709   1.477  68.533  0.00  0.00    +0.090 C 
ATOM     38  C   UNL     1      -7.723   1.816  70.663  0.00  0.00    +0.090 C 
ATOM     39  C   UNL     1      -9.006   2.594  70.557  0.00  0.00    +0.090 C 
ENDBRANCH  32  33
ENDBRANCH  25  32
ENDBRANCH   2  22
TORSDOF 7
ENDMDL
MODEL 8
REMARK VINA RESULT:      -8.0      3.198      7.246
REMARK  Name = 
REMARK  7 active torsions:
REMARK  status: ('A' for Active; 'I' for Inactive)
REMARK    1  A    between atoms: C_5  and  C_6
REMARK    2  A    between atoms: N_8  and  C_9
REMARK    3  A    between atoms: C_12  and  C_13
REMARK    4  A    between atoms: C_13  and  N_14
REMARK    5  A    between atoms: C_21  and  C_22
REMARK    6  A    between atoms: C_28  and  C_29
REMARK    7  A    between atoms: C_30  and  C_31
REMARK                            x       y       z     vdW  Elec       q    Type
REMARK                         _______ _______ _______ _____ _____    ______ ____
ROOT
ATOM      1  C   UNL     1     -12.424  12.844  70.746  0.00  0.00    +0.269 C 
ATOM      2  N   UNL     1     -11.373  13.560  70.132  0.00  0.00    -0.175 NA
ATOM      3  O   UNL     1     -13.405  13.545  71.139  0.00  0.00    -0.268 OA
ENDROOT
BRANCH   1   8
ATOM      4  C   UNL     1     -12.171   7.217  71.403  0.00  0.00    +0.032 C 
ATOM      5  C   UNL     1     -12.137   8.697  71.248  0.00  0.00    -0.014 A 
ATOM      6  C   UNL     1     -11.421   9.324  70.236  0.00  0.00    +0.038 A 
ATOM      7  C   UNL     1     -11.786  10.605  69.840  0.00  0.00    +0.013 A 
ATOM      8  C   UNL     1     -12.571  11.385  70.648  0.00  0.00    +0.056 A 
ATOM      9  C   UNL     1     -13.110  10.771  71.772  0.00  0.00    +0.004 A 
ATOM     10  C   UNL     1     -12.805   9.493  72.157  0.00  0.00    -0.004 A 
BRANCH   6  11
ATOM     11  C   UNL     1     -10.545   8.506  69.428  0.00  0.00    -0.059 C 
ATOM     12  C   UNL     1      -9.941   7.930  68.545  0.00  0.00    -0.039 C 
BRANCH  12  13
ATOM     13  C   UNL     1      -9.351   7.569  67.283  0.00  0.00    +0.145 A 
ATOM     14  N   UNL     1      -9.363   8.410  66.225  0.00  0.00    -0.203 N 
ATOM     15  C   UNL     1      -8.522   7.903  65.317  0.00  0.00    +0.165 A 
ATOM     16  C   UNL     1      -8.321   8.651  64.164  0.00  0.00    +0.040 A 
ATOM     17  C   UNL     1      -8.846   9.933  64.115  0.00  0.00    +0.026 A 
ATOM     18  C   UNL     1      -9.971  10.229  64.874  0.00  0.00    +0.121 A 
ATOM     19  N   UNL     1      -8.359   6.590  65.609  0.00  0.00    -0.223 NA
ATOM     20  N   UNL     1     -10.200   9.395  65.918  0.00  0.00    -0.162 NA
ATOM     21  C   UNL     1      -8.689   6.431  66.909  0.00  0.00    +0.128 A 
ENDBRANCH  12  13
ENDBRANCH   6  11
ENDBRANCH   1   8
BRANCH   2  22
ATOM     22  C   UNL     1     -11.574  14.732  69.336  0.00  0.00    +0.074 A 
ATOM     23  C   UNL     1     -11.582  14.710  67.953  0.00  0.00    +0.020 A 
ATOM     24  C   UNL     1     -10.880  15.615  67.182  0.00  0.00    +0.070 A 
ATOM     25  C   UNL     1     -10.442  16.780  67.800  0.00  0.00    -0.002 A 
ATOM     26  C   UNL     1     -10.628  16.963  69.165  0.00  0.00    -0.002 A 
ATOM     27  C   UNL     1     -11.246  15.958  69.901  0.00  0.00    +0.016 A 
BRANCH  24  28
ATOM     28  C   UNL     1     -10.473  15.330  65.772  0.00  0.00    +0.418 C 
ATOM     29  F   UNL     1     -10.803  14.052  65.385  0.00  0.00    -0.166 F 
ATOM     30  F   UNL     1     -10.929  16.286  64.897  0.00  0.00    -0.166 F 
ATOM     31  F   UNL     1      -9.083  15.406  65.754  0.00  0.00    -0.166 F 
ENDBRANCH  24  28
BRANCH  25  32
ATOM     32  C   UNL     1      -9.820  17.822  66.936  0.00  0.00    +0.099 C 
BRANCH  32  33
ATOM     33  N   UNL     1      -8.813  18.481  67.761  0.00  0.00    -0.267 NA
ATOM     34  C   UNL     1      -7.540  17.789  67.569  0.00  0.00    +0.090 C 
ATOM     35  C   UNL     1      -6.486  18.665  68.218  0.00  0.00    +0.090 C 
ATOM     36  N   UNL     1      -6.274  19.789  67.338  0.00  0.00    -0.269 NA
ATOM     37  C   UNL     1      -5.729  20.876  68.139  0.00  0.00    +0.090 C 
ATOM     38  C   UNL     1      -7.467  20.211  66.651  0.00  0.00    +0.090 C 
ATOM     39  C   UNL     1      -8.736  19.873  67.384  0.00  0.00    +0.090 C 
ENDBRANCH  32  33
ENDBRANCH  25  32
ENDBRANCH   2  22
TORSDOF 7
ENDMDL
MODEL 9
REMARK VINA RESULT:      -7.9      4.131      9.230
REMARK  Name = 
REMARK  7 active torsions:
REMARK  status: ('A' for Active; 'I' for Inactive)
REMARK    1  A    between atoms: C_5  and  C_6
REMARK    2  A    between atoms: N_8  and  C_9
REMARK    3  A    between atoms: C_12  and  C_13
REMARK    4  A    between atoms: C_13  and  N_14
REMARK    5  A    between atoms: C_21  and  C_22
REMARK    6  A    between atoms: C_28  and  C_29
REMARK    7  A    between atoms: C_30  and  C_31
REMARK                            x       y       z     vdW  Elec       q    Type
REMARK                         _______ _______ _______ _____ _____    ______ ____
ROOT
ATOM      1  C   UNL     1      -9.690   8.456  67.235  0.00  0.00    +0.269 C 
ATOM      2  N   UNL     1      -9.053   8.565  68.491  0.00  0.00    -0.175 NA
ATOM      3  O   UNL     1      -9.843   7.273  66.802  0.00  0.00    -0.268 OA
ENDROOT
BRANCH   1   8
ATOM      4  C   UNL     1     -11.387  13.269  64.762  0.00  0.00    +0.032 C 
ATOM      5  C   UNL     1     -10.880  12.062  65.470  0.00  0.00    -0.014 A 
ATOM      6  C   UNL     1     -11.089  11.853  66.828  0.00  0.00    +0.038 A 
ATOM      7  C   UNL     1     -11.037  10.558  67.330  0.00  0.00    +0.013 A 
ATOM      8  C   UNL     1     -10.439   9.557  66.611  0.00  0.00    +0.056 A 
ATOM      9  C   UNL     1     -10.055   9.867  65.312  0.00  0.00    +0.004 A 
ATOM     10  C   UNL     1     -10.142  11.124  64.778  0.00  0.00    -0.004 A 
BRANCH   6  11
ATOM     11  C   UNL     1     -11.663  12.936  67.593  0.00  0.00    -0.059 C 
ATOM     12  C   UNL     1     -11.916  13.831  68.374  0.00  0.00    -0.039 C 
BRANCH  12  13
ATOM     13  C   UNL     1     -11.811  14.905  69.327  0.00  0.00    +0.145 A 
ATOM     14  N   UNL     1     -12.332  14.808  70.570  0.00  0.00    -0.203 N 
ATOM     15  C   UNL     1     -11.843  15.833  71.276  0.00  0.00    +0.165 A 
ATOM     16  C   UNL     1     -12.193  15.890  72.619  0.00  0.00    +0.040 A 
ATOM     17  C   UNL     1     -12.856  14.805  73.170  0.00  0.00    +0.026 A 
ATOM     18  C   UNL     1     -13.635  14.003  72.346  0.00  0.00    +0.121 A 
ATOM     19  N   UNL     1     -11.416  16.765  70.390  0.00  0.00    -0.223 NA
ATOM     20  N   UNL     1     -13.341  14.073  71.025  0.00  0.00    -0.162 NA
ATOM     21  C   UNL     1     -11.202  16.126  69.219  0.00  0.00    +0.128 A 
ENDBRANCH  12  13
ENDBRANCH   6  11
ENDBRANCH   1   8
BRANCH   2  22
ATOM     22  C   UNL     1      -9.201   7.603  69.539  0.00  0.00    +0.074 A 
ATOM     23  C   UNL     1     -10.433   7.158  69.983  0.00  0.00    +0.020 A 
ATOM     24  C   UNL     1     -10.765   7.072  71.321  0.00  0.00    +0.070 A 
ATOM     25  C   UNL     1      -9.725   7.100  72.242  0.00  0.00    -0.002 A 
ATOM     26  C   UNL     1      -8.417   7.306  71.819  0.00  0.00    -0.002 A 
ATOM     27  C   UNL     1      -8.170   7.495  70.464  0.00  0.00    +0.016 A 
BRANCH  24  28
ATOM     28  C   UNL     1     -12.179   7.082  71.805  0.00  0.00    +0.418 C 
ATOM     29  F   UNL     1     -12.416   8.105  72.693  0.00  0.00    -0.166 F 
ATOM     30  F   UNL     1     -13.081   7.057  70.769  0.00  0.00    -0.166 F 
ATOM     31  F   UNL     1     -12.349   5.894  72.510  0.00  0.00    -0.166 F 
ENDBRANCH  24  28
BRANCH  25  32
ATOM     32  C   UNL     1     -10.068   6.856  73.671  0.00  0.00    +0.099 C 
BRANCH  32  33
ATOM     33  N   UNL     1      -9.103   5.874  74.155  0.00  0.00    -0.267 NA
ATOM     34  C   UNL     1      -8.631   6.308  75.469  0.00  0.00    +0.090 C 
ATOM     35  C   UNL     1      -7.855   5.136  76.041  0.00  0.00    +0.090 C 
ATOM     36  N   UNL     1      -8.827   4.153  76.457  0.00  0.00    -0.269 NA
ATOM     37  C   UNL     1      -8.158   2.859  76.480  0.00  0.00    +0.090 C 
ATOM     38  C   UNL     1      -9.993   4.108  75.613  0.00  0.00    +0.090 C 
ATOM     39  C   UNL     1      -9.738   4.579  74.207  0.00  0.00    +0.090 C 
ENDBRANCH  32  33
ENDBRANCH  25  32
ENDBRANCH   2  22
TORSDOF 7
ENDMDL
