MODEL 1
REMARK VINA RESULT:      -8.6      0.000      0.000
REMARK  Name = 
REMARK  6 active torsions:
REMARK  status: ('A' for Active; 'I' for Inactive)
REMARK    1  A    between atoms: O_2  and  C_3
REMARK    2  A    between atoms: C_5  and  C_6
REMARK    3  A    between atoms: C_13  and  O_14
REMARK    4  A    between atoms: O_14  and  C_15
REMARK    5  A    between atoms: C_20  and  C_21
REMARK    6  A    between atoms: C_42  and  O_43
REMARK                            x       y       z     vdW  Elec       q    Type
REMARK                         _______ _______ _______ _____ _____    ______ ____
ROOT
ATOM      1  C   UNL     1      -9.489  10.164  67.069  0.00  0.00    +0.055 C 
ATOM      2  C   UNL     1     -10.714  11.190  67.263  0.00  0.00    +0.113 C 
ATOM      3  C   UNL     1     -11.383  11.791  65.967  0.00  0.00    +0.086 C 
ATOM      4  C   UNL     1     -10.138  12.713  65.508  0.00  0.00    +0.212 C 
ATOM      5  O   UNL     1      -9.053  12.290  66.189  0.00  0.00    -0.448 OA
ATOM      6  C   UNL     1     -11.914  12.550  67.510  0.00  0.00    +0.144 C 
ATOM      7  C   UNL     1     -11.272  11.477  68.603  0.00  0.00    +0.004 A 
ATOM      8  C   UNL     1     -12.151  11.145  69.625  0.00  0.00    +0.038 A 
ATOM      9  C   UNL     1     -11.806  10.148  70.554  0.00  0.00    +0.176 A 
ATOM     10  O   UNL     1     -12.493   9.068  71.140  0.00  0.00    -0.435 OA
ATOM     11  C   UNL     1     -11.609   8.092  71.629  0.00  0.00    +0.429 C 
ATOM     12  O   UNL     1     -10.325   8.645  71.452  0.00  0.00    -0.435 OA
ATOM     13  C   UNL     1     -10.441   9.829  70.682  0.00  0.00    +0.176 A 
ATOM     14  C   UNL     1      -9.621   9.931  69.543  0.00  0.00    +0.036 A 
ATOM     15  C   UNL     1      -9.442  12.258  67.501  0.00  0.00    +0.317 C 
ATOM     16  O   UNL     1      -8.678  12.357  68.470  0.00  0.00    -0.250 OA
ATOM     17  C   UNL     1     -10.224  10.489  68.565  0.00  0.00    -0.016 A 
ENDROOT
BRANCH   1  23
ATOM     18  C   UNL     1      -8.682   7.297  65.435  0.00  0.00    +0.180 A 
ATOM     19  C   UNL     1      -8.479   6.433  66.462  0.00  0.00    +0.263 A 
ATOM     20  O   UNL     1      -7.384   5.624  66.540  0.00  0.00    -0.280 OA
ATOM     21  C   UNL     1      -9.431   6.500  67.461  0.00  0.00    +0.180 A 
ATOM     22  C   UNL     1     -10.155   7.682  67.660  0.00  0.00    +0.036 A 
ATOM     23  C   UNL     1     -10.209   8.701  66.809  0.00  0.00    -0.012 A 
ATOM     24  C   UNL     1      -9.436   8.409  65.653  0.00  0.00    +0.036 A 
BRANCH  21  25
ATOM     25  O   UNL     1      -9.319   5.635  68.523  0.00  0.00    -0.468 OA
ATOM     26  C   UNL     1     -10.372   5.334  69.447  0.00  0.00    +0.253 C 
ENDBRANCH  21  25
BRANCH  18  28
ATOM     27  C   UNL     1      -7.889   7.204  63.494  0.00  0.00    +0.253 C 
ATOM     28  O   UNL     1      -7.988   7.082  64.254  0.00  0.00    -0.468 OA
ENDBRANCH  18  28
ENDBRANCH   1  23
BRANCH   6  29
ATOM     29  O   UNL     1     -10.897  13.553  67.414  0.00  0.00    -0.326 OA
BRANCH  29  30
ATOM     30  C   UNL     1     -11.065  15.017  67.428  0.00  0.00    +0.270 C 
ATOM     31  C   UNL     1     -10.991  15.123  69.147  0.00  0.00    +0.240 C 
ATOM     32  O   UNL     1     -12.109  16.149  69.185  0.00  0.00    -0.215 OA
ATOM     33  C   UNL     1      -9.774  16.200  69.587  0.00  0.00    +0.217 C 
ATOM     34  O   UNL     1      -8.713  15.198  69.163  0.00  0.00    -0.218 OA
ATOM     35  C   UNL     1      -9.470  17.208  68.271  0.00  0.00    +0.181 C 
ATOM     36  C   UNL     1     -10.657  16.627  67.221  0.00  0.00    +0.177 C 
ATOM     37  C   UNL     1     -10.052  17.650  66.093  0.00  0.00    +0.177 C 
ATOM     38  O   UNL     1     -10.655  18.753  66.516  0.00  0.00    -0.324 OA
ATOM     39  C   UNL     1     -10.049  19.413  67.761  0.00  0.00    +0.266 C 
ATOM     40  O   UNL     1     -10.412  18.276  68.745  0.00  0.00    -0.324 OA
ATOM     41  O   UNL     1      -9.660  15.457  67.060  0.00  0.00    -0.326 OA
BRANCH  39  42
ATOM     42  C   UNL     1      -8.488  18.962  67.494  0.00  0.00    +0.063 A 
ATOM     43  S   UNL     1      -7.433  19.281  66.252  0.00  0.00    -0.086 S 
ATOM     44  C   UNL     1      -6.067  19.892  67.096  0.00  0.00    +0.035 A 
ATOM     45  C   UNL     1      -6.731  20.245  68.269  0.00  0.00    +0.007 A 
ATOM     46  C   UNL     1      -7.698  19.328  68.583  0.00  0.00    +0.008 A 
ENDBRANCH  39  42
ENDBRANCH  29  30
ENDBRANCH   6  29
TORSDOF 6
ENDMDL
MODEL 2
REMARK VINA RESULT:      -8.4      2.806      4.866
REMARK  Name = 
REMARK  6 active torsions:
REMARK  status: ('A' for Active; 'I' for Inactive)
REMARK    1  A    between atoms: O_2  and  C_3
REMARK    2  A    between atoms: C_5  and  C_6
REMARK    3  A    between atoms: C_13  and  O_14
REMARK    4  A    between atoms: O_14  and  C_15
REMARK    5  A    between atoms: C_20  and  C_21
REMARK    6  A    between atoms: C_42  and  O_43
REMARK                            x       y       z     vdW  Elec       q    Type
REMARK                         _______ _______ _______ _____ _____    ______ ____
ROOT
ATOM      1  C   UNL     1     -10.682  13.009  68.472  0.00  0.00    +0.055 C 
ATOM      2  C   UNL     1      -9.574  13.716  67.543  0.00  0.00    +0.113 C 
ATOM      3  C   UNL     1      -8.089  13.762  68.074  0.00  0.00    +0.086 C 
ATOM      4  C   UNL     1      -8.341  14.802  69.284  0.00  0.00    +0.212 C 
ATOM      5  O   UNL     1      -9.672  14.858  69.494  0.00  0.00    -0.448 OA
ATOM      6  C   UNL     1      -8.394  14.754  66.604  0.00  0.00    +0.144 C 
ATOM      7  C   UNL     1      -9.907  14.207  66.187  0.00  0.00    +0.004 A 
ATOM      8  C   UNL     1     -10.043  13.958  64.829  0.00  0.00    +0.038 A 
ATOM      9  C   UNL     1     -11.219  13.365  64.337  0.00  0.00    +0.176 A 
ATOM     10  O   UNL     1     -11.493  12.348  63.402  0.00  0.00    -0.435 OA
ATOM     11  C   UNL     1     -12.766  11.789  63.599  0.00  0.00    +0.429 C 
ATOM     12  O   UNL     1     -13.353  12.571  64.614  0.00  0.00    -0.435 OA
ATOM     13  C   UNL     1     -12.368  13.437  65.149  0.00  0.00    +0.176 A 
ATOM     14  C   UNL     1     -12.201  13.427  66.546  0.00  0.00    +0.036 A 
ATOM     15  C   UNL     1     -10.222  15.086  68.262  0.00  0.00    +0.317 C 
ATOM     16  O   UNL     1     -11.317  15.628  68.062  0.00  0.00    -0.250 OA
ATOM     17  C   UNL     1     -10.974  13.534  66.884  0.00  0.00    -0.016 A 
ENDROOT
BRANCH   1  23
ATOM     18  C   UNL     1      -8.665  10.455  69.448  0.00  0.00    +0.180 A 
ATOM     19  C   UNL     1      -9.508   9.697  70.194  0.00  0.00    +0.263 A 
ATOM     20  O   UNL     1      -9.178   9.225  71.430  0.00  0.00    -0.280 OA
ATOM     21  C   UNL     1     -10.756   9.511  69.632  0.00  0.00    +0.180 A 
ATOM     22  C   UNL     1     -11.261  10.449  68.721  0.00  0.00    +0.036 A 
ATOM     23  C   UNL     1     -10.549  11.400  68.127  0.00  0.00    -0.012 A 
ATOM     24  C   UNL     1      -9.191  11.316  68.536  0.00  0.00    +0.036 A 
BRANCH  21  25
ATOM     25  O   UNL     1     -11.662   8.728  70.306  0.00  0.00    -0.468 OA
ATOM     26  C   UNL     1     -12.605   9.212  71.270  0.00  0.00    +0.253 C 
ENDBRANCH  21  25
BRANCH  18  28
ATOM     27  C   UNL     1      -6.600  10.726  69.711  0.00  0.00    +0.253 C 
ATOM     28  O   UNL     1      -7.313  10.423  69.756  0.00  0.00    -0.468 OA
ENDBRANCH  18  28
ENDBRANCH   1  23
BRANCH   6  29
ATOM     29  O   UNL     1      -8.682  15.912  67.396  0.00  0.00    -0.326 OA
BRANCH  29  30
ATOM     30  C   UNL     1      -8.404  17.322  67.072  0.00  0.00    +0.270 C 
ATOM     31  C   UNL     1      -8.328  17.805  68.725  0.00  0.00    +0.240 C 
ATOM     32  O   UNL     1      -9.088  19.088  68.441  0.00  0.00    -0.215 OA
ATOM     33  C   UNL     1      -6.851  18.559  69.018  0.00  0.00    +0.217 C 
ATOM     34  O   UNL     1      -6.133  17.224  68.917  0.00  0.00    -0.218 OA
ATOM     35  C   UNL     1      -6.240  19.097  67.543  0.00  0.00    +0.181 C 
ATOM     36  C   UNL     1      -7.529  18.651  66.550  0.00  0.00    +0.177 C 
ATOM     37  C   UNL     1      -6.629  19.161  65.279  0.00  0.00    +0.177 C 
ATOM     38  O   UNL     1      -6.881  20.457  65.396  0.00  0.00    -0.324 OA
ATOM     39  C   UNL     1      -6.124  21.189  66.512  0.00  0.00    +0.266 C 
ATOM     40  O   UNL     1      -6.826  20.471  67.688  0.00  0.00    -0.324 OA
ATOM     41  O   UNL     1      -6.926  17.240  66.736  0.00  0.00    -0.326 OA
BRANCH  39  42
ATOM     42  C   UNL     1      -4.766  20.259  66.484  0.00  0.00    +0.063 A 
ATOM     43  S   UNL     1      -3.633  19.976  65.303  0.00  0.00    -0.086 S 
ATOM     44  C   UNL     1      -2.167  20.338  66.125  0.00  0.00    +0.035 A 
ATOM     45  C   UNL     1      -2.724  21.118  67.137  0.00  0.00    +0.007 A 
ATOM     46  C   UNL     1      -3.930  20.613  67.542  0.00  0.00    +0.008 A 
ENDBRANCH  39  42
ENDBRANCH  29  30
ENDBRANCH   6  29
TORSDOF 6
ENDMDL
MODEL 3
REMARK VINA RESULT:      -8.1      1.514      1.799
REMARK  Name = 
REMARK  6 active torsions:
REMARK  status: ('A' for Active; 'I' for Inactive)
REMARK    1  A    between atoms: O_2  and  C_3
REMARK    2  A    between atoms: C_5  and  C_6
REMARK    3  A    between atoms: C_13  and  O_14
REMARK    4  A    between atoms: O_14  and  C_15
REMARK    5  A    between atoms: C_20  and  C_21
REMARK    6  A    between atoms: C_42  and  O_43
REMARK                            x       y       z     vdW  Elec       q    Type
REMARK                         _______ _______ _______ _____ _____    ______ ____
ROOT
ATOM      1  C   UNL     1      -9.538   8.941  67.907  0.00  0.00    +0.055 C 
ATOM      2  C   UNL     1     -10.451  10.214  67.542  0.00  0.00    +0.113 C 
ATOM      3  C   UNL     1     -10.656  10.560  66.017  0.00  0.00    +0.086 C 
ATOM      4  C   UNL     1      -9.143  11.035  65.714  0.00  0.00    +0.212 C 
ATOM      5  O   UNL     1      -8.374  10.598  66.733  0.00  0.00    -0.448 OA
ATOM      6  C   UNL     1     -11.262  11.811  67.160  0.00  0.00    +0.144 C 
ATOM      7  C   UNL     1     -11.170  10.972  68.591  0.00  0.00    +0.004 A 
ATOM      8  C   UNL     1     -12.293  11.130  69.390  0.00  0.00    +0.038 A 
ATOM      9  C   UNL     1     -12.426  10.379  70.572  0.00  0.00    +0.176 A 
ATOM     10  O   UNL     1     -13.484   9.674  71.177  0.00  0.00    -0.435 OA
ATOM     11  C   UNL     1     -13.015   8.708  72.083  0.00  0.00    +0.429 C 
ATOM     12  O   UNL     1     -11.621   8.906  72.135  0.00  0.00    -0.435 OA
ATOM     13  C   UNL     1     -11.254   9.827  71.123  0.00  0.00    +0.176 A 
ATOM     14  C   UNL     1     -10.224   9.435  70.248  0.00  0.00    +0.036 A 
ATOM     15  C   UNL     1      -9.013  11.013  67.869  0.00  0.00    +0.317 C 
ATOM     16  O   UNL     1      -8.462  11.214  68.960  0.00  0.00    -0.250 OA
ATOM     17  C   UNL     1     -10.443   9.814  69.048  0.00  0.00    -0.016 A 
ENDROOT
BRANCH   1  23
ATOM     18  C   UNL     1      -9.444   5.869  66.458  0.00  0.00    +0.180 A 
ATOM     19  C   UNL     1      -9.362   5.049  67.536  0.00  0.00    +0.263 A 
ATOM     20  O   UNL     1      -8.456   4.034  67.624  0.00  0.00    -0.280 OA
ATOM     21  C   UNL     1     -10.217   5.379  68.570  0.00  0.00    +0.180 A 
ATOM     22  C   UNL     1     -10.667   6.698  68.713  0.00  0.00    +0.036 A 
ATOM     23  C   UNL     1     -10.560   7.649  67.792  0.00  0.00    -0.012 A 
ATOM     24  C   UNL     1      -9.937   7.127  66.627  0.00  0.00    +0.036 A 
BRANCH  21  25
ATOM     25  O   UNL     1     -10.222   4.580  69.689  0.00  0.00    -0.468 OA
ATOM     26  C   UNL     1     -10.104   5.056  71.035  0.00  0.00    +0.253 C 
ENDBRANCH  21  25
BRANCH  18  28
ATOM     27  C   UNL     1      -8.380   5.526  64.681  0.00  0.00    +0.253 C 
ATOM     28  O   UNL     1      -8.884   5.437  65.265  0.00  0.00    -0.468 OA
ENDBRANCH  18  28
ENDBRANCH   1  23
BRANCH   6  29
ATOM     29  O   UNL     1     -10.013  12.510  67.120  0.00  0.00    -0.326 OA
BRANCH  29  30
ATOM     30  C   UNL     1      -9.751  13.866  66.607  0.00  0.00    +0.270 C 
ATOM     31  C   UNL     1     -11.254  14.493  67.171  0.00  0.00    +0.240 C 
ATOM     32  O   UNL     1     -11.457  15.297  65.900  0.00  0.00    -0.215 OA
ATOM     33  C   UNL     1     -10.965  15.828  68.156  0.00  0.00    +0.217 C 
ATOM     34  O   UNL     1     -10.429  14.921  69.252  0.00  0.00    -0.218 OA
ATOM     35  C   UNL     1      -9.436  16.428  67.786  0.00  0.00    +0.181 C 
ATOM     36  C   UNL     1      -9.047  15.383  66.519  0.00  0.00    +0.177 C 
ATOM     37  C   UNL     1      -7.575  16.100  66.478  0.00  0.00    +0.177 C 
ATOM     38  O   UNL     1      -7.923  17.172  65.778  0.00  0.00    -0.324 OA
ATOM     39  C   UNL     1      -8.679  18.260  66.550  0.00  0.00    +0.266 C 
ATOM     40  O   UNL     1      -9.959  17.430  66.798  0.00  0.00    -0.324 OA
ATOM     41  O   UNL     1      -8.810  14.387  67.677  0.00  0.00    -0.326 OA
BRANCH  39  42
ATOM     42  C   UNL     1      -7.977  17.998  68.016  0.00  0.00    +0.063 A 
ATOM     43  S   UNL     1      -6.426  17.593  68.453  0.00  0.00    -0.086 S 
ATOM     44  C   UNL     1      -6.054  18.812  69.607  0.00  0.00    +0.035 A 
ATOM     45  C   UNL     1      -7.021  19.732  69.205  0.00  0.00    +0.007 A 
ATOM     46  C   UNL     1      -8.181  19.102  68.842  0.00  0.00    +0.008 A 
ENDBRANCH  39  42
ENDBRANCH  29  30
ENDBRANCH   6  29
TORSDOF 6
ENDMDL
MODEL 4
REMARK VINA RESULT:      -8.0      1.476      3.939
REMARK  Name = 
REMARK  6 active torsions:
REMARK  status: ('A' for Active; 'I' for Inactive)
REMARK    1  A    between atoms: O_2  and  C_3
REMARK    2  A    between atoms: C_5  and  C_6
REMARK    3  A    between atoms: C_13  and  O_14
REMARK    4  A    between atoms: O_14  and  C_15
REMARK    5  A    between atoms: C_20  and  C_21
REMARK    6  A    between atoms: C_42  and  O_43
REMARK                            x       y       z     vdW  Elec       q    Type
REMARK                         _______ _______ _______ _____ _____    ______ ____
ROOT
ATOM      1  C   UNL     1     -10.713   9.380  67.565  0.00  0.00    +0.055 C 
ATOM      2  C   UNL     1      -9.927  10.752  67.860  0.00  0.00    +0.113 C 
ATOM      3  C   UNL     1      -9.928  11.298  69.340  0.00  0.00    +0.086 C 
ATOM      4  C   UNL     1     -11.492  11.694  69.407  0.00  0.00    +0.212 C 
ATOM      5  O   UNL     1     -12.106  11.079  68.374  0.00  0.00    -0.448 OA
ATOM      6  C   UNL     1      -9.263  12.439  68.119  0.00  0.00    +0.144 C 
ATOM      7  C   UNL     1      -9.132  11.426  66.808  0.00  0.00    +0.004 A 
ATOM      8  C   UNL     1      -7.932  11.566  66.126  0.00  0.00    +0.038 A 
ATOM      9  C   UNL     1      -7.614  10.688  65.075  0.00  0.00    +0.176 A 
ATOM     10  O   UNL     1      -6.451   9.992  64.691  0.00  0.00    -0.435 OA
ATOM     11  C   UNL     1      -6.750   8.891  63.872  0.00  0.00    +0.429 C 
ATOM     12  O   UNL     1      -8.137   8.979  63.638  0.00  0.00    -0.435 OA
ATOM     13  C   UNL     1      -8.677   9.987  64.474  0.00  0.00    +0.176 A 
ATOM     14  C   UNL     1      -9.780   9.631  65.272  0.00  0.00    +0.036 A 
ATOM     15  C   UNL     1     -11.359  11.397  67.272  0.00  0.00    +0.317 C 
ATOM     16  O   UNL     1     -11.785  11.421  66.110  0.00  0.00    -0.250 OA
ATOM     17  C   UNL     1      -9.730  10.170  66.429  0.00  0.00    -0.016 A 
ENDROOT
BRANCH   1  23
ATOM     18  C   UNL     1     -10.088   7.462  70.298  0.00  0.00    +0.180 A 
ATOM     19  C   UNL     1     -10.500   6.237  69.885  0.00  0.00    +0.263 A 
ATOM     20  O   UNL     1     -11.311   5.438  70.635  0.00  0.00    -0.280 OA
ATOM     21  C   UNL     1     -10.095   5.899  68.608  0.00  0.00    +0.180 A 
ATOM     22  C   UNL     1      -9.810   6.905  67.675  0.00  0.00    +0.036 A 
ATOM     23  C   UNL     1      -9.639   8.191  67.962  0.00  0.00    -0.012 A 
ATOM     24  C   UNL     1      -9.769   8.396  69.362  0.00  0.00    +0.036 A 
BRANCH  21  25
ATOM     25  O   UNL     1     -10.441   4.661  68.122  0.00  0.00    -0.468 OA
ATOM     26  C   UNL     1      -9.812   4.013  67.010  0.00  0.00    +0.253 C 
ENDBRANCH  21  25
BRANCH  18  28
ATOM     27  C   UNL     1     -10.164   8.260  72.238  0.00  0.00    +0.253 C 
ATOM     28  O   UNL     1     -10.155   7.750  71.653  0.00  0.00    -0.468 OA
ENDBRANCH  18  28
ENDBRANCH   1  23
BRANCH   6  29
ATOM     29  O   UNL     1     -10.546  13.044  67.926  0.00  0.00    -0.326 OA
BRANCH  29  30
ATOM     30  C   UNL     1     -10.842  14.426  67.509  0.00  0.00    +0.270 C 
ATOM     31  C   UNL     1     -11.188  14.956  69.113  0.00  0.00    +0.240 C 
ATOM     32  O   UNL     1     -12.370  15.784  68.641  0.00  0.00    -0.215 OA
ATOM     33  C   UNL     1     -10.211  16.276  69.485  0.00  0.00    +0.217 C 
ATOM     34  O   UNL     1      -8.995  15.369  69.576  0.00  0.00    -0.218 OA
ATOM     35  C   UNL     1      -9.695  16.967  68.039  0.00  0.00    +0.181 C 
ATOM     36  C   UNL     1     -10.542  15.980  66.963  0.00  0.00    +0.177 C 
ATOM     37  C   UNL     1      -9.780  16.776  65.750  0.00  0.00    +0.177 C 
ATOM     38  O   UNL     1     -10.562  17.846  65.726  0.00  0.00    -0.324 OA
ATOM     39  C   UNL     1     -10.331  18.871  66.844  0.00  0.00    +0.266 C 
ATOM     40  O   UNL     1     -10.814  17.967  68.002  0.00  0.00    -0.324 OA
ATOM     41  O   UNL     1      -9.435  14.966  67.333  0.00  0.00    -0.326 OA
BRANCH  39  42
ATOM     42  C   UNL     1      -8.717  18.605  67.035  0.00  0.00    +0.063 A 
ATOM     43  S   UNL     1      -7.425  18.808  66.012  0.00  0.00    -0.086 S 
ATOM     44  C   UNL     1      -6.368  19.772  66.964  0.00  0.00    +0.035 A 
ATOM     45  C   UNL     1      -7.328  20.261  67.848  0.00  0.00    +0.007 A 
ATOM     46  C   UNL     1      -8.253  19.300  68.152  0.00  0.00    +0.008 A 
ENDBRANCH  39  42
ENDBRANCH  29  30
ENDBRANCH   6  29
TORSDOF 6
ENDMDL
MODEL 5
REMARK VINA RESULT:      -7.8      2.210      4.350
REMARK  Name = 
REMARK  6 active torsions:
REMARK  status: ('A' for Active; 'I' for Inactive)
REMARK    1  A    between atoms: O_2  and  C_3
REMARK    2  A    between atoms: C_5  and  C_6
REMARK    3  A    between atoms: C_13  and  O_14
REMARK    4  A    between atoms: O_14  and  C_15
REMARK    5  A    between atoms: C_20  and  C_21
REMARK    6  A    between atoms: C_42  and  O_43
REMARK                            x       y       z     vdW  Elec       q    Type
REMARK                         _______ _______ _______ _____ _____    ______ ____
ROOT
ATOM      1  C   UNL     1     -10.085  13.262  68.575  0.00  0.00    +0.055 C 
ATOM      2  C   UNL     1     -10.609  14.632  67.913  0.00  0.00    +0.113 C 
ATOM      3  C   UNL     1     -10.619  14.732  66.339  0.00  0.00    +0.086 C 
ATOM      4  C   UNL     1      -9.017  14.757  66.130  0.00  0.00    +0.212 C 
ATOM      5  O   UNL     1      -8.456  14.338  67.283  0.00  0.00    -0.448 OA
ATOM      6  C   UNL     1     -10.949  16.281  67.193  0.00  0.00    +0.144 C 
ATOM      7  C   UNL     1     -11.171  15.722  68.742  0.00  0.00    +0.004 A 
ATOM      8  C   UNL     1     -12.263  16.294  69.379  0.00  0.00    +0.038 A 
ATOM      9  C   UNL     1     -12.662  15.829  70.644  0.00  0.00    +0.176 A 
ATOM     10  O   UNL     1     -13.904  15.527  71.236  0.00  0.00    -0.435 OA
ATOM     11  C   UNL     1     -13.762  14.660  72.331  0.00  0.00    +0.429 C 
ATOM     12  O   UNL     1     -12.371  14.516  72.502  0.00  0.00    -0.435 OA
ATOM     13  C   UNL     1     -11.712  15.116  71.401  0.00  0.00    +0.176 A 
ATOM     14  C   UNL     1     -10.767  14.330  70.717  0.00  0.00    +0.036 A 
ATOM     15  C   UNL     1      -9.036  15.099  68.262  0.00  0.00    +0.317 C 
ATOM     16  O   UNL     1      -8.523  15.355  69.359  0.00  0.00    -0.250 OA
ATOM     17  C   UNL     1     -10.802  14.525  69.455  0.00  0.00    -0.016 A 
ENDROOT
BRANCH   1  23
ATOM     18  C   UNL     1     -10.702  10.050  67.658  0.00  0.00    +0.180 A 
ATOM     19  C   UNL     1     -10.905   9.447  68.856  0.00  0.00    +0.263 A 
ATOM     20  O   UNL     1     -10.303   8.274  69.204  0.00  0.00    -0.280 OA
ATOM     21  C   UNL     1     -11.709  10.160  69.725  0.00  0.00    +0.180 A 
ATOM     22  C   UNL     1     -11.808  11.552  69.604  0.00  0.00    +0.036 A 
ATOM     23  C   UNL     1     -11.398  12.262  68.559  0.00  0.00    -0.012 A 
ATOM     24  C   UNL     1     -10.859  11.399  67.567  0.00  0.00    +0.036 A 
BRANCH  21  25
ATOM     25  O   UNL     1     -11.994   9.605  70.950  0.00  0.00    -0.468 OA
ATOM     26  C   UNL     1     -13.146   9.917  71.741  0.00  0.00    +0.253 C 
ENDBRANCH  21  25
BRANCH  18  28
ATOM     27  C   UNL     1      -9.933   9.216  65.891  0.00  0.00    +0.253 C 
ATOM     28  O   UNL     1     -10.198   9.283  66.618  0.00  0.00    -0.468 OA
ENDBRANCH  18  28
ENDBRANCH   1  23
BRANCH   6  29
ATOM     29  O   UNL     1      -9.561  16.632  67.177  0.00  0.00    -0.326 OA
BRANCH  29  30
ATOM     30  C   UNL     1      -8.949  17.879  66.686  0.00  0.00    +0.270 C 
ATOM     31  C   UNL     1      -9.232  18.732  68.157  0.00  0.00    +0.240 C 
ATOM     32  O   UNL     1      -9.635  19.991  67.412  0.00  0.00    -0.215 OA
ATOM     33  C   UNL     1      -7.775  19.349  68.732  0.00  0.00    +0.217 C 
ATOM     34  O   UNL     1      -7.317  17.951  69.116  0.00  0.00    -0.218 OA
ATOM     35  C   UNL     1      -6.700  19.438  67.437  0.00  0.00    +0.181 C 
ATOM     36  C   UNL     1      -7.735  18.927  66.206  0.00  0.00    +0.177 C 
ATOM     37  C   UNL     1      -6.447  19.003  65.195  0.00  0.00    +0.177 C 
ATOM     38  O   UNL     1      -6.475  20.311  64.976  0.00  0.00    -0.324 OA
ATOM     39  C   UNL     1      -5.924  21.192  66.104  0.00  0.00    +0.266 C 
ATOM     40  O   UNL     1      -7.037  20.868  67.127  0.00  0.00    -0.324 OA
ATOM     41  O   UNL     1      -7.478  17.540  66.837  0.00  0.00    -0.326 OA
BRANCH  39  42
ATOM     42  C   UNL     1      -4.806  20.124  66.671  0.00  0.00    +0.063 A 
ATOM     43  S   UNL     1      -3.438  19.476  65.989  0.00  0.00    -0.086 S 
ATOM     44  C   UNL     1      -2.249  19.825  67.180  0.00  0.00    +0.035 A 
ATOM     45  C   UNL     1      -2.939  20.855  67.817  0.00  0.00    +0.007 A 
ATOM     46  C   UNL     1      -4.280  20.588  67.876  0.00  0.00    +0.008 A 
ENDBRANCH  39  42
ENDBRANCH  29  30
ENDBRANCH   6  29
TORSDOF 6
ENDMDL
MODEL 6
REMARK VINA RESULT:      -7.8      2.669      6.382
REMARK  Name = 
REMARK  6 active torsions:
REMARK  status: ('A' for Active; 'I' for Inactive)
REMARK    1  A    between atoms: O_2  and  C_3
REMARK    2  A    between atoms: C_5  and  C_6
REMARK    3  A    between atoms: C_13  and  O_14
REMARK    4  A    between atoms: O_14  and  C_15
REMARK    5  A    between atoms: C_20  and  C_21
REMARK    6  A    between atoms: C_42  and  O_43
REMARK                            x       y       z     vdW  Elec       q    Type
REMARK                         _______ _______ _______ _____ _____    ______ ____
ROOT
ATOM      1  C   UNL     1     -11.321  14.691  68.964  0.00  0.00    +0.055 C 
ATOM      2  C   UNL     1      -9.826  15.214  68.684  0.00  0.00    +0.113 C 
ATOM      3  C   UNL     1      -9.301  16.435  69.535  0.00  0.00    +0.086 C 
ATOM      4  C   UNL     1     -10.263  17.560  68.886  0.00  0.00    +0.212 C 
ATOM      5  O   UNL     1     -11.250  16.913  68.231  0.00  0.00    -0.448 OA
ATOM      6  C   UNL     1      -8.236  15.960  68.165  0.00  0.00    +0.144 C 
ATOM      7  C   UNL     1      -8.927  14.509  67.743  0.00  0.00    +0.004 A 
ATOM      8  C   UNL     1      -7.996  13.508  67.507  0.00  0.00    +0.038 A 
ATOM      9  C   UNL     1      -8.425  12.190  67.271  0.00  0.00    +0.176 A 
ATOM     10  O   UNL     1      -8.001  10.922  67.713  0.00  0.00    -0.435 OA
ATOM     11  C   UNL     1      -9.017   9.960  67.588  0.00  0.00    +0.429 C 
ATOM     12  O   UNL     1     -10.069  10.628  66.930  0.00  0.00    -0.435 OA
ATOM     13  C   UNL     1      -9.759  12.009  66.859  0.00  0.00    +0.176 A 
ATOM     14  C   UNL     1     -10.733  12.906  67.333  0.00  0.00    +0.036 A 
ATOM     15  C   UNL     1     -10.614  16.003  67.431  0.00  0.00    +0.317 C 
ATOM     16  O   UNL     1     -11.078  15.534  66.383  0.00  0.00    -0.250 OA
ATOM     17  C   UNL     1     -10.214  13.896  67.952  0.00  0.00    -0.016 A 
ENDROOT
BRANCH   1  23
ATOM     18  C   UNL     1     -12.639  14.499  72.089  0.00  0.00    +0.180 A 
ATOM     19  C   UNL     1     -13.449  13.415  71.990  0.00  0.00    +0.263 A 
ATOM     20  O   UNL     1     -14.740  13.415  72.430  0.00  0.00    -0.280 OA
ATOM     21  C   UNL     1     -12.884  12.339  71.333  0.00  0.00    +0.180 A 
ATOM     22  C   UNL     1     -11.858  12.547  70.402  0.00  0.00    +0.036 A 
ATOM     23  C   UNL     1     -11.172  13.675  70.257  0.00  0.00    -0.012 A 
ATOM     24  C   UNL     1     -11.619  14.640  71.200  0.00  0.00    +0.036 A 
BRANCH  21  25
ATOM     25  O   UNL     1     -13.625  11.187  71.216  0.00  0.00    -0.468 OA
ATOM     26  C   UNL     1     -13.255   9.917  71.765  0.00  0.00    +0.253 C 
ENDBRANCH  21  25
BRANCH  18  28
ATOM     27  C   UNL     1     -12.801  15.952  73.596  0.00  0.00    +0.253 C 
ATOM     28  O   UNL     1     -12.981  15.487  73.001  0.00  0.00    -0.468 OA
ENDBRANCH  18  28
ENDBRANCH   1  23
BRANCH   6  29
ATOM     29  O   UNL     1      -8.883  16.888  67.287  0.00  0.00    -0.326 OA
BRANCH  29  30
ATOM     30  C   UNL     1      -8.261  17.760  66.275  0.00  0.00    +0.270 C 
ATOM     31  C   UNL     1      -8.918  19.203  66.951  0.00  0.00    +0.240 C 
ATOM     32  O   UNL     1      -9.229  19.769  65.578  0.00  0.00    -0.215 OA
ATOM     33  C   UNL     1      -7.667  20.280  67.284  0.00  0.00    +0.217 C 
ATOM     34  O   UNL     1      -7.213  19.417  68.449  0.00  0.00    -0.218 OA
ATOM     35  C   UNL     1      -6.342  19.849  66.337  0.00  0.00    +0.181 C 
ATOM     36  C   UNL     1      -7.044  18.582  65.471  0.00  0.00    +0.177 C 
ATOM     37  C   UNL     1      -5.574  18.330  64.793  0.00  0.00    +0.177 C 
ATOM     38  O   UNL     1      -5.640  19.285  63.875  0.00  0.00    -0.324 OA
ATOM     39  C   UNL     1      -5.411  20.716  64.377  0.00  0.00    +0.266 C 
ATOM     40  O   UNL     1      -6.697  20.801  65.231  0.00  0.00    -0.324 OA
ATOM     41  O   UNL     1      -6.840  17.824  66.803  0.00  0.00    -0.326 OA
BRANCH  39  42
ATOM     42  C   UNL     1      -4.376  20.340  65.602  0.00  0.00    +0.063 A 
ATOM     43  S   UNL     1      -2.879  19.621  65.615  0.00  0.00    -0.086 S 
ATOM     44  C   UNL     1      -1.950  20.756  66.511  0.00  0.00    +0.035 A 
ATOM     45  C   UNL     1      -2.788  21.853  66.323  0.00  0.00    +0.007 A 
ATOM     46  C   UNL     1      -4.104  21.480  66.357  0.00  0.00    +0.008 A 
ENDBRANCH  39  42
ENDBRANCH  29  30
ENDBRANCH   6  29
TORSDOF 6
ENDMDL
MODEL 7
REMARK VINA RESULT:      -7.7      3.670      9.421
REMARK  Name = 
REMARK  6 active torsions:
REMARK  status: ('A' for Active; 'I' for Inactive)
REMARK    1  A    between atoms: O_2  and  C_3
REMARK    2  A    between atoms: C_5  and  C_6
REMARK    3  A    between atoms: C_13  and  O_14
REMARK    4  A    between atoms: O_14  and  C_15
REMARK    5  A    between atoms: C_20  and  C_21
REMARK    6  A    between atoms: C_42  and  O_43
REMARK                            x       y       z     vdW  Elec       q    Type
REMARK                         _______ _______ _______ _____ _____    ______ ____
ROOT
ATOM      1  C   UNL     1     -10.296  12.405  68.601  0.00  0.00    +0.055 C 
ATOM      2  C   UNL     1     -10.399  11.160  67.587  0.00  0.00    +0.113 C 
ATOM      3  C   UNL     1     -10.729   9.742  68.194  0.00  0.00    +0.086 C 
ATOM      4  C   UNL     1      -9.331   9.527  68.974  0.00  0.00    +0.212 C 
ATOM      5  O   UNL     1      -8.723  10.729  69.045  0.00  0.00    -0.448 OA
ATOM      6  C   UNL     1     -10.244   9.724  66.462  0.00  0.00    +0.144 C 
ATOM      7  C   UNL     1     -10.300  11.350  66.123  0.00  0.00    +0.004 A 
ATOM      8  C   UNL     1     -10.918  11.636  64.914  0.00  0.00    +0.038 A 
ATOM      9  C   UNL     1     -11.163  12.971  64.546  0.00  0.00    +0.176 A 
ATOM     10  O   UNL     1     -12.256  13.650  63.975  0.00  0.00    -0.435 OA
ATOM     11  C   UNL     1     -12.207  15.029  64.237  0.00  0.00    +0.429 C 
ATOM     12  O   UNL     1     -10.975  15.230  64.890  0.00  0.00    -0.435 OA
ATOM     13  C   UNL     1     -10.408  13.968  65.194  0.00  0.00    +0.176 A 
ATOM     14  C   UNL     1     -10.014  13.749  66.526  0.00  0.00    +0.036 A 
ATOM     15  C   UNL     1      -8.732  11.212  67.764  0.00  0.00    +0.317 C 
ATOM     16  O   UNL     1      -7.924  12.034  67.310  0.00  0.00    -0.250 OA
ATOM     17  C   UNL     1     -10.260  12.556  66.911  0.00  0.00    -0.016 A 
ENDROOT
BRANCH   1  23
ATOM     18  C   UNL     1     -12.718  11.939  70.937  0.00  0.00    +0.180 A 
ATOM     19  C   UNL     1     -12.797  13.165  71.514  0.00  0.00    +0.263 A 
ATOM     20  O   UNL     1     -12.798  13.347  72.865  0.00  0.00    -0.280 OA
ATOM     21  C   UNL     1     -12.792  14.218  70.619  0.00  0.00    +0.180 A 
ATOM     22  C   UNL     1     -12.203  14.062  69.357  0.00  0.00    +0.036 A 
ATOM     23  C   UNL     1     -11.857  12.902  68.811  0.00  0.00    -0.012 A 
ATOM     24  C   UNL     1     -12.189  11.835  69.688  0.00  0.00    +0.036 A 
BRANCH  21  25
ATOM     25  O   UNL     1     -12.901  15.495  71.117  0.00  0.00    -0.468 OA
ATOM     26  C   UNL     1     -11.796  16.312  71.520  0.00  0.00    +0.253 C 
ENDBRANCH  21  25
BRANCH  18  28
ATOM     27  C   UNL     1     -13.079  10.065  71.812  0.00  0.00    +0.253 C 
ATOM     28  O   UNL     1     -13.046  10.834  71.708  0.00  0.00    -0.468 OA
ENDBRANCH  18  28
ENDBRANCH   1  23
BRANCH   6  29
ATOM     29  O   UNL     1      -8.870   9.519  66.806  0.00  0.00    -0.326 OA
BRANCH  29  30
ATOM     30  C   UNL     1      -7.808   8.921  65.978  0.00  0.00    +0.270 C 
ATOM     31  C   UNL     1      -7.574   7.585  67.043  0.00  0.00    +0.240 C 
ATOM     32  O   UNL     1      -6.066   7.655  66.885  0.00  0.00    -0.215 OA
ATOM     33  C   UNL     1      -7.755   6.149  66.183  0.00  0.00    +0.217 C 
ATOM     34  O   UNL     1      -9.255   6.378  66.089  0.00  0.00    -0.218 OA
ATOM     35  C   UNL     1      -7.515   6.486  64.550  0.00  0.00    +0.181 C 
ATOM     36  C   UNL     1      -7.119   8.122  64.679  0.00  0.00    +0.177 C 
ATOM     37  C   UNL     1      -7.073   8.162  63.041  0.00  0.00    +0.177 C 
ATOM     38  O   UNL     1      -5.857   7.655  62.889  0.00  0.00    -0.324 OA
ATOM     39  C   UNL     1      -5.736   6.137  63.076  0.00  0.00    +0.266 C 
ATOM     40  O   UNL     1      -6.057   6.130  64.589  0.00  0.00    -0.324 OA
ATOM     41  O   UNL     1      -8.643   8.269  64.892  0.00  0.00    -0.326 OA
BRANCH  39  42
ATOM     42  C   UNL     1      -7.244   5.743  62.545  0.00  0.00    +0.063 A 
ATOM     43  S   UNL     1      -7.998   5.947  61.079  0.00  0.00    -0.086 S 
ATOM     44  C   UNL     1      -8.543   4.353  60.737  0.00  0.00    +0.035 A 
ATOM     45  C   UNL     1      -7.667   3.683  61.590  0.00  0.00    +0.007 A 
ATOM     46  C   UNL     1      -7.476   4.384  62.750  0.00  0.00    +0.008 A 
ENDBRANCH  39  42
ENDBRANCH  29  30
ENDBRANCH   6  29
TORSDOF 6
ENDMDL
MODEL 8
REMARK VINA RESULT:      -7.4      4.456     11.439
REMARK  Name = 
REMARK  6 active torsions:
REMARK  status: ('A' for Active; 'I' for Inactive)
REMARK    1  A    between atoms: O_2  and  C_3
REMARK    2  A    between atoms: C_5  and  C_6
REMARK    3  A    between atoms: C_13  and  O_14
REMARK    4  A    between atoms: O_14  and  C_15
REMARK    5  A    between atoms: C_20  and  C_21
REMARK    6  A    between atoms: C_42  and  O_43
REMARK                            x       y       z     vdW  Elec       q    Type
REMARK                         _______ _______ _______ _____ _____    ______ ____
ROOT
ATOM      1  C   UNL     1     -10.786  10.169  70.553  0.00  0.00    +0.055 C 
ATOM      2  C   UNL     1     -11.039   8.609  70.253  0.00  0.00    +0.113 C 
ATOM      3  C   UNL     1     -12.197   7.885  71.045  0.00  0.00    +0.086 C 
ATOM      4  C   UNL     1     -11.496   7.919  72.500  0.00  0.00    +0.212 C 
ATOM      5  O   UNL     1     -10.487   8.813  72.438  0.00  0.00    -0.448 OA
ATOM      6  C   UNL     1     -11.132   6.787  70.098  0.00  0.00    +0.144 C 
ATOM      7  C   UNL     1     -10.292   7.898  69.192  0.00  0.00    +0.004 A 
ATOM      8  C   UNL     1     -10.170   7.536  67.858  0.00  0.00    +0.038 A 
ATOM      9  C   UNL     1      -9.604   8.432  66.934  0.00  0.00    +0.176 A 
ATOM     10  O   UNL     1      -9.930   8.835  65.625  0.00  0.00    -0.435 OA
ATOM     11  C   UNL     1      -9.360  10.078  65.306  0.00  0.00    +0.429 C 
ATOM     12  O   UNL     1      -8.548  10.399  66.412  0.00  0.00    -0.435 OA
ATOM     13  C   UNL     1      -8.801   9.468  67.449  0.00  0.00    +0.176 A 
ATOM     14  C   UNL     1      -9.118   9.994  68.715  0.00  0.00    +0.036 A 
ATOM     15  C   UNL     1      -9.763   8.460  71.331  0.00  0.00    +0.317 C 
ATOM     16  O   UNL     1      -8.563   8.712  71.159  0.00  0.00    -0.250 OA
ATOM     17  C   UNL     1     -10.017   9.307  69.309  0.00  0.00    -0.016 A 
ENDROOT
BRANCH   1  23
ATOM     18  C   UNL     1     -12.570  13.053  70.753  0.00  0.00    +0.180 A 
ATOM     19  C   UNL     1     -11.970  13.824  69.811  0.00  0.00    +0.263 A 
ATOM     20  O   UNL     1     -11.587  15.111  70.045  0.00  0.00    -0.280 OA
ATOM     21  C   UNL     1     -11.706  13.171  68.622  0.00  0.00    +0.180 A 
ATOM     22  C   UNL     1     -11.547  11.779  68.609  0.00  0.00    +0.036 A 
ATOM     23  C   UNL     1     -11.878  10.959  69.600  0.00  0.00    -0.012 A 
ATOM     24  C   UNL     1     -12.437  11.701  70.676  0.00  0.00    +0.036 A 
BRANCH  21  25
ATOM     25  O   UNL     1     -11.129  13.887  67.601  0.00  0.00    -0.468 OA
ATOM     26  C   UNL     1     -11.828  14.389  66.457  0.00  0.00    +0.253 C 
ENDBRANCH  21  25
BRANCH  18  28
ATOM     27  C   UNL     1     -13.562  13.662  72.500  0.00  0.00    +0.253 C 
ATOM     28  O   UNL     1     -13.166  13.687  71.832  0.00  0.00    -0.468 OA
ENDBRANCH  18  28
ENDBRANCH   1  23
BRANCH   6  29
ATOM     29  O   UNL     1     -10.273   6.581  71.225  0.00  0.00    -0.326 OA
BRANCH  29  30
ATOM     30  C   UNL     1      -9.520   5.366  71.580  0.00  0.00    +0.270 C 
ATOM     31  C   UNL     1      -9.751   5.581  73.275  0.00  0.00    +0.240 C 
ATOM     32  O   UNL     1      -8.324   5.163  73.576  0.00  0.00    -0.215 OA
ATOM     33  C   UNL     1     -10.459   4.196  73.920  0.00  0.00    +0.217 C 
ATOM     34  O   UNL     1     -11.779   4.541  73.250  0.00  0.00    -0.218 OA
ATOM     35  C   UNL     1     -10.159   2.917  72.865  0.00  0.00    +0.181 C 
ATOM     36  C   UNL     1      -9.199   3.730  71.739  0.00  0.00    +0.177 C 
ATOM     37  C   UNL     1      -9.187   2.346  70.862  0.00  0.00    +0.177 C 
ATOM     38  O   UNL     1      -8.240   1.717  71.544  0.00  0.00    -0.324 OA
ATOM     39  C   UNL     1      -8.665   1.122  72.891  0.00  0.00    +0.266 C 
ATOM     40  O   UNL     1      -8.926   2.473  73.596  0.00  0.00    -0.324 OA
ATOM     41  O   UNL     1     -10.563   4.303  71.288  0.00  0.00    -0.326 OA
BRANCH  39  42
ATOM     42  C   UNL     1     -10.228   0.796  72.488  0.00  0.00    +0.063 A 
ATOM     43  S   UNL     1     -10.901  -0.264  71.401  0.00  0.00    -0.086 S 
ATOM     44  C   UNL     1     -12.023  -1.116  72.387  0.00  0.00    +0.035 A 
ATOM     45  C   UNL     1     -11.436  -0.817  73.615  0.00  0.00    +0.007 A 
ATOM     46  C   UNL     1     -10.952   0.462  73.632  0.00  0.00    +0.008 A 
ENDBRANCH  39  42
ENDBRANCH  29  30
ENDBRANCH   6  29
TORSDOF 6
ENDMDL
MODEL 9
REMARK VINA RESULT:      -7.3      2.163      4.152
REMARK  Name = 
REMARK  6 active torsions:
REMARK  status: ('A' for Active; 'I' for Inactive)
REMARK    1  A    between atoms: O_2  and  C_3
REMARK    2  A    between atoms: C_5  and  C_6
REMARK    3  A    between atoms: C_13  and  O_14
REMARK    4  A    between atoms: O_14  and  C_15
REMARK    5  A    between atoms: C_20  and  C_21
REMARK    6  A    between atoms: C_42  and  O_43
REMARK                            x       y       z     vdW  Elec       q    Type
REMARK                         _______ _______ _______ _____ _____    ______ ____
ROOT
ATOM      1  C   UNL     1      -9.199   9.409  66.390  0.00  0.00    +0.055 C 
ATOM      2  C   UNL     1      -8.669  10.670  67.237  0.00  0.00    +0.113 C 
ATOM      3  C   UNL     1      -9.356  10.966  68.626  0.00  0.00    +0.086 C 
ATOM      4  C   UNL     1     -10.790  11.430  68.046  0.00  0.00    +0.212 C 
ATOM      5  O   UNL     1     -10.852  11.026  66.760  0.00  0.00    -0.448 OA
ATOM      6  C   UNL     1      -8.240  12.254  68.049  0.00  0.00    +0.144 C 
ATOM      7  C   UNL     1      -7.502  11.463  66.788  0.00  0.00    +0.004 A 
ATOM      8  C   UNL     1      -6.127  11.647  66.755  0.00  0.00    +0.038 A 
ATOM      9  C   UNL     1      -5.344  10.936  65.829  0.00  0.00    +0.176 A 
ATOM     10  O   UNL     1      -4.115  10.251  65.899  0.00  0.00    -0.435 OA
ATOM     11  C   UNL     1      -3.981   9.316  64.860  0.00  0.00    +0.429 C 
ATOM     12  O   UNL     1      -5.113   9.515  64.044  0.00  0.00    -0.435 OA
ATOM     13  C   UNL     1      -6.000  10.402  64.704  0.00  0.00    +0.176 A 
ATOM     14  C   UNL     1      -7.334   9.981  64.845  0.00  0.00    +0.036 A 
ATOM     15  C   UNL     1      -9.696  11.479  66.185  0.00  0.00    +0.317 C 
ATOM     16  O   UNL     1      -9.548  11.715  64.978  0.00  0.00    -0.250 OA
ATOM     17  C   UNL     1      -7.829  10.320  65.973  0.00  0.00    -0.016 A 
ENDROOT
BRANCH   1  23
ATOM     18  C   UNL     1     -10.058   6.476  67.874  0.00  0.00    +0.180 A 
ATOM     19  C   UNL     1      -9.719   5.568  66.925  0.00  0.00    +0.263 A 
ATOM     20  O   UNL     1     -10.554   4.565  66.531  0.00  0.00    -0.280 OA
ATOM     21  C   UNL     1      -8.491   5.793  66.333  0.00  0.00    +0.180 A 
ATOM     22  C   UNL     1      -7.955   7.087  66.302  0.00  0.00    +0.036 A 
ATOM     23  C   UNL     1      -8.391   8.115  67.021  0.00  0.00    -0.012 A 
ATOM     24  C   UNL     1      -9.475   7.706  67.843  0.00  0.00    +0.036 A 
BRANCH  21  25
ATOM     25  O   UNL     1      -8.055   4.900  65.383  0.00  0.00    -0.468 OA
ATOM     26  C   UNL     1      -8.338   4.993  63.982  0.00  0.00    +0.253 C 
ENDBRANCH  21  25
BRANCH  18  28
ATOM     27  C   UNL     1     -11.443   6.223  69.432  0.00  0.00    +0.253 C 
ATOM     28  O   UNL     1     -11.092   6.158  68.742  0.00  0.00    -0.468 OA
ENDBRANCH  18  28
ENDBRANCH   1  23
BRANCH   6  29
ATOM     29  O   UNL     1      -9.311  12.951  67.404  0.00  0.00    -0.326 OA
BRANCH  29  30
ATOM     30  C   UNL     1      -9.337  14.353  66.953  0.00  0.00    +0.270 C 
ATOM     31  C   UNL     1     -10.470  14.838  68.160  0.00  0.00    +0.240 C 
ATOM     32  O   UNL     1     -11.225  15.713  67.175  0.00  0.00    -0.215 OA
ATOM     33  C   UNL     1      -9.826  16.118  69.044  0.00  0.00    +0.217 C 
ATOM     34  O   UNL     1      -8.843  15.177  69.719  0.00  0.00    -0.218 OA
ATOM     35  C   UNL     1      -8.625  16.844  68.113  0.00  0.00    +0.181 C 
ATOM     36  C   UNL     1      -8.788  15.916  66.712  0.00  0.00    +0.177 C 
ATOM     37  C   UNL     1      -7.500  16.732  66.112  0.00  0.00    +0.177 C 
ATOM     38  O   UNL     1      -8.148  17.823  65.729  0.00  0.00    -0.324 OA
ATOM     39  C   UNL     1      -8.531  18.803  66.844  0.00  0.00    +0.266 C 
ATOM     40  O   UNL     1      -9.553  17.874  67.539  0.00  0.00    -0.324 OA
ATOM     41  O   UNL     1      -8.044  14.862  67.563  0.00  0.00    -0.326 OA
BRANCH  39  42
ATOM     42  C   UNL     1      -7.258  18.488  67.841  0.00  0.00    +0.063 A 
ATOM     43  S   UNL     1      -5.615  18.535  67.599  0.00  0.00    -0.086 S 
ATOM     44  C   UNL     1      -5.096  19.540  68.893  0.00  0.00    +0.035 A 
ATOM     45  C   UNL     1      -6.324  20.153  69.139  0.00  0.00    +0.007 A 
ATOM     46  C   UNL     1      -7.356  19.267  68.993  0.00  0.00    +0.008 A 
ENDBRANCH  39  42
ENDBRANCH  29  30
ENDBRANCH   6  29
TORSDOF 6
ENDMDL
