MODEL 1
REMARK VINA RESULT:      -7.2      0.000      0.000
REMARK  Name = 
REMARK  9 active torsions:
REMARK  status: ('A' for Active; 'I' for Inactive)
REMARK    1  A    between atoms: O_2  and  C_3
REMARK    2  A    between atoms: C_5  and  C_6
REMARK    3  A    between atoms: C_6  and  C_7
REMARK    4  A    between atoms: C_7  and  C_9
REMARK    5  A    between atoms: C_20  and  O_21
REMARK    6  A    between atoms: C_37  and  O_38
REMARK    7  A    between atoms: C_64  and  O_65
REMARK    8  A    between atoms: O_65  and  C_66
REMARK    9  A    between atoms: C_66  and  C_67
REMARK                            x       y       z     vdW  Elec       q    Type
REMARK                         _______ _______ _______ _____ _____    ______ ____
ROOT
ATOM      1  C   UNL     1      -8.316   8.598  67.955  0.00  0.00    +0.176 C 
ATOM      2  O   UNL     1      -9.619   8.989  68.642  0.00  0.00    -0.451 OA
ATOM      3  C   UNL     1      -9.640   8.723  69.935  0.00  0.00    +0.335 C 
ATOM      4  O   UNL     1     -10.183   9.427  70.840  0.00  0.00    -0.248 OA
ATOM      5  C   UNL     1      -9.066   7.339  70.525  0.00  0.00    +0.175 C 
ATOM      6  N   UNL     1     -10.516   6.738  70.657  0.00  0.00    -0.265 N 
ATOM      7  C   UNL     1     -11.271   6.561  69.477  0.00  0.00    +0.094 C 
ATOM      8  C   UNL     1     -10.785   5.271  68.824  0.00  0.00    +0.022 C 
ATOM      9  C   UNL     1      -9.299   5.207  69.172  0.00  0.00    +0.004 C 
ATOM     10  C   UNL     1     -10.968   7.027  71.951  0.00  0.00    +0.289 C 
ATOM     11  O   UNL     1     -12.207   7.039  72.125  0.00  0.00    -0.267 OA
ATOM     12  C   UNL     1      -9.954   7.019  73.026  0.00  0.00    +0.279 C 
ATOM     13  O   UNL     1     -10.584   7.217  74.127  0.00  0.00    -0.281 OA
ATOM     14  C   UNL     1      -8.760   6.198  72.929  0.00  0.00    +0.279 C 
ATOM     15  O   UNL     1      -9.223   4.866  72.996  0.00  0.00    -0.329 OA
ATOM     16  C   UNL     1      -8.037   4.002  72.615  0.00  0.00    +0.121 C 
ATOM     17  C   UNL     1      -7.427   4.030  74.145  0.00  0.00    +0.030 C 
ATOM     18  C   UNL     1      -6.976   5.409  74.421  0.00  0.00    +0.008 C 
ATOM     19  C   UNL     1      -8.841   2.605  72.949  0.00  0.00    +0.063 C 
ATOM     20  C   UNL     1     -10.037   2.655  71.819  0.00  0.00    +0.136 C 
ATOM     21  C   UNL     1      -8.997   2.341  70.610  0.00  0.00    -0.017 C 
ATOM     22  C   UNL     1      -8.936   3.691  69.929  0.00  0.00    +0.029 C 
ATOM     23  C   UNL     1      -9.311   1.349  69.818  0.00  0.00    -0.006 C 
ATOM     24  C   UNL     1      -8.542   0.100  69.709  0.00  0.00    -0.001 C 
ATOM     25  C   UNL     1      -7.286   0.082  70.163  0.00  0.00    -0.000 C 
ATOM     26  C   UNL     1      -6.299   0.426  69.132  0.00  0.00    -0.005 C 
ATOM     27  C   UNL     1      -6.317  -0.088  67.932  0.00  0.00    -0.026 C 
ATOM     28  C   UNL     1      -7.340   0.563  66.884  0.00  0.00    +0.022 C 
ATOM     29  C   UNL     1      -6.731   2.069  67.098  0.00  0.00    +0.005 C 
ATOM     30  C   UNL     1      -6.356   0.288  65.623  0.00  0.00    +0.012 C 
ATOM     31  C   UNL     1      -7.292   0.482  64.303  0.00  0.00    +0.061 C 
ATOM     32  C   UNL     1      -8.570   1.203  65.025  0.00  0.00    +0.008 C 
ATOM     33  C   UNL     1      -6.581   1.874  63.933  0.00  0.00    +0.180 C 
ATOM     34  O   UNL     1      -5.454   1.859  63.610  0.00  0.00    -0.293 OA
ATOM     35  C   UNL     1      -7.618   2.878  63.236  0.00  0.00    +0.206 C 
ATOM     36  C   UNL     1      -6.649   4.246  63.643  0.00  0.00    +0.204 C 
ATOM     37  O   UNL     1      -6.870   4.000  65.118  0.00  0.00    -0.216 OA
ATOM     38  C   UNL     1      -7.901   5.243  63.525  0.00  0.00    -0.015 C 
ATOM     39  C   UNL     1      -8.738   5.107  62.289  0.00  0.00    +0.029 C 
ATOM     40  C   UNL     1      -8.239   6.054  64.407  0.00  0.00    -0.025 C 
ATOM     41  C   UNL     1      -7.252   6.638  65.524  0.00  0.00    +0.079 C 
ATOM     42  C   UNL     1      -6.124   7.137  64.445  0.00  0.00    +0.012 C 
ATOM     43  C   UNL     1      -7.996   8.064  65.554  0.00  0.00    +0.158 C 
ATOM     44  O   UNL     1      -8.225   8.609  64.510  0.00  0.00    -0.296 OA
ATOM     45  O   UNL     1      -7.597   6.420  72.414  0.00  0.00    -0.187 OA
ATOM     46  C   UNL     1      -8.334   6.300  74.521  0.00  0.00    +0.062 C 
ATOM     47  C   UNL     1      -7.535   7.714  74.375  0.00  0.00    +0.006 C 
ATOM     48  C   UNL     1      -8.790   6.595  69.091  0.00  0.00    +0.031 C 
ATOM     49  C   UNL     1      -9.094   8.159  66.572  0.00  0.00    +0.108 C 
ENDROOT
BRANCH  35  50
ATOM     50  O   UNL     1      -6.980   2.773  61.872  0.00  0.00    -0.343 OA
ATOM     51  C   UNL     1      -7.936   1.972  61.225  0.00  0.00    +0.175 C 
ENDBRANCH  35  50
BRANCH   1  52
ATOM     52  C   UNL     1      -7.983  10.102  67.220  0.00  0.00    +0.041 C 
ATOM     53  C   UNL     1      -6.491  10.161  67.844  0.00  0.00    +0.004 C 
BRANCH  52  54
ATOM     54  C   UNL     1      -8.623  11.083  68.341  0.00  0.00    +0.004 C 
BRANCH  54  59
ATOM     55  C   UNL     1     -11.251  11.955  67.100  0.00  0.00    +0.142 C 
ATOM     56  C   UNL     1     -11.496  13.665  66.946  0.00  0.00    +0.142 C 
ATOM     57  C   UNL     1      -9.993  14.171  67.280  0.00  0.00    +0.032 C 
ATOM     58  C   UNL     1      -9.337  13.444  68.322  0.00  0.00    +0.003 C 
ATOM     59  C   UNL     1      -8.560  12.385  67.343  0.00  0.00    +0.003 C 
ATOM     60  C   UNL     1      -9.783  11.887  66.445  0.00  0.00    +0.032 C 
BRANCH  55  62
ATOM     61  C   UNL     1     -11.820  11.665  69.162  0.00  0.00    +0.174 C 
ATOM     62  O   UNL     1     -10.943  11.969  68.582  0.00  0.00    -0.351 OA
ENDBRANCH  55  62
BRANCH  56  63
ATOM     63  O   UNL     1     -11.193  13.608  65.466  0.00  0.00    -0.351 OA
BRANCH  63  64
ATOM     64  C   UNL     1     -10.840  14.856  65.050  0.00  0.00    +0.178 C 
BRANCH  64  65
ATOM     65  C   UNL     1     -11.991  15.459  64.299  0.00  0.00    +0.214 C 
ATOM     66  O   UNL     1     -11.607  16.764  63.955  0.00  0.00    -0.218 OA
ENDBRANCH  64  65
ENDBRANCH  63  64
ENDBRANCH  56  63
ENDBRANCH  54  59
ENDBRANCH  52  54
ENDBRANCH   1  52
BRANCH  20  67
ATOM     67  O   UNL     1     -10.366   1.190  72.070  0.00  0.00    -0.349 OA
ATOM     68  C   UNL     1     -11.251   1.230  73.149  0.00  0.00    +0.174 C 
ENDBRANCH  20  67
TORSDOF 9
ENDMDL
MODEL 2
REMARK VINA RESULT:      -6.9      1.992      2.667
REMARK  Name = 
REMARK  9 active torsions:
REMARK  status: ('A' for Active; 'I' for Inactive)
REMARK    1  A    between atoms: O_2  and  C_3
REMARK    2  A    between atoms: C_5  and  C_6
REMARK    3  A    between atoms: C_6  and  C_7
REMARK    4  A    between atoms: C_7  and  C_9
REMARK    5  A    between atoms: C_20  and  O_21
REMARK    6  A    between atoms: C_37  and  O_38
REMARK    7  A    between atoms: C_64  and  O_65
REMARK    8  A    between atoms: O_65  and  C_66
REMARK    9  A    between atoms: C_66  and  C_67
REMARK                            x       y       z     vdW  Elec       q    Type
REMARK                         _______ _______ _______ _____ _____    ______ ____
ROOT
ATOM      1  C   UNL     1      -9.136  10.251  67.222  0.00  0.00    +0.176 C 
ATOM      2  O   UNL     1     -10.465  10.203  67.965  0.00  0.00    -0.451 OA
ATOM      3  C   UNL     1     -10.379   9.690  69.178  0.00  0.00    +0.335 C 
ATOM      4  O   UNL     1     -11.027  10.065  70.203  0.00  0.00    -0.248 OA
ATOM      5  C   UNL     1      -9.499   8.377  69.483  0.00  0.00    +0.175 C 
ATOM      6  N   UNL     1     -10.779   7.459  69.482  0.00  0.00    -0.265 N 
ATOM      7  C   UNL     1     -11.522   7.357  68.286  0.00  0.00    +0.094 C 
ATOM      8  C   UNL     1     -10.794   6.360  67.391  0.00  0.00    +0.022 C 
ATOM      9  C   UNL     1      -9.317   6.555  67.728  0.00  0.00    +0.004 C 
ATOM     10  C   UNL     1     -11.233   7.382  70.804  0.00  0.00    +0.289 C 
ATOM     11  O   UNL     1     -12.438   7.088  70.970  0.00  0.00    -0.267 OA
ATOM     12  C   UNL     1     -10.202   7.384  71.863  0.00  0.00    +0.279 C 
ATOM     13  O   UNL     1     -10.817   7.218  72.977  0.00  0.00    -0.281 OA
ATOM     14  C   UNL     1      -8.863   6.880  71.610  0.00  0.00    +0.279 C 
ATOM     15  O   UNL     1      -9.025   5.492  71.406  0.00  0.00    -0.329 OA
ATOM     16  C   UNL     1      -7.697   5.001  70.867  0.00  0.00    +0.121 C 
ATOM     17  C   UNL     1      -7.049   4.859  72.376  0.00  0.00    +0.030 C 
ATOM     18  C   UNL     1      -6.896   6.222  72.926  0.00  0.00    +0.008 C 
ATOM     19  C   UNL     1      -8.167   3.424  70.909  0.00  0.00    +0.063 C 
ATOM     20  C   UNL     1      -9.388   3.433  69.805  0.00  0.00    +0.136 C 
ATOM     21  C   UNL     1      -8.351   3.598  68.564  0.00  0.00    -0.017 C 
ATOM     22  C   UNL     1      -8.608   5.037  68.168  0.00  0.00    +0.029 C 
ATOM     23  C   UNL     1      -8.474   2.738  67.587  0.00  0.00    -0.006 C 
ATOM     24  C   UNL     1      -7.458   1.734  67.235  0.00  0.00    -0.001 C 
ATOM     25  C   UNL     1      -6.212   1.902  67.684  0.00  0.00    -0.000 C 
ATOM     26  C   UNL     1      -5.361   2.650  66.749  0.00  0.00    -0.005 C 
ATOM     27  C   UNL     1      -5.313   2.391  65.470  0.00  0.00    -0.026 C 
ATOM     28  C   UNL     1      -6.492   2.996  64.568  0.00  0.00    +0.022 C 
ATOM     29  C   UNL     1      -6.214   4.526  65.083  0.00  0.00    +0.005 C 
ATOM     30  C   UNL     1      -5.519   3.197  63.283  0.00  0.00    +0.012 C 
ATOM     31  C   UNL     1      -6.525   3.438  62.023  0.00  0.00    +0.061 C 
ATOM     32  C   UNL     1      -7.900   3.705  62.867  0.00  0.00    +0.008 C 
ATOM     33  C   UNL     1      -6.145   4.996  61.945  0.00  0.00    +0.180 C 
ATOM     34  O   UNL     1      -5.055   5.293  61.632  0.00  0.00    -0.293 OA
ATOM     35  C   UNL     1      -7.400   5.867  61.456  0.00  0.00    +0.206 C 
ATOM     36  C   UNL     1      -6.733   7.306  62.136  0.00  0.00    +0.204 C 
ATOM     37  O   UNL     1      -6.841   6.732  63.530  0.00  0.00    -0.216 OA
ATOM     38  C   UNL     1      -8.175   8.008  62.212  0.00  0.00    -0.015 C 
ATOM     39  C   UNL     1      -9.009   7.939  60.969  0.00  0.00    +0.029 C 
ATOM     40  C   UNL     1      -8.646   8.536  63.237  0.00  0.00    -0.025 C 
ATOM     41  C   UNL     1      -7.766   9.089  64.455  0.00  0.00    +0.079 C 
ATOM     42  C   UNL     1      -6.814  10.025  63.504  0.00  0.00    +0.012 C 
ATOM     43  C   UNL     1      -8.799  10.284  64.765  0.00  0.00    +0.158 C 
ATOM     44  O   UNL     1      -9.179  10.960  63.850  0.00  0.00    -0.296 OA
ATOM     45  O   UNL     1      -7.796   7.448  71.158  0.00  0.00    -0.187 OA
ATOM     46  C   UNL     1      -8.409   6.757  73.193  0.00  0.00    +0.062 C 
ATOM     47  C   UNL     1      -7.940   8.311  73.339  0.00  0.00    +0.006 C 
ATOM     48  C   UNL     1      -9.123   8.009  67.930  0.00  0.00    +0.031 C 
ATOM     49  C   UNL     1      -9.852   9.933  65.774  0.00  0.00    +0.108 C 
ENDROOT
BRANCH  35  50
ATOM     50  O   UNL     1      -6.806   6.175  60.103  0.00  0.00    -0.343 OA
ATOM     51  C   UNL     1      -7.590   5.326  59.302  0.00  0.00    +0.175 C 
ENDBRANCH  35  50
BRANCH   1  52
ATOM     52  C   UNL     1      -9.162  11.906  66.806  0.00  0.00    +0.041 C 
ATOM     53  C   UNL     1      -7.587  12.089  67.128  0.00  0.00    +0.004 C 
BRANCH  52  54
ATOM     54  C   UNL     1      -9.649  12.519  68.226  0.00  0.00    +0.004 C 
BRANCH  54  59
ATOM     55  C   UNL     1     -11.637  14.805  68.399  0.00  0.00    +0.142 C 
ATOM     56  C   UNL     1     -11.028  16.306  69.019  0.00  0.00    +0.142 C 
ATOM     57  C   UNL     1      -9.442  15.970  68.992  0.00  0.00    +0.032 C 
ATOM     58  C   UNL     1      -9.109  14.634  69.375  0.00  0.00    +0.003 C 
ATOM     59  C   UNL     1      -9.074  14.013  67.859  0.00  0.00    +0.003 C 
ATOM     60  C   UNL     1     -10.481  14.535  67.313  0.00  0.00    +0.032 C 
BRANCH  55  62
ATOM     61  C   UNL     1     -12.051  13.534  70.094  0.00  0.00    +0.174 C 
ATOM     62  O   UNL     1     -11.188  13.954  69.567  0.00  0.00    -0.351 OA
ENDBRANCH  55  62
BRANCH  56  63
ATOM     63  O   UNL     1     -10.969  16.895  67.628  0.00  0.00    -0.351 OA
BRANCH  63  64
ATOM     64  C   UNL     1     -10.397  18.128  67.705  0.00  0.00    +0.178 C 
BRANCH  64  65
ATOM     65  C   UNL     1     -10.434  18.765  66.347  0.00  0.00    +0.214 C 
ATOM     66  O   UNL     1     -10.474  17.719  65.413  0.00  0.00    -0.218 OA
ENDBRANCH  64  65
ENDBRANCH  63  64
ENDBRANCH  56  63
ENDBRANCH  54  59
ENDBRANCH  52  54
ENDBRANCH   1  52
BRANCH  20  67
ATOM     67  O   UNL     1      -9.383   1.912  69.754  0.00  0.00    -0.349 OA
ATOM     68  C   UNL     1      -9.070   1.538  71.063  0.00  0.00    +0.174 C 
ENDBRANCH  20  67
TORSDOF 9
ENDMDL
MODEL 3
REMARK VINA RESULT:      -6.9      2.139      7.405
REMARK  Name = 
REMARK  9 active torsions:
REMARK  status: ('A' for Active; 'I' for Inactive)
REMARK    1  A    between atoms: O_2  and  C_3
REMARK    2  A    between atoms: C_5  and  C_6
REMARK    3  A    between atoms: C_6  and  C_7
REMARK    4  A    between atoms: C_7  and  C_9
REMARK    5  A    between atoms: C_20  and  O_21
REMARK    6  A    between atoms: C_37  and  O_38
REMARK    7  A    between atoms: C_64  and  O_65
REMARK    8  A    between atoms: O_65  and  C_66
REMARK    9  A    between atoms: C_66  and  C_67
REMARK                            x       y       z     vdW  Elec       q    Type
REMARK                         _______ _______ _______ _____ _____    ______ ____
ROOT
ATOM      1  C   UNL     1      -9.756   9.702  68.706  0.00  0.00    +0.176 C 
ATOM      2  O   UNL     1      -8.532  10.548  68.378  0.00  0.00    -0.451 OA
ATOM      3  C   UNL     1      -8.054  10.346  67.164  0.00  0.00    +0.335 C 
ATOM      4  O   UNL     1      -7.556  11.223  66.395  0.00  0.00    -0.248 OA
ATOM      5  C   UNL     1      -7.920   8.867  66.541  0.00  0.00    +0.175 C 
ATOM      6  N   UNL     1      -6.377   8.822  66.860  0.00  0.00    -0.265 N 
ATOM      7  C   UNL     1      -5.976   8.887  68.212  0.00  0.00    +0.094 C 
ATOM      8  C   UNL     1      -6.149   7.489  68.798  0.00  0.00    +0.022 C 
ATOM      9  C   UNL     1      -7.356   6.915  68.059  0.00  0.00    +0.004 C 
ATOM     10  C   UNL     1      -5.707   9.290  65.723  0.00  0.00    +0.289 C 
ATOM     11  O   UNL     1      -4.554   9.744  65.897  0.00  0.00    -0.267 OA
ATOM     12  C   UNL     1      -6.305   8.957  64.414  0.00  0.00    +0.279 C 
ATOM     13  O   UNL     1      -5.498   9.398  63.517  0.00  0.00    -0.281 OA
ATOM     14  C   UNL     1      -7.115   7.765  64.237  0.00  0.00    +0.279 C 
ATOM     15  O   UNL     1      -6.220   6.685  64.399  0.00  0.00    -0.329 OA
ATOM     16  C   UNL     1      -7.088   5.447  64.499  0.00  0.00    +0.121 C 
ATOM     17  C   UNL     1      -7.209   5.303  62.862  0.00  0.00    +0.030 C 
ATOM     18  C   UNL     1      -8.013   6.442  62.372  0.00  0.00    +0.008 C 
ATOM     19  C   UNL     1      -5.790   4.434  64.504  0.00  0.00    +0.063 C 
ATOM     20  C   UNL     1      -5.059   4.869  65.912  0.00  0.00    +0.136 C 
ATOM     21  C   UNL     1      -6.223   4.172  66.808  0.00  0.00    -0.017 C 
ATOM     22  C   UNL     1      -6.940   5.393  67.344  0.00  0.00    +0.029 C 
ATOM     23  C   UNL     1      -5.823   3.332  67.726  0.00  0.00    -0.006 C 
ATOM     24  C   UNL     1      -6.108   1.889  67.710  0.00  0.00    -0.001 C 
ATOM     25  C   UNL     1      -7.096   1.442  66.929  0.00  0.00    -0.000 C 
ATOM     26  C   UNL     1      -8.391   1.383  67.620  0.00  0.00    -0.005 C 
ATOM     27  C   UNL     1      -8.537   0.873  68.812  0.00  0.00    -0.026 C 
ATOM     28  C   UNL     1      -8.146   1.812  70.052  0.00  0.00    +0.022 C 
ATOM     29  C   UNL     1      -9.152   3.011  69.568  0.00  0.00    +0.005 C 
ATOM     30  C   UNL     1      -9.288   1.168  71.009  0.00  0.00    +0.012 C 
ATOM     31  C   UNL     1      -8.894   1.641  72.518  0.00  0.00    +0.061 C 
ATOM     32  C   UNL     1      -7.796   2.789  72.126  0.00  0.00    +0.008 C 
ATOM     33  C   UNL     1     -10.116   2.680  72.574  0.00  0.00    +0.180 C 
ATOM     34  O   UNL     1     -11.211   2.259  72.574  0.00  0.00    -0.293 OA
ATOM     35  C   UNL     1      -9.736   3.965  73.455  0.00  0.00    +0.206 C 
ATOM     36  C   UNL     1     -10.961   4.914  72.696  0.00  0.00    +0.204 C 
ATOM     37  O   UNL     1     -10.260   4.807  71.362  0.00  0.00    -0.216 OA
ATOM     38  C   UNL     1     -10.222   6.285  73.083  0.00  0.00    -0.015 C 
ATOM     39  C   UNL     1      -9.777   6.416  74.508  0.00  0.00    +0.029 C 
ATOM     40  C   UNL     1      -9.950   7.189  72.271  0.00  0.00    -0.025 C 
ATOM     41  C   UNL     1     -10.718   7.420  70.885  0.00  0.00    +0.079 C 
ATOM     42  C   UNL     1     -12.206   7.455  71.572  0.00  0.00    +0.012 C 
ATOM     43  C   UNL     1     -10.539   9.017  70.957  0.00  0.00    +0.158 C 
ATOM     44  O   UNL     1     -10.820   9.576  71.981  0.00  0.00    -0.296 OA
ATOM     45  O   UNL     1      -8.377   7.546  64.393  0.00  0.00    -0.187 OA
ATOM     46  C   UNL     1      -7.080   7.758  62.586  0.00  0.00    +0.062 C 
ATOM     47  C   UNL     1      -8.325   8.793  62.402  0.00  0.00    +0.006 C 
ATOM     48  C   UNL     1      -8.316   8.031  67.894  0.00  0.00    +0.031 C 
ATOM     49  C   UNL     1      -9.301   9.525  70.278  0.00  0.00    +0.108 C 
ENDROOT
BRANCH  35  50
ATOM     50  O   UNL     1     -10.658   3.600  74.593  0.00  0.00    -0.343 OA
ATOM     51  C   UNL     1      -9.708   3.174  75.539  0.00  0.00    +0.175 C 
ENDBRANCH  35  50
BRANCH   1  52
ATOM     52  C   UNL     1     -10.785  10.969  69.208  0.00  0.00    +0.041 C 
ATOM     53  C   UNL     1     -12.115  10.176  68.737  0.00  0.00    +0.004 C 
BRANCH  52  54
ATOM     54  C   UNL     1     -10.718  11.895  67.879  0.00  0.00    +0.004 C 
BRANCH  54  59
ATOM     55  C   UNL     1      -9.515  14.425  66.713  0.00  0.00    +0.142 C 
ATOM     56  C   UNL     1     -10.454  15.873  66.892  0.00  0.00    +0.142 C 
ATOM     57  C   UNL     1     -11.560  15.334  67.947  0.00  0.00    +0.032 C 
ATOM     58  C   UNL     1     -12.002  13.994  67.715  0.00  0.00    +0.003 C 
ATOM     59  C   UNL     1     -10.948  13.274  68.740  0.00  0.00    +0.003 C 
ATOM     60  C   UNL     1      -9.582  13.935  68.244  0.00  0.00    +0.032 C 
BRANCH  55  62
ATOM     61  C   UNL     1     -10.340  13.348  65.034  0.00  0.00    +0.174 C 
ATOM     62  O   UNL     1     -10.608  13.604  66.064  0.00  0.00    -0.351 OA
ENDBRANCH  55  62
BRANCH  56  63
ATOM     63  O   UNL     1      -9.560  16.355  68.011  0.00  0.00    -0.351 OA
BRANCH  63  64
ATOM     64  C   UNL     1     -10.149  17.430  68.602  0.00  0.00    +0.178 C 
BRANCH  64  65
ATOM     65  C   UNL     1      -9.809  18.662  67.815  0.00  0.00    +0.214 C 
ATOM     66  O   UNL     1     -11.020  19.323  67.560  0.00  0.00    -0.218 OA
ENDBRANCH  64  65
ENDBRANCH  63  64
ENDBRANCH  56  63
ENDBRANCH  54  59
ENDBRANCH  52  54
ENDBRANCH   1  52
BRANCH  20  67
ATOM     67  O   UNL     1      -4.186   3.623  65.871  0.00  0.00    -0.349 OA
ATOM     68  C   UNL     1      -3.933   3.443  64.509  0.00  0.00    +0.174 C 
ENDBRANCH  20  67
TORSDOF 9
ENDMDL
MODEL 4
REMARK VINA RESULT:      -6.8      2.449      8.803
REMARK  Name = 
REMARK  9 active torsions:
REMARK  status: ('A' for Active; 'I' for Inactive)
REMARK    1  A    between atoms: O_2  and  C_3
REMARK    2  A    between atoms: C_5  and  C_6
REMARK    3  A    between atoms: C_6  and  C_7
REMARK    4  A    between atoms: C_7  and  C_9
REMARK    5  A    between atoms: C_20  and  O_21
REMARK    6  A    between atoms: C_37  and  O_38
REMARK    7  A    between atoms: C_64  and  O_65
REMARK    8  A    between atoms: O_65  and  C_66
REMARK    9  A    between atoms: C_66  and  C_67
REMARK                            x       y       z     vdW  Elec       q    Type
REMARK                         _______ _______ _______ _____ _____    ______ ____
ROOT
ATOM      1  C   UNL     1      -8.790   6.554  68.560  0.00  0.00    +0.176 C 
ATOM      2  O   UNL     1      -7.862   7.670  69.025  0.00  0.00    -0.451 OA
ATOM      3  C   UNL     1      -8.269   8.878  68.681  0.00  0.00    +0.335 C 
ATOM      4  O   UNL     1      -8.157   9.936  69.373  0.00  0.00    -0.248 OA
ATOM      5  C   UNL     1      -8.859   9.189  67.216  0.00  0.00    +0.175 C 
ATOM      6  N   UNL     1      -7.492   9.812  66.744  0.00  0.00    -0.265 N 
ATOM      7  C   UNL     1      -6.356   8.974  66.712  0.00  0.00    +0.094 C 
ATOM      8  C   UNL     1      -6.439   8.157  65.427  0.00  0.00    +0.022 C 
ATOM      9  C   UNL     1      -7.936   7.951  65.204  0.00  0.00    +0.004 C 
ATOM     10  C   UNL     1      -7.558  11.189  66.991  0.00  0.00    +0.289 C 
ATOM     11  O   UNL     1      -6.468  11.793  67.106  0.00  0.00    -0.267 OA
ATOM     12  C   UNL     1      -8.877  11.833  66.822  0.00  0.00    +0.279 C 
ATOM     13  O   UNL     1      -8.700  13.091  67.007  0.00  0.00    -0.281 OA
ATOM     14  C   UNL     1      -9.864  11.295  65.902  0.00  0.00    +0.279 C 
ATOM     15  O   UNL     1      -9.313  11.487  64.617  0.00  0.00    -0.329 OA
ATOM     16  C   UNL     1     -10.188  10.687  63.673  0.00  0.00    +0.121 C 
ATOM     17  C   UNL     1     -11.296  11.901  63.548  0.00  0.00    +0.030 C 
ATOM     18  C   UNL     1     -11.962  12.034  64.860  0.00  0.00    +0.008 C 
ATOM     19  C   UNL     1      -9.406  11.249  62.337  0.00  0.00    +0.063 C 
ATOM     20  C   UNL     1      -7.902  10.621  62.569  0.00  0.00    +0.136 C 
ATOM     21  C   UNL     1      -8.410   9.112  62.237  0.00  0.00    -0.017 C 
ATOM     22  C   UNL     1      -8.375   8.490  63.616  0.00  0.00    +0.029 C 
ATOM     23  C   UNL     1      -7.732   8.458  61.330  0.00  0.00    -0.006 C 
ATOM     24  C   UNL     1      -8.274   8.050  60.025  0.00  0.00    -0.001 C 
ATOM     25  C   UNL     1      -9.599   8.027  59.863  0.00  0.00    -0.000 C 
ATOM     26  C   UNL     1     -10.193   6.720  60.179  0.00  0.00    -0.005 C 
ATOM     27  C   UNL     1      -9.699   5.593  59.745  0.00  0.00    -0.026 C 
ATOM     28  C   UNL     1      -8.449   4.995  60.553  0.00  0.00    +0.022 C 
ATOM     29  C   UNL     1      -9.255   5.018  61.979  0.00  0.00    +0.005 C 
ATOM     30  C   UNL     1      -8.892   3.460  60.268  0.00  0.00    +0.012 C 
ATOM     31  C   UNL     1      -7.579   2.564  60.630  0.00  0.00    +0.061 C 
ATOM     32  C   UNL     1      -6.722   3.713  61.420  0.00  0.00    +0.008 C 
ATOM     33  C   UNL     1      -8.261   2.003  61.971  0.00  0.00    +0.180 C 
ATOM     34  O   UNL     1      -9.194   1.300  61.874  0.00  0.00    -0.293 OA
ATOM     35  C   UNL     1      -7.161   1.747  63.109  0.00  0.00    +0.206 C 
ATOM     36  C   UNL     1      -8.354   1.819  64.354  0.00  0.00    +0.204 C 
ATOM     37  O   UNL     1      -8.639   3.269  64.037  0.00  0.00    -0.216 OA
ATOM     38  C   UNL     1      -7.256   2.180  65.468  0.00  0.00    -0.015 C 
ATOM     39  C   UNL     1      -6.029   1.320  65.488  0.00  0.00    +0.029 C 
ATOM     40  C   UNL     1      -7.340   3.146  66.249  0.00  0.00    -0.025 C 
ATOM     41  C   UNL     1      -8.714   3.853  66.668  0.00  0.00    +0.079 C 
ATOM     42  C   UNL     1      -9.438   2.457  67.127  0.00  0.00    +0.012 C 
ATOM     43  C   UNL     1      -8.187   4.184  68.152  0.00  0.00    +0.158 C 
ATOM     44  O   UNL     1      -7.667   3.304  68.780  0.00  0.00    -0.296 OA
ATOM     45  O   UNL     1     -10.789  10.407  66.048  0.00  0.00    -0.187 OA
ATOM     46  C   UNL     1     -10.831  12.634  65.864  0.00  0.00    +0.062 C 
ATOM     47  C   UNL     1     -11.676  12.251  67.204  0.00  0.00    +0.006 C 
ATOM     48  C   UNL     1      -8.531   7.731  66.541  0.00  0.00    +0.031 C 
ATOM     49  C   UNL     1      -7.534   5.528  68.283  0.00  0.00    +0.108 C 
ENDROOT
BRANCH  35  50
ATOM     50  O   UNL     1      -7.264   0.243  63.032  0.00  0.00    -0.343 OA
ATOM     51  C   UNL     1      -6.063  -0.042  62.360  0.00  0.00    +0.175 C 
ENDBRANCH  35  50
BRANCH   1  52
ATOM     52  C   UNL     1      -9.006   5.789  70.070  0.00  0.00    +0.041 C 
ATOM     53  C   UNL     1     -10.557   5.447  69.760  0.00  0.00    +0.004 C 
BRANCH  52  54
ATOM     54  C   UNL     1      -9.346   7.092  70.973  0.00  0.00    +0.004 C 
BRANCH  54  59
ATOM     55  C   UNL     1      -7.759   6.431  73.473  0.00  0.00    +0.142 C 
ATOM     56  C   UNL     1      -8.640   6.446  74.967  0.00  0.00    +0.142 C 
ATOM     57  C   UNL     1     -10.147   6.527  74.375  0.00  0.00    +0.032 C 
ATOM     58  C   UNL     1     -10.294   7.373  73.232  0.00  0.00    +0.003 C 
ATOM     59  C   UNL     1     -10.119   6.194  72.109  0.00  0.00    +0.003 C 
ATOM     60  C   UNL     1      -8.775   5.509  72.632  0.00  0.00    +0.032 C 
BRANCH  55  62
ATOM     61  C   UNL     1      -7.267   8.438  72.847  0.00  0.00    +0.174 C 
ATOM     62  O   UNL     1      -8.154   7.825  73.038  0.00  0.00    -0.351 OA
ENDBRANCH  55  62
BRANCH  56  63
ATOM     63  O   UNL     1      -8.687   4.935  74.992  0.00  0.00    -0.351 OA
BRANCH  63  64
ATOM     64  C   UNL     1      -9.480   4.546  76.028  0.00  0.00    +0.178 C 
BRANCH  64  65
ATOM     65  C   UNL     1      -9.812   3.092  75.864  0.00  0.00    +0.214 C 
ATOM     66  O   UNL     1     -10.561   2.982  74.682  0.00  0.00    -0.218 OA
ENDBRANCH  64  65
ENDBRANCH  63  64
ENDBRANCH  56  63
ENDBRANCH  54  59
ENDBRANCH  52  54
ENDBRANCH   1  52
BRANCH  20  67
ATOM     67  O   UNL     1      -7.526  10.933  61.127  0.00  0.00    -0.349 OA
ATOM     68  C   UNL     1      -6.405  11.757  61.250  0.00  0.00    +0.174 C 
ENDBRANCH  20  67
TORSDOF 9
ENDMDL
MODEL 5
REMARK VINA RESULT:      -6.6      1.641      1.888
REMARK  Name = 
REMARK  9 active torsions:
REMARK  status: ('A' for Active; 'I' for Inactive)
REMARK    1  A    between atoms: O_2  and  C_3
REMARK    2  A    between atoms: C_5  and  C_6
REMARK    3  A    between atoms: C_6  and  C_7
REMARK    4  A    between atoms: C_7  and  C_9
REMARK    5  A    between atoms: C_20  and  O_21
REMARK    6  A    between atoms: C_37  and  O_38
REMARK    7  A    between atoms: C_64  and  O_65
REMARK    8  A    between atoms: O_65  and  C_66
REMARK    9  A    between atoms: C_66  and  C_67
REMARK                            x       y       z     vdW  Elec       q    Type
REMARK                         _______ _______ _______ _____ _____    ______ ____
ROOT
ATOM      1  C   UNL     1      -8.759   9.616  67.158  0.00  0.00    +0.176 C 
ATOM      2  O   UNL     1     -10.136   9.694  67.806  0.00  0.00    -0.451 OA
ATOM      3  C   UNL     1     -10.151   9.322  69.073  0.00  0.00    +0.335 C 
ATOM      4  O   UNL     1     -10.851   9.832  70.000  0.00  0.00    -0.248 OA
ATOM      5  C   UNL     1      -9.343   8.027  69.585  0.00  0.00    +0.175 C 
ATOM      6  N   UNL     1     -10.654   7.154  69.598  0.00  0.00    -0.265 N 
ATOM      7  C   UNL     1     -11.319   6.937  68.371  0.00  0.00    +0.094 C 
ATOM      8  C   UNL     1     -10.571   5.822  67.648  0.00  0.00    +0.022 C 
ATOM      9  C   UNL     1      -9.114   6.010  68.064  0.00  0.00    +0.004 C 
ATOM     10  C   UNL     1     -11.198   7.243  70.885  0.00  0.00    +0.289 C 
ATOM     11  O   UNL     1     -12.422   7.007  70.997  0.00  0.00    -0.267 OA
ATOM     12  C   UNL     1     -10.240   7.337  72.006  0.00  0.00    +0.279 C 
ATOM     13  O   UNL     1     -10.934   7.319  73.086  0.00  0.00    -0.281 OA
ATOM     14  C   UNL     1      -8.907   6.767  71.908  0.00  0.00    +0.279 C 
ATOM     15  O   UNL     1      -9.108   5.371  71.850  0.00  0.00    -0.329 OA
ATOM     16  C   UNL     1      -7.766   4.781  71.466  0.00  0.00    +0.121 C 
ATOM     17  C   UNL     1      -7.226   4.795  73.023  0.00  0.00    +0.030 C 
ATOM     18  C   UNL     1      -7.058   6.207  73.424  0.00  0.00    +0.008 C 
ATOM     19  C   UNL     1      -8.297   3.234  71.652  0.00  0.00    +0.063 C 
ATOM     20  C   UNL     1      -9.441   3.152  70.471  0.00  0.00    +0.136 C 
ATOM     21  C   UNL     1      -8.318   3.142  69.295  0.00  0.00    -0.017 C 
ATOM     22  C   UNL     1      -8.494   4.532  68.723  0.00  0.00    +0.029 C 
ATOM     23  C   UNL     1      -8.408   2.179  68.416  0.00  0.00    -0.006 C 
ATOM     24  C   UNL     1      -7.410   1.111  68.252  0.00  0.00    -0.001 C 
ATOM     25  C   UNL     1      -6.191   1.292  68.766  0.00  0.00    -0.000 C 
ATOM     26  C   UNL     1      -5.252   1.901  67.814  0.00  0.00    -0.005 C 
ATOM     27  C   UNL     1      -5.129   1.496  66.580  0.00  0.00    -0.026 C 
ATOM     28  C   UNL     1      -6.221   2.028  65.534  0.00  0.00    +0.022 C 
ATOM     29  C   UNL     1      -5.920   3.597  65.891  0.00  0.00    +0.005 C 
ATOM     30  C   UNL     1      -5.158   2.049  64.307  0.00  0.00    +0.012 C 
ATOM     31  C   UNL     1      -6.067   2.173  62.959  0.00  0.00    +0.061 C 
ATOM     32  C   UNL     1      -7.485   2.577  63.668  0.00  0.00    +0.008 C 
ATOM     33  C   UNL     1      -5.625   3.700  62.732  0.00  0.00    +0.180 C 
ATOM     34  O   UNL     1      -4.506   3.926  62.466  0.00  0.00    -0.293 OA
ATOM     35  C   UNL     1      -6.811   4.546  62.061  0.00  0.00    +0.206 C 
ATOM     36  C   UNL     1      -6.137   6.033  62.620  0.00  0.00    +0.204 C 
ATOM     37  O   UNL     1      -6.359   5.627  64.058  0.00  0.00    -0.216 OA
ATOM     38  C   UNL     1      -7.553   6.782  62.514  0.00  0.00    -0.015 C 
ATOM     39  C   UNL     1      -8.304   6.595  61.231  0.00  0.00    +0.029 C 
ATOM     40  C   UNL     1      -8.071   7.438  63.437  0.00  0.00    -0.025 C 
ATOM     41  C   UNL     1      -7.254   8.102  64.643  0.00  0.00    +0.079 C 
ATOM     42  C   UNL     1      -6.206   8.893  63.662  0.00  0.00    +0.012 C 
ATOM     43  C   UNL     1      -8.259   9.355  64.743  0.00  0.00    +0.158 C 
ATOM     44  O   UNL     1      -8.551   9.932  63.733  0.00  0.00    -0.296 OA
ATOM     45  O   UNL     1      -7.792   7.247  71.470  0.00  0.00    -0.187 OA
ATOM     46  C   UNL     1      -8.565   6.814  73.522  0.00  0.00    +0.062 C 
ATOM     47  C   UNL     1      -8.049   8.360  73.524  0.00  0.00    +0.006 C 
ATOM     48  C   UNL     1      -8.879   7.471  68.114  0.00  0.00    +0.031 C 
ATOM     49  C   UNL     1      -9.390   9.155  65.709  0.00  0.00    +0.108 C 
ENDROOT
BRANCH  35  50
ATOM     50  O   UNL     1      -6.116   4.678  60.728  0.00  0.00    -0.343 OA
ATOM     51  C   UNL     1      -6.876   3.765  59.975  0.00  0.00    +0.175 C 
ENDBRANCH  35  50
BRANCH   1  52
ATOM     52  C   UNL     1      -8.695  11.212  66.557  0.00  0.00    +0.041 C 
ATOM     53  C   UNL     1      -7.117  11.351  66.883  0.00  0.00    +0.004 C 
BRANCH  52  54
ATOM     54  C   UNL     1      -9.166  12.007  67.889  0.00  0.00    +0.004 C 
BRANCH  54  59
ATOM     55  C   UNL     1     -11.115  14.297  67.485  0.00  0.00    +0.142 C 
ATOM     56  C   UNL     1     -10.545  15.876  67.925  0.00  0.00    +0.142 C 
ATOM     57  C   UNL     1      -8.973  15.535  68.124  0.00  0.00    +0.032 C 
ATOM     58  C   UNL     1      -8.710  14.275  68.745  0.00  0.00    +0.003 C 
ATOM     59  C   UNL     1      -8.525  13.422  67.358  0.00  0.00    +0.003 C 
ATOM     60  C   UNL     1      -9.855  13.856  66.587  0.00  0.00    +0.032 C 
BRANCH  55  62
ATOM     61  C   UNL     1     -11.731  13.292  69.293  0.00  0.00    +0.174 C 
ATOM     62  O   UNL     1     -10.811  13.640  68.813  0.00  0.00    -0.351 OA
ENDBRANCH  55  62
BRANCH  56  63
ATOM     63  O   UNL     1     -10.326  16.238  66.474  0.00  0.00    -0.351 OA
BRANCH  63  64
ATOM     64  C   UNL     1      -9.641  17.413  66.421  0.00  0.00    +0.178 C 
BRANCH  64  65
ATOM     65  C   UNL     1     -10.564  18.530  66.811  0.00  0.00    +0.214 C 
ATOM     66  O   UNL     1     -10.561  19.445  65.747  0.00  0.00    -0.218 OA
ENDBRANCH  64  65
ENDBRANCH  63  64
ENDBRANCH  56  63
ENDBRANCH  54  59
ENDBRANCH  52  54
ENDBRANCH   1  52
BRANCH  20  67
ATOM     67  O   UNL     1      -9.490   1.636  70.593  0.00  0.00    -0.349 OA
ATOM     68  C   UNL     1      -9.889   1.423  71.915  0.00  0.00    +0.174 C 
ENDBRANCH  20  67
TORSDOF 9
ENDMDL
MODEL 6
REMARK VINA RESULT:      -6.5      1.716      2.017
REMARK  Name = 
REMARK  9 active torsions:
REMARK  status: ('A' for Active; 'I' for Inactive)
REMARK    1  A    between atoms: O_2  and  C_3
REMARK    2  A    between atoms: C_5  and  C_6
REMARK    3  A    between atoms: C_6  and  C_7
REMARK    4  A    between atoms: C_7  and  C_9
REMARK    5  A    between atoms: C_20  and  O_21
REMARK    6  A    between atoms: C_37  and  O_38
REMARK    7  A    between atoms: C_64  and  O_65
REMARK    8  A    between atoms: O_65  and  C_66
REMARK    9  A    between atoms: C_66  and  C_67
REMARK                            x       y       z     vdW  Elec       q    Type
REMARK                         _______ _______ _______ _____ _____    ______ ____
ROOT
ATOM      1  C   UNL     1      -8.310   7.854  68.586  0.00  0.00    +0.176 C 
ATOM      2  O   UNL     1      -9.312   8.398  69.596  0.00  0.00    -0.451 OA
ATOM      3  C   UNL     1      -8.896   8.333  70.847  0.00  0.00    +0.335 C 
ATOM      4  O   UNL     1      -9.114   9.188  71.759  0.00  0.00    -0.248 OA
ATOM      5  C   UNL     1      -8.141   7.033  71.423  0.00  0.00    +0.175 C 
ATOM      6  N   UNL     1      -9.457   6.519  72.121  0.00  0.00    -0.265 N 
ATOM      7  C   UNL     1     -10.561   6.196  71.302  0.00  0.00    +0.094 C 
ATOM      8  C   UNL     1     -10.305   4.803  70.736  0.00  0.00    +0.022 C 
ATOM      9  C   UNL     1      -8.788   4.731  70.576  0.00  0.00    +0.004 C 
ATOM     10  C   UNL     1      -9.453   7.019  73.429  0.00  0.00    +0.289 C 
ATOM     11  O   UNL     1     -10.563   7.109  74.001  0.00  0.00    -0.267 OA
ATOM     12  C   UNL     1      -8.138   7.133  74.094  0.00  0.00    +0.279 C 
ATOM     13  O   UNL     1      -8.365   7.522  75.296  0.00  0.00    -0.281 OA
ATOM     14  C   UNL     1      -7.035   6.258  73.736  0.00  0.00    +0.279 C 
ATOM     15  O   UNL     1      -7.433   4.972  74.161  0.00  0.00    -0.329 OA
ATOM     16  C   UNL     1      -6.433   4.012  73.549  0.00  0.00    +0.121 C 
ATOM     17  C   UNL     1      -5.347   4.247  74.765  0.00  0.00    +0.030 C 
ATOM     18  C   UNL     1      -4.846   5.632  74.655  0.00  0.00    +0.008 C 
ATOM     19  C   UNL     1      -7.062   2.716  74.346  0.00  0.00    +0.063 C 
ATOM     20  C   UNL     1      -8.568   2.643  73.685  0.00  0.00    +0.136 C 
ATOM     21  C   UNL     1      -7.988   2.106  72.264  0.00  0.00    -0.017 C 
ATOM     22  C   UNL     1      -8.174   3.334  71.398  0.00  0.00    +0.029 C 
ATOM     23  C   UNL     1      -8.537   1.020  71.787  0.00  0.00    -0.006 C 
ATOM     24  C   UNL     1      -7.834  -0.262  71.627  0.00  0.00    -0.001 C 
ATOM     25  C   UNL     1      -6.499  -0.263  71.635  0.00  0.00    -0.000 C 
ATOM     26  C   UNL     1      -5.917  -0.121  70.293  0.00  0.00    -0.005 C 
ATOM     27  C   UNL     1      -6.329  -0.810  69.265  0.00  0.00    -0.026 C 
ATOM     28  C   UNL     1      -7.652  -0.284  68.527  0.00  0.00    +0.022 C 
ATOM     29  C   UNL     1      -7.024   1.210  68.287  0.00  0.00    +0.005 C 
ATOM     30  C   UNL     1      -7.142  -0.788  67.071  0.00  0.00    +0.012 C 
ATOM     31  C   UNL     1      -8.468  -0.759  66.123  0.00  0.00    +0.061 C 
ATOM     32  C   UNL     1      -9.440   0.117  67.106  0.00  0.00    +0.008 C 
ATOM     33  C   UNL     1      -7.939   0.530  65.325  0.00  0.00    +0.180 C 
ATOM     34  O   UNL     1      -6.985   0.420  64.652  0.00  0.00    -0.293 OA
ATOM     35  C   UNL     1      -9.162   1.459  64.863  0.00  0.00    +0.206 C 
ATOM     36  C   UNL     1      -8.128   2.832  64.705  0.00  0.00    +0.204 C 
ATOM     37  O   UNL     1      -7.841   2.823  66.189  0.00  0.00    -0.216 OA
ATOM     38  C   UNL     1      -9.360   3.851  64.854  0.00  0.00    -0.015 C 
ATOM     39  C   UNL     1     -10.560   3.563  64.005  0.00  0.00    +0.029 C 
ATOM     40  C   UNL     1      -9.393   4.799  65.660  0.00  0.00    -0.025 C 
ATOM     41  C   UNL     1      -8.096   5.505  66.279  0.00  0.00    +0.079 C 
ATOM     42  C   UNL     1      -7.400   5.786  64.822  0.00  0.00    +0.012 C 
ATOM     43  C   UNL     1      -8.804   6.949  66.330  0.00  0.00    +0.158 C 
ATOM     44  O   UNL     1      -9.375   7.338  65.349  0.00  0.00    -0.296 OA
ATOM     45  O   UNL     1      -6.115   6.351  72.836  0.00  0.00    -0.187 OA
ATOM     46  C   UNL     1      -6.103   6.584  75.059  0.00  0.00    +0.062 C 
ATOM     47  C   UNL     1      -5.416   7.924  74.436  0.00  0.00    +0.006 C 
ATOM     48  C   UNL     1      -8.352   6.068  70.114  0.00  0.00    +0.031 C 
ATOM     49  C   UNL     1      -9.500   7.243  67.627  0.00  0.00    +0.108 C 
ENDROOT
BRANCH  35  50
ATOM     50  O   UNL     1      -9.015   1.122  63.399  0.00  0.00    -0.343 OA
ATOM     51  C   UNL     1     -10.126   0.276  63.239  0.00  0.00    +0.175 C 
ENDBRANCH  35  50
BRANCH   1  52
ATOM     52  C   UNL     1      -8.259   9.214  67.555  0.00  0.00    +0.041 C 
ATOM     53  C   UNL     1      -6.682   9.455  67.827  0.00  0.00    +0.004 C 
BRANCH  52  54
ATOM     54  C   UNL     1      -8.740  10.350  68.607  0.00  0.00    +0.004 C 
BRANCH  54  59
ATOM     55  C   UNL     1     -11.633  10.977  67.941  0.00  0.00    +0.142 C 
ATOM     56  C   UNL     1     -11.991  12.631  67.558  0.00  0.00    +0.142 C 
ATOM     57  C   UNL     1     -10.478  13.193  67.407  0.00  0.00    +0.032 C 
ATOM     58  C   UNL     1      -9.549  12.667  68.358  0.00  0.00    +0.003 C 
ATOM     59  C   UNL     1      -8.990  11.451  67.414  0.00  0.00    +0.003 C 
ATOM     60  C   UNL     1     -10.373  10.796  66.957  0.00  0.00    +0.032 C 
BRANCH  55  62
ATOM     61  C   UNL     1     -11.607  10.943  70.099  0.00  0.00    +0.174 C 
ATOM     62  O   UNL     1     -10.967  11.260  69.270  0.00  0.00    -0.351 OA
ENDBRANCH  55  62
BRANCH  56  63
ATOM     63  O   UNL     1     -12.063  12.309  66.083  0.00  0.00    -0.351 OA
BRANCH  63  64
ATOM     64  C   UNL     1     -12.392  13.445  65.409  0.00  0.00    +0.178 C 
BRANCH  64  65
ATOM     65  C   UNL     1     -12.063  13.259  63.957  0.00  0.00    +0.214 C 
ATOM     66  O   UNL     1     -12.846  12.188  63.501  0.00  0.00    -0.218 OA
ENDBRANCH  64  65
ENDBRANCH  63  64
ENDBRANCH  56  63
ENDBRANCH  54  59
ENDBRANCH  52  54
ENDBRANCH   1  52
BRANCH  20  67
ATOM     67  O   UNL     1      -8.776   1.248  74.257  0.00  0.00    -0.349 OA
ATOM     68  C   UNL     1      -9.690   1.450  75.294  0.00  0.00    +0.174 C 
ENDBRANCH  20  67
TORSDOF 9
ENDMDL
MODEL 7
REMARK VINA RESULT:      -6.3      1.323      1.680
REMARK  Name = 
REMARK  9 active torsions:
REMARK  status: ('A' for Active; 'I' for Inactive)
REMARK    1  A    between atoms: O_2  and  C_3
REMARK    2  A    between atoms: C_5  and  C_6
REMARK    3  A    between atoms: C_6  and  C_7
REMARK    4  A    between atoms: C_7  and  C_9
REMARK    5  A    between atoms: C_20  and  O_21
REMARK    6  A    between atoms: C_37  and  O_38
REMARK    7  A    between atoms: C_64  and  O_65
REMARK    8  A    between atoms: O_65  and  C_66
REMARK    9  A    between atoms: C_66  and  C_67
REMARK                            x       y       z     vdW  Elec       q    Type
REMARK                         _______ _______ _______ _____ _____    ______ ____
ROOT
ATOM      1  C   UNL     1      -8.365   7.825  67.897  0.00  0.00    +0.176 C 
ATOM      2  O   UNL     1      -9.757   7.894  68.511  0.00  0.00    -0.451 OA
ATOM      3  C   UNL     1      -9.760   7.851  69.831  0.00  0.00    +0.335 C 
ATOM      4  O   UNL     1     -10.539   8.487  70.604  0.00  0.00    -0.248 OA
ATOM      5  C   UNL     1      -8.816   6.834  70.647  0.00  0.00    +0.175 C 
ATOM      6  N   UNL     1     -10.014   5.838  70.885  0.00  0.00    -0.265 N 
ATOM      7  C   UNL     1     -10.616   5.242  69.756  0.00  0.00    +0.094 C 
ATOM      8  C   UNL     1      -9.722   4.082  69.332  0.00  0.00    +0.022 C 
ATOM      9  C   UNL     1      -8.309   4.545  69.680  0.00  0.00    +0.004 C 
ATOM     10  C   UNL     1     -10.597   6.178  72.112  0.00  0.00    +0.289 C 
ATOM     11  O   UNL     1     -11.786   5.830  72.286  0.00  0.00    -0.267 OA
ATOM     12  C   UNL     1      -9.687   6.665  73.169  0.00  0.00    +0.279 C 
ATOM     13  O   UNL     1     -10.401   6.833  74.222  0.00  0.00    -0.281 OA
ATOM     14  C   UNL     1      -8.293   6.256  73.210  0.00  0.00    +0.279 C 
ATOM     15  O   UNL     1      -8.324   4.876  73.505  0.00  0.00    -0.329 OA
ATOM     16  C   UNL     1      -6.912   4.378  73.274  0.00  0.00    +0.121 C 
ATOM     17  C   UNL     1      -6.418   4.845  74.775  0.00  0.00    +0.030 C 
ATOM     18  C   UNL     1      -6.431   6.323  74.809  0.00  0.00    +0.008 C 
ATOM     19  C   UNL     1      -7.259   2.873  73.846  0.00  0.00    +0.063 C 
ATOM     20  C   UNL     1      -8.353   2.360  72.729  0.00  0.00    +0.136 C 
ATOM     21  C   UNL     1      -7.208   2.194  71.587  0.00  0.00    -0.017 C 
ATOM     22  C   UNL     1      -7.533   3.365  70.685  0.00  0.00    +0.029 C 
ATOM     23  C   UNL     1      -7.159   1.038  70.978  0.00  0.00    -0.006 C 
ATOM     24  C   UNL     1      -6.037   0.094  71.082  0.00  0.00    -0.001 C 
ATOM     25  C   UNL     1      -4.861   0.545  71.528  0.00  0.00    -0.000 C 
ATOM     26  C   UNL     1      -3.978   1.007  70.449  0.00  0.00    -0.005 C 
ATOM     27  C   UNL     1      -3.775   0.324  69.356  0.00  0.00    -0.026 C 
ATOM     28  C   UNL     1      -4.896   0.441  68.215  0.00  0.00    +0.022 C 
ATOM     29  C   UNL     1      -4.794   2.075  68.166  0.00  0.00    +0.005 C 
ATOM     30  C   UNL     1      -3.812   0.285  67.017  0.00  0.00    +0.012 C 
ATOM     31  C   UNL     1      -4.694  -0.043  65.686  0.00  0.00    +0.061 C 
ATOM     32  C   UNL     1      -6.168   0.349  66.278  0.00  0.00    +0.008 C 
ATOM     33  C   UNL     1      -4.432   1.421  65.081  0.00  0.00    +0.180 C 
ATOM     34  O   UNL     1      -3.341   1.708  64.761  0.00  0.00    -0.293 OA
ATOM     35  C   UNL     1      -5.693   1.921  64.225  0.00  0.00    +0.206 C 
ATOM     36  C   UNL     1      -5.216   3.572  64.389  0.00  0.00    +0.204 C 
ATOM     37  O   UNL     1      -5.425   3.514  65.884  0.00  0.00    -0.216 OA
ATOM     38  C   UNL     1      -6.708   4.092  64.106  0.00  0.00    -0.015 C 
ATOM     39  C   UNL     1      -7.399   3.500  62.915  0.00  0.00    +0.029 C 
ATOM     40  C   UNL     1      -7.325   4.889  64.837  0.00  0.00    -0.025 C 
ATOM     41  C   UNL     1      -6.624   5.928  65.834  0.00  0.00    +0.079 C 
ATOM     42  C   UNL     1      -5.653   6.571  64.681  0.00  0.00    +0.012 C 
ATOM     43  C   UNL     1      -7.774   7.033  65.622  0.00  0.00    +0.158 C 
ATOM     44  O   UNL     1      -8.107   7.300  64.501  0.00  0.00    -0.296 OA
ATOM     45  O   UNL     1      -7.233   6.744  72.660  0.00  0.00    -0.187 OA
ATOM     46  C   UNL     1      -8.001   6.746  74.759  0.00  0.00    +0.062 C 
ATOM     47  C   UNL     1      -7.673   8.295  74.371  0.00  0.00    +0.006 C 
ATOM     48  C   UNL     1      -8.251   5.989  69.361  0.00  0.00    +0.031 C 
ATOM     49  C   UNL     1      -8.897   6.944  66.612  0.00  0.00    +0.108 C 
ENDROOT
BRANCH  35  50
ATOM     50  O   UNL     1      -4.985   1.800  62.897  0.00  0.00    -0.343 OA
ATOM     51  C   UNL     1      -5.608   0.641  62.403  0.00  0.00    +0.175 C 
ENDBRANCH  35  50
BRANCH   1  52
ATOM     52  C   UNL     1      -8.476   9.216  66.914  0.00  0.00    +0.041 C 
ATOM     53  C   UNL     1      -6.918   9.592  67.138  0.00  0.00    +0.004 C 
BRANCH  52  54
ATOM     54  C   UNL     1      -9.016  10.270  68.021  0.00  0.00    +0.004 C 
BRANCH  54  59
ATOM     55  C   UNL     1     -11.377  11.864  66.975  0.00  0.00    +0.142 C 
ATOM     56  C   UNL     1     -11.168  13.585  66.903  0.00  0.00    +0.142 C 
ATOM     57  C   UNL     1      -9.571  13.661  67.166  0.00  0.00    +0.032 C 
ATOM     58  C   UNL     1      -9.081  12.733  68.136  0.00  0.00    +0.003 C 
ATOM     59  C   UNL     1      -8.659  11.561  67.072  0.00  0.00    +0.003 C 
ATOM     60  C   UNL     1     -10.012  11.450  66.231  0.00  0.00    +0.032 C 
BRANCH  55  62
ATOM     61  C   UNL     1     -11.853  11.338  69.014  0.00  0.00    +0.174 C 
ATOM     62  O   UNL     1     -11.006  11.718  68.435  0.00  0.00    -0.351 OA
ENDBRANCH  55  62
BRANCH  56  63
ATOM     63  O   UNL     1     -10.962  13.530  65.406  0.00  0.00    -0.351 OA
BRANCH  63  64
ATOM     64  C   UNL     1     -10.555  14.757  64.981  0.00  0.00    +0.178 C 
BRANCH  64  65
ATOM     65  C   UNL     1     -11.740  15.499  64.438  0.00  0.00    +0.214 C 
ATOM     66  O   UNL     1     -11.322  16.820  64.216  0.00  0.00    -0.218 OA
ENDBRANCH  64  65
ENDBRANCH  63  64
ENDBRANCH  56  63
ENDBRANCH  54  59
ENDBRANCH  52  54
ENDBRANCH   1  52
BRANCH  20  67
ATOM     67  O   UNL     1      -8.224   0.928  73.227  0.00  0.00    -0.349 OA
ATOM     68  C   UNL     1      -8.087   1.070  74.610  0.00  0.00    +0.174 C 
ENDBRANCH  20  67
TORSDOF 9
ENDMDL
MODEL 8
REMARK VINA RESULT:      -6.2      2.043      7.407
REMARK  Name = 
REMARK  9 active torsions:
REMARK  status: ('A' for Active; 'I' for Inactive)
REMARK    1  A    between atoms: O_2  and  C_3
REMARK    2  A    between atoms: C_5  and  C_6
REMARK    3  A    between atoms: C_6  and  C_7
REMARK    4  A    between atoms: C_7  and  C_9
REMARK    5  A    between atoms: C_20  and  O_21
REMARK    6  A    between atoms: C_37  and  O_38
REMARK    7  A    between atoms: C_64  and  O_65
REMARK    8  A    between atoms: O_65  and  C_66
REMARK    9  A    between atoms: C_66  and  C_67
REMARK                            x       y       z     vdW  Elec       q    Type
REMARK                         _______ _______ _______ _____ _____    ______ ____
ROOT
ATOM      1  C   UNL     1      -9.115   8.852  68.126  0.00  0.00    +0.176 C 
ATOM      2  O   UNL     1      -7.788   9.393  67.609  0.00  0.00    -0.451 OA
ATOM      3  C   UNL     1      -7.419   8.879  66.450  0.00  0.00    +0.335 C 
ATOM      4  O   UNL     1      -6.825   9.490  65.510  0.00  0.00    -0.248 OA
ATOM      5  C   UNL     1      -7.566   7.307  66.135  0.00  0.00    +0.175 C 
ATOM      6  N   UNL     1      -6.037   7.057  66.423  0.00  0.00    -0.265 N 
ATOM      7  C   UNL     1      -5.556   7.313  67.725  0.00  0.00    +0.094 C 
ATOM      8  C   UNL     1      -5.925   6.108  68.584  0.00  0.00    +0.022 C 
ATOM      9  C   UNL     1      -7.250   5.619  68.002  0.00  0.00    +0.004 C 
ATOM     10  C   UNL     1      -5.362   7.172  65.201  0.00  0.00    +0.289 C 
ATOM     11  O   UNL     1      -4.142   7.444  65.255  0.00  0.00    -0.267 OA
ATOM     12  C   UNL     1      -6.079   6.699  63.998  0.00  0.00    +0.279 C 
ATOM     13  O   UNL     1      -5.261   6.811  63.015  0.00  0.00    -0.281 OA
ATOM     14  C   UNL     1      -7.084   5.654  64.083  0.00  0.00    +0.279 C 
ATOM     15  O   UNL     1      -6.373   4.488  64.439  0.00  0.00    -0.329 OA
ATOM     16  C   UNL     1      -7.427   3.463  64.805  0.00  0.00    +0.121 C 
ATOM     17  C   UNL     1      -7.661   3.027  63.233  0.00  0.00    +0.030 C 
ATOM     18  C   UNL     1      -8.291   4.171  62.542  0.00  0.00    +0.008 C 
ATOM     19  C   UNL     1      -6.317   2.261  64.985  0.00  0.00    +0.063 C 
ATOM     20  C   UNL     1      -5.446   2.828  66.262  0.00  0.00    +0.136 C 
ATOM     21  C   UNL     1      -6.658   2.531  67.304  0.00  0.00    -0.017 C 
ATOM     22  C   UNL     1      -7.132   3.938  67.599  0.00  0.00    +0.029 C 
ATOM     23  C   UNL     1      -6.353   1.829  68.364  0.00  0.00    -0.006 C 
ATOM     24  C   UNL     1      -6.873   0.482  68.644  0.00  0.00    -0.001 C 
ATOM     25  C   UNL     1      -7.963   0.070  67.991  0.00  0.00    -0.000 C 
ATOM     26  C   UNL     1      -9.209   0.373  68.707  0.00  0.00    -0.005 C 
ATOM     27  C   UNL     1      -9.371   0.137  69.980  0.00  0.00    -0.026 C 
ATOM     28  C   UNL     1      -8.762   1.217  70.997  0.00  0.00    +0.022 C 
ATOM     29  C   UNL     1      -9.581   2.455  70.304  0.00  0.00    +0.005 C 
ATOM     30  C   UNL     1      -9.940   0.980  72.088  0.00  0.00    +0.012 C 
ATOM     31  C   UNL     1      -9.389   1.661  73.462  0.00  0.00    +0.061 C 
ATOM     32  C   UNL     1      -8.140   2.503  72.824  0.00  0.00    +0.008 C 
ATOM     33  C   UNL     1     -10.418   2.887  73.335  0.00  0.00    +0.180 C 
ATOM     34  O   UNL     1     -11.565   2.670  73.442  0.00  0.00    -0.293 OA
ATOM     35  C   UNL     1      -9.782   4.233  73.931  0.00  0.00    +0.206 C 
ATOM     36  C   UNL     1     -10.873   5.214  73.023  0.00  0.00    +0.204 C 
ATOM     37  O   UNL     1     -10.274   4.730  71.723  0.00  0.00    -0.216 OA
ATOM     38  C   UNL     1      -9.896   6.485  73.110  0.00  0.00    -0.015 C 
ATOM     39  C   UNL     1      -9.357   6.811  74.469  0.00  0.00    +0.029 C 
ATOM     40  C   UNL     1      -9.524   7.153  72.127  0.00  0.00    -0.025 C 
ATOM     41  C   UNL     1     -10.319   7.240  70.740  0.00  0.00    +0.079 C 
ATOM     42  C   UNL     1     -11.740   7.665  71.438  0.00  0.00    +0.012 C 
ATOM     43  C   UNL     1      -9.874   8.764  70.485  0.00  0.00    +0.158 C 
ATOM     44  O   UNL     1     -10.001   9.552  71.382  0.00  0.00    -0.296 OA
ATOM     45  O   UNL     1      -8.355   5.693  64.307  0.00  0.00    -0.187 OA
ATOM     46  C   UNL     1      -7.142   5.321  62.467  0.00  0.00    +0.062 C 
ATOM     47  C   UNL     1      -8.207   6.500  62.105  0.00  0.00    +0.006 C 
ATOM     48  C   UNL     1      -8.019   6.831  67.637  0.00  0.00    +0.031 C 
ATOM     49  C   UNL     1      -8.609   8.907  69.691  0.00  0.00    +0.108 C 
ENDROOT
BRANCH  35  50
ATOM     50  O   UNL     1     -10.686   4.262  75.139  0.00  0.00    -0.343 OA
ATOM     51  C   UNL     1      -9.771   3.862  76.128  0.00  0.00    +0.175 C 
ENDBRANCH  35  50
BRANCH   1  52
ATOM     52  C   UNL     1      -9.890  10.351  68.385  0.00  0.00    +0.041 C 
ATOM     53  C   UNL     1     -11.212   9.893  67.570  0.00  0.00    +0.004 C 
BRANCH  52  54
ATOM     54  C   UNL     1      -9.263  11.182  67.142  0.00  0.00    +0.004 C 
BRANCH  54  59
ATOM     55  C   UNL     1      -8.754  13.904  68.383  0.00  0.00    +0.142 C 
ATOM     56  C   UNL     1      -9.483  15.260  67.582  0.00  0.00    +0.142 C 
ATOM     57  C   UNL     1     -10.469  14.462  66.572  0.00  0.00    +0.032 C 
ATOM     58  C   UNL     1      -9.909  13.274  66.007  0.00  0.00    +0.003 C 
ATOM     59  C   UNL     1     -10.520  12.238  67.120  0.00  0.00    +0.003 C 
ATOM     60  C   UNL     1     -10.063  12.972  68.462  0.00  0.00    +0.032 C 
BRANCH  55  62
ATOM     61  C   UNL     1      -6.976  13.227  67.363  0.00  0.00    +0.174 C 
ATOM     62  O   UNL     1      -8.044  13.359  67.163  0.00  0.00    -0.351 OA
ENDBRANCH  55  62
BRANCH  56  63
ATOM     63  O   UNL     1     -10.563  15.344  68.636  0.00  0.00    -0.351 OA
BRANCH  63  64
ATOM     64  C   UNL     1     -11.190  16.546  68.516  0.00  0.00    +0.178 C 
BRANCH  64  65
ATOM     65  C   UNL     1     -10.155  17.619  68.349  0.00  0.00    +0.214 C 
ATOM     66  O   UNL     1     -10.810  18.727  67.790  0.00  0.00    -0.218 OA
ENDBRANCH  64  65
ENDBRANCH  63  64
ENDBRANCH  56  63
ENDBRANCH  54  59
ENDBRANCH  52  54
ENDBRANCH   1  52
BRANCH  20  67
ATOM     67  O   UNL     1      -4.796   1.466  66.453  0.00  0.00    -0.349 OA
ATOM     68  C   UNL     1      -4.582   1.016  65.148  0.00  0.00    +0.174 C 
ENDBRANCH  20  67
TORSDOF 9
ENDMDL
MODEL 9
REMARK VINA RESULT:      -6.1      2.721      8.282
REMARK  Name = 
REMARK  9 active torsions:
REMARK  status: ('A' for Active; 'I' for Inactive)
REMARK    1  A    between atoms: O_2  and  C_3
REMARK    2  A    between atoms: C_5  and  C_6
REMARK    3  A    between atoms: C_6  and  C_7
REMARK    4  A    between atoms: C_7  and  C_9
REMARK    5  A    between atoms: C_20  and  O_21
REMARK    6  A    between atoms: C_37  and  O_38
REMARK    7  A    between atoms: C_64  and  O_65
REMARK    8  A    between atoms: O_65  and  C_66
REMARK    9  A    between atoms: C_66  and  C_67
REMARK                            x       y       z     vdW  Elec       q    Type
REMARK                         _______ _______ _______ _____ _____    ______ ____
ROOT
ATOM      1  C   UNL     1      -8.032   5.603  67.847  0.00  0.00    +0.176 C 
ATOM      2  O   UNL     1      -6.981   6.605  68.305  0.00  0.00    -0.451 OA
ATOM      3  C   UNL     1      -7.350   7.865  68.165  0.00  0.00    +0.335 C 
ATOM      4  O   UNL     1      -7.079   8.821  68.954  0.00  0.00    -0.248 OA
ATOM      5  C   UNL     1      -8.108   8.385  66.844  0.00  0.00    +0.175 C 
ATOM      6  N   UNL     1      -6.778   8.996  66.262  0.00  0.00    -0.265 N 
ATOM      7  C   UNL     1      -5.713   8.115  65.973  0.00  0.00    +0.094 C 
ATOM      8  C   UNL     1      -6.019   7.470  64.625  0.00  0.00    +0.022 C 
ATOM      9  C   UNL     1      -7.543   7.366  64.591  0.00  0.00    +0.004 C 
ATOM     10  C   UNL     1      -6.721  10.332  66.675  0.00  0.00    +0.289 C 
ATOM     11  O   UNL     1      -5.589  10.864  66.707  0.00  0.00    -0.267 OA
ATOM     12  C   UNL     1      -8.007  11.055  66.769  0.00  0.00    +0.279 C 
ATOM     13  O   UNL     1      -7.725  12.270  67.073  0.00  0.00    -0.281 OA
ATOM     14  C   UNL     1      -9.140  10.685  65.939  0.00  0.00    +0.279 C 
ATOM     15  O   UNL     1      -8.753  11.009  64.621  0.00  0.00    -0.329 OA
ATOM     16  C   UNL     1      -9.795  10.377  63.722  0.00  0.00    +0.121 C 
ATOM     17  C   UNL     1     -10.830  11.648  63.895  0.00  0.00    +0.030 C 
ATOM     18  C   UNL     1     -11.306  11.648  65.294  0.00  0.00    +0.008 C 
ATOM     19  C   UNL     1      -9.163  11.062  62.365  0.00  0.00    +0.063 C 
ATOM     20  C   UNL     1      -7.686  10.339  62.308  0.00  0.00    +0.136 C 
ATOM     21  C   UNL     1      -8.330   8.910  61.876  0.00  0.00    -0.017 C 
ATOM     22  C   UNL     1      -8.153   8.119  63.155  0.00  0.00    +0.029 C 
ATOM     23  C   UNL     1      -7.823   8.342  60.814  0.00  0.00    -0.006 C 
ATOM     24  C   UNL     1      -8.558   8.127  59.558  0.00  0.00    -0.001 C 
ATOM     25  C   UNL     1      -9.892   8.188  59.581  0.00  0.00    -0.000 C 
ATOM     26  C   UNL     1     -10.522   6.883  59.821  0.00  0.00    -0.005 C 
ATOM     27  C   UNL     1     -10.164   5.796  59.194  0.00  0.00    -0.026 C 
ATOM     28  C   UNL     1      -8.860   5.043  59.743  0.00  0.00    +0.022 C 
ATOM     29  C   UNL     1      -9.465   4.925  61.261  0.00  0.00    +0.005 C 
ATOM     30  C   UNL     1      -9.435   3.578  59.345  0.00  0.00    +0.012 C 
ATOM     31  C   UNL     1      -8.146   2.582  59.413  0.00  0.00    +0.061 C 
ATOM     32  C   UNL     1      -7.119   3.580  60.204  0.00  0.00    +0.008 C 
ATOM     33  C   UNL     1      -8.679   1.891  60.760  0.00  0.00    +0.180 C 
ATOM     34  O   UNL     1      -9.660   1.251  60.712  0.00  0.00    -0.293 OA
ATOM     35  C   UNL     1      -7.456   1.442  61.696  0.00  0.00    +0.206 C 
ATOM     36  C   UNL     1      -8.466   1.415  63.094  0.00  0.00    +0.204 C 
ATOM     37  O   UNL     1      -8.697   2.905  62.993  0.00  0.00    -0.216 OA
ATOM     38  C   UNL     1      -7.209   1.580  64.078  0.00  0.00    -0.015 C 
ATOM     39  C   UNL     1      -6.048   0.667  63.826  0.00  0.00    +0.029 C 
ATOM     40  C   UNL     1      -7.125   2.444  64.972  0.00  0.00    -0.025 C 
ATOM     41  C   UNL     1      -8.383   3.159  65.658  0.00  0.00    +0.079 C 
ATOM     42  C   UNL     1      -9.128   1.752  66.047  0.00  0.00    +0.012 C 
ATOM     43  C   UNL     1      -7.643   3.276  67.082  0.00  0.00    +0.158 C 
ATOM     44  O   UNL     1      -7.102   2.300  67.525  0.00  0.00    -0.296 OA
ATOM     45  O   UNL     1     -10.093   9.830  66.108  0.00  0.00    -0.187 OA
ATOM     46  C   UNL     1     -10.015  12.062  66.194  0.00  0.00    +0.062 C 
ATOM     47  C   UNL     1     -10.697  11.556  67.585  0.00  0.00    +0.006 C 
ATOM     48  C   UNL     1      -7.968   7.009  65.964  0.00  0.00    +0.031 C 
ATOM     49  C   UNL     1      -6.893   4.559  67.278  0.00  0.00    +0.108 C 
ENDROOT
BRANCH  35  50
ATOM     50  O   UNL     1      -7.666  -0.034  61.458  0.00  0.00    -0.343 OA
ATOM     51  C   UNL     1      -6.586  -0.290  60.596  0.00  0.00    +0.175 C 
ENDBRANCH  35  50
BRANCH   1  52
ATOM     52  C   UNL     1      -8.094   4.665  69.272  0.00  0.00    +0.041 C 
ATOM     53  C   UNL     1      -9.637   4.247  69.019  0.00  0.00    +0.004 C 
BRANCH  52  54
ATOM     54  C   UNL     1      -8.457   5.836  70.333  0.00  0.00    +0.004 C 
BRANCH  54  59
ATOM     55  C   UNL     1     -10.313   7.142  72.348  0.00  0.00    +0.142 C 
ATOM     56  C   UNL     1     -11.717   7.927  71.699  0.00  0.00    +0.142 C 
ATOM     57  C   UNL     1     -11.646   7.368  70.180  0.00  0.00    +0.032 C 
ATOM     58  C   UNL     1     -10.326   7.286  69.636  0.00  0.00    +0.003 C 
ATOM     59  C   UNL     1     -10.065   5.717  70.025  0.00  0.00    +0.003 C 
ATOM     60  C   UNL     1     -10.469   5.743  71.569  0.00  0.00    +0.032 C 
BRANCH  55  62
ATOM     61  C   UNL     1      -8.602   8.437  72.112  0.00  0.00    +0.174 C 
ATOM     62  O   UNL     1      -9.307   7.878  71.489  0.00  0.00    -0.351 OA
ENDBRANCH  55  62
BRANCH  56  63
ATOM     63  O   UNL     1     -12.599   6.775  72.126  0.00  0.00    -0.351 OA
BRANCH  63  64
ATOM     64  C   UNL     1     -13.835   6.955  71.585  0.00  0.00    +0.178 C 
BRANCH  64  65
ATOM     65  C   UNL     1     -14.418   8.229  72.121  0.00  0.00    +0.214 C 
ATOM     66  O   UNL     1     -15.812   8.064  72.125  0.00  0.00    -0.218 OA
ENDBRANCH  64  65
ENDBRANCH  63  64
ENDBRANCH  56  63
ENDBRANCH  54  59
ENDBRANCH  52  54
ENDBRANCH   1  52
BRANCH  20  67
ATOM     67  O   UNL     1      -7.485  10.810  60.875  0.00  0.00    -0.349 OA
ATOM     68  C   UNL     1      -6.437  11.728  60.974  0.00  0.00    +0.174 C 
ENDBRANCH  20  67
TORSDOF 9
ENDMDL
