MODEL 1
REMARK VINA RESULT:      -6.4      0.000      0.000
REMARK  Name = 
REMARK  5 active torsions:
REMARK  status: ('A' for Active; 'I' for Inactive)
REMARK    1  A    between atoms: C_8  and  O_9
REMARK    2  A    between atoms: O_9  and  C_10
REMARK    3  A    between atoms: C_10  and  C_12
REMARK    4  A    between atoms: C_12  and  C_13
REMARK    5  A    between atoms: C_12  and  C_15
REMARK                            x       y       z     vdW  Elec       q    Type
REMARK                         _______ _______ _______ _____ _____    ______ ____
ROOT
ATOM      1  C   UNL     1     -10.730  15.359  65.065  0.00  0.00    +0.323 C 
ATOM      2  O   UNL     1     -10.990  16.359  64.409  0.00  0.00    -0.250 OA
ENDROOT
BRANCH   1   3
ATOM      3  O   UNL     1     -10.053  15.834  66.218  0.00  0.00    -0.452 OA
BRANCH   3   8
ATOM      4  C   UNL     1     -10.239  19.912  66.448  0.00  0.00    +0.090 C 
ATOM      5  N   UNL     1      -9.981  19.509  66.756  0.00  0.00    -0.274 NA
ATOM      6  C   UNL     1      -8.533  19.203  66.278  0.00  0.00    +0.061 C 
ATOM      7  C   UNL     1      -8.614  17.562  66.471  0.00  0.00    +0.060 C 
ATOM      8  C   UNL     1     -10.231  17.352  66.208  0.00  0.00    +0.172 C 
ATOM      9  C   UNL     1     -10.532  17.393  67.821  0.00  0.00    +0.060 C 
ATOM     10  C   UNL     1      -7.877  19.545  67.744  0.00  0.00    +0.017 C 
ATOM     11  C   UNL     1      -8.523  18.515  68.448  0.00  0.00    +0.017 C 
ATOM     12  C   UNL     1     -10.085  18.941  68.208  0.00  0.00    +0.061 C 
ENDBRANCH   3   8
ENDBRANCH   1   3
BRANCH   1  13
ATOM     13  C   UNL     1     -12.014  14.511  65.596  0.00  0.00    +0.154 C 
BRANCH  13  14
ATOM     14  C   UNL     1     -11.154  13.440  66.455  0.00  0.00    -0.009 A 
ATOM     15  C   UNL     1     -10.641  12.408  65.711  0.00  0.00    -0.004 A 
ATOM     16  C   UNL     1     -10.108  11.355  66.453  0.00  0.00    -0.000 A 
ATOM     17  C   UNL     1     -10.890  10.920  67.507  0.00  0.00    -0.000 A 
ATOM     18  C   UNL     1     -11.605  11.876  68.186  0.00  0.00    -0.000 A 
ATOM     19  C   UNL     1     -11.785  13.133  67.630  0.00  0.00    -0.004 A 
ENDBRANCH  13  14
BRANCH  13  20
ATOM     20  C   UNL     1     -12.022  13.670  64.233  0.00  0.00    +0.198 C 
ATOM     21  O   UNL     1     -12.682  13.702  63.219  0.00  0.00    -0.219 OA
ENDBRANCH  13  20
ENDBRANCH   1  13
TORSDOF 5
ENDMDL
MODEL 2
REMARK VINA RESULT:      -6.4      2.992      4.295
REMARK  Name = 
REMARK  5 active torsions:
REMARK  status: ('A' for Active; 'I' for Inactive)
REMARK    1  A    between atoms: C_8  and  O_9
REMARK    2  A    between atoms: O_9  and  C_10
REMARK    3  A    between atoms: C_10  and  C_12
REMARK    4  A    between atoms: C_12  and  C_13
REMARK    5  A    between atoms: C_12  and  C_15
REMARK                            x       y       z     vdW  Elec       q    Type
REMARK                         _______ _______ _______ _____ _____    ______ ____
ROOT
ATOM      1  C   UNL     1     -10.480  14.710  68.838  0.00  0.00    +0.323 C 
ATOM      2  O   UNL     1      -9.707  13.798  68.575  0.00  0.00    -0.250 OA
ENDROOT
BRANCH   1   3
ATOM      3  O   UNL     1     -10.445  15.567  67.707  0.00  0.00    -0.452 OA
BRANCH   3   8
ATOM      4  C   UNL     1      -7.864  18.668  68.368  0.00  0.00    +0.090 C 
ATOM      5  N   UNL     1      -8.312  18.591  68.026  0.00  0.00    -0.274 NA
ATOM      6  C   UNL     1      -9.656  19.050  68.660  0.00  0.00    +0.061 C 
ATOM      7  C   UNL     1     -10.569  17.793  68.094  0.00  0.00    +0.060 C 
ATOM      8  C   UNL     1      -9.397  16.633  68.026  0.00  0.00    +0.172 C 
ATOM      9  C   UNL     1      -9.133  16.944  66.437  0.00  0.00    +0.060 C 
ATOM     10  C   UNL     1      -9.980  20.100  67.439  0.00  0.00    +0.017 C 
ATOM     11  C   UNL     1     -10.077  19.134  66.424  0.00  0.00    +0.017 C 
ATOM     12  C   UNL     1      -8.569  18.501  66.488  0.00  0.00    +0.061 C 
ENDBRANCH   3   8
ENDBRANCH   1   3
BRANCH   1  13
ATOM     13  C   UNL     1     -12.036  14.279  69.047  0.00  0.00    +0.154 C 
BRANCH  13  14
ATOM     14  C   UNL     1     -12.011  14.370  70.664  0.00  0.00    -0.009 A 
ATOM     15  C   UNL     1     -13.134  13.870  71.270  0.00  0.00    -0.004 A 
ATOM     16  C   UNL     1     -13.244  14.152  72.631  0.00  0.00    -0.000 A 
ATOM     17  C   UNL     1     -12.981  15.462  72.985  0.00  0.00    -0.000 A 
ATOM     18  C   UNL     1     -11.996  16.111  72.281  0.00  0.00    -0.000 A 
ATOM     19  C   UNL     1     -11.543  15.587  71.080  0.00  0.00    -0.004 A 
ENDBRANCH  13  14
BRANCH  13  20
ATOM     20  C   UNL     1     -11.620  12.735  68.955  0.00  0.00    +0.198 C 
ATOM     21  O   UNL     1     -12.121  11.748  68.467  0.00  0.00    -0.219 OA
ENDBRANCH  13  20
ENDBRANCH   1  13
TORSDOF 5
ENDMDL
MODEL 3
REMARK VINA RESULT:      -6.2      1.329      1.963
REMARK  Name = 
REMARK  5 active torsions:
REMARK  status: ('A' for Active; 'I' for Inactive)
REMARK    1  A    between atoms: C_8  and  O_9
REMARK    2  A    between atoms: O_9  and  C_10
REMARK    3  A    between atoms: C_10  and  C_12
REMARK    4  A    between atoms: C_12  and  C_13
REMARK    5  A    between atoms: C_12  and  C_15
REMARK                            x       y       z     vdW  Elec       q    Type
REMARK                         _______ _______ _______ _____ _____    ______ ____
ROOT
ATOM      1  C   UNL     1     -10.604  14.521  65.778  0.00  0.00    +0.323 C 
ATOM      2  O   UNL     1     -10.366  13.947  64.724  0.00  0.00    -0.250 OA
ENDROOT
BRANCH   1   3
ATOM      3  O   UNL     1     -10.607  15.903  65.458  0.00  0.00    -0.452 OA
BRANCH   3   8
ATOM      4  C   UNL     1      -9.904  18.140  68.807  0.00  0.00    +0.090 C 
ATOM      5  N   UNL     1      -9.703  18.149  68.275  0.00  0.00    -0.274 NA
ATOM      6  C   UNL     1     -10.503  19.089  67.329  0.00  0.00    +0.061 C 
ATOM      7  C   UNL     1     -10.475  18.094  66.009  0.00  0.00    +0.060 C 
ATOM      8  C   UNL     1     -10.415  16.637  66.784  0.00  0.00    +0.172 C 
ATOM      9  C   UNL     1      -8.781  16.595  66.648  0.00  0.00    +0.060 C 
ATOM     10  C   UNL     1      -9.178  19.977  66.939  0.00  0.00    +0.017 C 
ATOM     11  C   UNL     1      -8.470  18.936  66.317  0.00  0.00    +0.017 C 
ATOM     12  C   UNL     1      -8.331  17.895  67.572  0.00  0.00    +0.061 C 
ENDBRANCH   3   8
ENDBRANCH   1   3
BRANCH   1  13
ATOM     13  C   UNL     1     -12.050  14.195  66.449  0.00  0.00    +0.154 C 
BRANCH  13  14
ATOM     14  C   UNL     1     -11.462  13.327  67.684  0.00  0.00    -0.009 A 
ATOM     15  C   UNL     1     -11.578  11.970  67.520  0.00  0.00    -0.004 A 
ATOM     16  C   UNL     1     -11.305  11.214  68.659  0.00  0.00    -0.000 A 
ATOM     17  C   UNL     1     -11.895  11.667  69.824  0.00  0.00    -0.000 A 
ATOM     18  C   UNL     1     -12.003  13.027  69.978  0.00  0.00    -0.000 A 
ATOM     19  C   UNL     1     -11.838  13.864  68.885  0.00  0.00    -0.004 A 
ENDBRANCH  13  14
BRANCH  13  20
ATOM     20  C   UNL     1     -12.238  12.962  65.446  0.00  0.00    +0.198 C 
ATOM     21  O   UNL     1     -13.143  12.564  64.748  0.00  0.00    -0.219 OA
ENDBRANCH  13  20
ENDBRANCH   1  13
TORSDOF 5
ENDMDL
MODEL 4
REMARK VINA RESULT:      -5.9      5.087      8.647
REMARK  Name = 
REMARK  5 active torsions:
REMARK  status: ('A' for Active; 'I' for Inactive)
REMARK    1  A    between atoms: C_8  and  O_9
REMARK    2  A    between atoms: O_9  and  C_10
REMARK    3  A    between atoms: C_10  and  C_12
REMARK    4  A    between atoms: C_12  and  C_13
REMARK    5  A    between atoms: C_12  and  C_15
REMARK                            x       y       z     vdW  Elec       q    Type
REMARK                         _______ _______ _______ _____ _____    ______ ____
ROOT
ATOM      1  C   UNL     1     -11.701  11.499  69.391  0.00  0.00    +0.323 C 
ATOM      2  O   UNL     1     -12.133  11.042  68.340  0.00  0.00    -0.250 OA
ENDROOT
BRANCH   1   3
ATOM      3  O   UNL     1     -10.541  10.735  69.681  0.00  0.00    -0.452 OA
BRANCH   3   8
ATOM      4  C   UNL     1     -11.672   6.872  70.402  0.00  0.00    +0.090 C 
ATOM      5  N   UNL     1     -11.325   7.239  70.664  0.00  0.00    -0.274 NA
ATOM      6  C   UNL     1     -12.035   8.075  71.768  0.00  0.00    +0.061 C 
ATOM      7  C   UNL     1     -11.281   9.508  71.432  0.00  0.00    +0.060 C 
ATOM      8  C   UNL     1     -11.019   9.289  69.816  0.00  0.00    +0.172 C 
ATOM      9  C   UNL     1      -9.499   8.743  70.102  0.00  0.00    +0.060 C 
ATOM     10  C   UNL     1     -11.000   7.574  72.941  0.00  0.00    +0.017 C 
ATOM     11  C   UNL     1      -9.844   8.145  72.385  0.00  0.00    +0.017 C 
ATOM     12  C   UNL     1      -9.794   7.353  70.954  0.00  0.00    +0.061 C 
ENDBRANCH   3   8
ENDBRANCH   1   3
BRANCH   1  13
ATOM     13  C   UNL     1     -11.233  13.057  69.344  0.00  0.00    +0.154 C 
BRANCH  13  14
ATOM     14  C   UNL     1     -12.511  13.633  70.155  0.00  0.00    -0.009 A 
ATOM     15  C   UNL     1     -12.435  14.971  70.443  0.00  0.00    -0.004 A 
ATOM     16  C   UNL     1     -13.396  15.436  71.340  0.00  0.00    -0.000 A 
ATOM     17  C   UNL     1     -13.579  14.654  72.465  0.00  0.00    -0.000 A 
ATOM     18  C   UNL     1     -13.470  13.296  72.303  0.00  0.00    -0.000 A 
ATOM     19  C   UNL     1     -12.880  12.779  71.160  0.00  0.00    -0.004 A 
ENDBRANCH  13  14
BRANCH  13  20
ATOM     20  C   UNL     1     -11.874  13.206  67.884  0.00  0.00    +0.198 C 
ATOM     21  O   UNL     1     -12.182  14.142  67.183  0.00  0.00    -0.219 OA
ENDBRANCH  13  20
ENDBRANCH   1  13
TORSDOF 5
ENDMDL
MODEL 5
REMARK VINA RESULT:      -5.9      3.803      6.384
REMARK  Name = 
REMARK  5 active torsions:
REMARK  status: ('A' for Active; 'I' for Inactive)
REMARK    1  A    between atoms: C_8  and  O_9
REMARK    2  A    between atoms: O_9  and  C_10
REMARK    3  A    between atoms: C_10  and  C_12
REMARK    4  A    between atoms: C_12  and  C_13
REMARK    5  A    between atoms: C_12  and  C_15
REMARK                            x       y       z     vdW  Elec       q    Type
REMARK                         _______ _______ _______ _____ _____    ______ ____
ROOT
ATOM      1  C   UNL     1     -11.188  15.156  68.479  0.00  0.00    +0.323 C 
ATOM      2  O   UNL     1     -11.967  14.765  67.620  0.00  0.00    -0.250 OA
ENDROOT
BRANCH   1   3
ATOM      3  O   UNL     1     -11.309  14.227  69.545  0.00  0.00    -0.452 OA
BRANCH   3   8
ATOM      4  C   UNL     1     -14.740  15.007  71.627  0.00  0.00    +0.090 C 
ATOM      5  N   UNL     1     -14.215  14.846  71.774  0.00  0.00    -0.274 NA
ATOM      6  C   UNL     1     -13.273  16.041  72.097  0.00  0.00    +0.061 C 
ATOM      7  C   UNL     1     -11.926  15.421  71.366  0.00  0.00    +0.060 C 
ATOM      8  C   UNL     1     -12.661  14.516  70.196  0.00  0.00    +0.172 C 
ATOM      9  C   UNL     1     -12.572  13.172  71.133  0.00  0.00    +0.060 C 
ATOM     10  C   UNL     1     -12.948  15.495  73.612  0.00  0.00    +0.017 C 
ATOM     11  C   UNL     1     -12.317  14.304  73.217  0.00  0.00    +0.017 C 
ATOM     12  C   UNL     1     -13.545  13.585  72.409  0.00  0.00    +0.061 C 
ENDBRANCH   3   8
ENDBRANCH   1   3
BRANCH   1  13
ATOM     13  C   UNL     1      -9.618  15.174  68.052  0.00  0.00    +0.154 C 
BRANCH  13  14
ATOM     14  C   UNL     1      -9.290  16.620  68.704  0.00  0.00    -0.009 A 
ATOM     15  C   UNL     1     -10.139  17.620  68.303  0.00  0.00    -0.004 A 
ATOM     16  C   UNL     1      -9.738  18.908  68.654  0.00  0.00    -0.000 A 
ATOM     17  C   UNL     1      -8.410  19.201  68.408  0.00  0.00    -0.000 A 
ATOM     18  C   UNL     1      -7.505  18.185  68.591  0.00  0.00    -0.000 A 
ATOM     19  C   UNL     1      -7.945  16.873  68.687  0.00  0.00    -0.004 A 
ENDBRANCH  13  14
BRANCH  13  20
ATOM     20  C   UNL     1     -10.017  15.725  66.603  0.00  0.00    +0.198 C 
ATOM     21  O   UNL     1      -9.645  15.497  65.475  0.00  0.00    -0.219 OA
ENDBRANCH  13  20
ENDBRANCH   1  13
TORSDOF 5
ENDMDL
MODEL 6
REMARK VINA RESULT:      -5.8      1.816      2.819
REMARK  Name = 
REMARK  5 active torsions:
REMARK  status: ('A' for Active; 'I' for Inactive)
REMARK    1  A    between atoms: C_8  and  O_9
REMARK    2  A    between atoms: O_9  and  C_10
REMARK    3  A    between atoms: C_10  and  C_12
REMARK    4  A    between atoms: C_12  and  C_13
REMARK    5  A    between atoms: C_12  and  C_15
REMARK                            x       y       z     vdW  Elec       q    Type
REMARK                         _______ _______ _______ _____ _____    ______ ____
ROOT
ATOM      1  C   UNL     1     -11.087  14.431  67.815  0.00  0.00    +0.323 C 
ATOM      2  O   UNL     1     -11.815  14.311  68.792  0.00  0.00    -0.250 OA
ENDROOT
BRANCH   1   3
ATOM      3  O   UNL     1     -10.049  15.305  68.228  0.00  0.00    -0.452 OA
BRANCH   3   8
ATOM      4  C   UNL     1     -10.652  19.089  66.803  0.00  0.00    +0.090 C 
ATOM      5  N   UNL     1     -10.261  18.850  67.140  0.00  0.00    -0.274 NA
ATOM      6  C   UNL     1      -9.017  18.327  66.366  0.00  0.00    +0.061 C 
ATOM      7  C   UNL     1      -8.830  16.932  67.234  0.00  0.00    +0.060 C 
ATOM      8  C   UNL     1     -10.406  16.676  67.655  0.00  0.00    +0.172 C 
ATOM      9  C   UNL     1     -10.175  17.415  69.101  0.00  0.00    +0.060 C 
ATOM     10  C   UNL     1      -7.973  19.247  67.237  0.00  0.00    +0.017 C 
ATOM     11  C   UNL     1      -8.225  18.639  68.478  0.00  0.00    +0.017 C 
ATOM     12  C   UNL     1      -9.822  18.965  68.635  0.00  0.00    +0.061 C 
ENDBRANCH   3   8
ENDBRANCH   1   3
BRANCH   1  13
ATOM     13  C   UNL     1     -10.369  13.066  67.297  0.00  0.00    +0.154 C 
BRANCH  13  14
ATOM     14  C   UNL     1     -10.664  13.317  65.724  0.00  0.00    -0.009 A 
ATOM     15  C   UNL     1     -11.912  13.819  65.461  0.00  0.00    -0.004 A 
ATOM     16  C   UNL     1     -12.277  13.816  64.115  0.00  0.00    -0.000 A 
ATOM     17  C   UNL     1     -12.017  12.641  63.436  0.00  0.00    -0.000 A 
ATOM     18  C   UNL     1     -10.877  11.960  63.784  0.00  0.00    -0.000 A 
ATOM     19  C   UNL     1     -10.222  12.264  64.968  0.00  0.00    -0.004 A 
ENDBRANCH  13  14
BRANCH  13  20
ATOM     20  C   UNL     1     -11.713  12.246  67.594  0.00  0.00    +0.198 C 
ATOM     21  O   UNL     1     -11.970  11.082  67.800  0.00  0.00    -0.219 OA
ENDBRANCH  13  20
ENDBRANCH   1  13
TORSDOF 5
ENDMDL
MODEL 7
REMARK VINA RESULT:      -5.7      2.670      6.148
REMARK  Name = 
REMARK  5 active torsions:
REMARK  status: ('A' for Active; 'I' for Inactive)
REMARK    1  A    between atoms: C_8  and  O_9
REMARK    2  A    between atoms: O_9  and  C_10
REMARK    3  A    between atoms: C_10  and  C_12
REMARK    4  A    between atoms: C_12  and  C_13
REMARK    5  A    between atoms: C_12  and  C_15
REMARK                            x       y       z     vdW  Elec       q    Type
REMARK                         _______ _______ _______ _____ _____    ______ ____
ROOT
ATOM      1  C   UNL     1     -12.338  13.693  65.905  0.00  0.00    +0.323 C 
ATOM      2  O   UNL     1     -13.197  14.001  65.088  0.00  0.00    -0.250 OA
ENDROOT
BRANCH   1   3
ATOM      3  O   UNL     1     -12.083  12.316  65.676  0.00  0.00    -0.452 OA
BRANCH   3   8
ATOM      4  C   UNL     1      -8.216  11.358  66.598  0.00  0.00    +0.090 C 
ATOM      5  N   UNL     1      -8.689  11.055  66.509  0.00  0.00    -0.274 NA
ATOM      6  C   UNL     1      -8.867  10.612  65.028  0.00  0.00    +0.061 C 
ATOM      7  C   UNL     1     -10.498  10.873  64.949  0.00  0.00    +0.060 C 
ATOM      8  C   UNL     1     -10.617  12.098  66.050  0.00  0.00    +0.172 C 
ATOM      9  C   UNL     1     -11.008  11.037  67.239  0.00  0.00    +0.060 C 
ATOM     10  C   UNL     1      -8.938   9.018  65.417  0.00  0.00    +0.017 C 
ATOM     11  C   UNL     1     -10.114   9.095  66.181  0.00  0.00    +0.017 C 
ATOM     12  C   UNL     1      -9.626  10.131  67.351  0.00  0.00    +0.061 C 
ENDBRANCH   3   8
ENDBRANCH   1   3
BRANCH   1  13
ATOM     13  C   UNL     1     -10.913  14.463  65.754  0.00  0.00    +0.154 C 
BRANCH  13  14
ATOM     14  C   UNL     1     -11.155  15.490  66.983  0.00  0.00    -0.009 A 
ATOM     15  C   UNL     1     -10.064  16.263  67.290  0.00  0.00    -0.004 A 
ATOM     16  C   UNL     1     -10.165  16.974  68.485  0.00  0.00    -0.000 A 
ATOM     17  C   UNL     1     -10.631  16.250  69.566  0.00  0.00    -0.000 A 
ATOM     18  C   UNL     1     -11.590  15.302  69.311  0.00  0.00    -0.000 A 
ATOM     19  C   UNL     1     -11.818  14.877  68.011  0.00  0.00    -0.004 A 
ENDBRANCH  13  14
BRANCH  13  20
ATOM     20  C   UNL     1     -11.539  15.402  64.619  0.00  0.00    +0.198 C 
ATOM     21  O   UNL     1     -11.330  16.532  64.240  0.00  0.00    -0.219 OA
ENDBRANCH  13  20
ENDBRANCH   1  13
TORSDOF 5
ENDMDL
MODEL 8
REMARK VINA RESULT:      -5.7      3.718      5.158
REMARK  Name = 
REMARK  5 active torsions:
REMARK  status: ('A' for Active; 'I' for Inactive)
REMARK    1  A    between atoms: C_8  and  O_9
REMARK    2  A    between atoms: O_9  and  C_10
REMARK    3  A    between atoms: C_10  and  C_12
REMARK    4  A    between atoms: C_12  and  C_13
REMARK    5  A    between atoms: C_12  and  C_15
REMARK                            x       y       z     vdW  Elec       q    Type
REMARK                         _______ _______ _______ _____ _____    ______ ____
ROOT
ATOM      1  C   UNL     1     -11.205  14.549  68.224  0.00  0.00    +0.323 C 
ATOM      2  O   UNL     1     -11.704  15.653  68.050  0.00  0.00    -0.250 OA
ENDROOT
BRANCH   1   3
ATOM      3  O   UNL     1     -11.062  14.421  69.630  0.00  0.00    -0.452 OA
BRANCH   3   8
ATOM      4  C   UNL     1     -14.605  15.121  71.545  0.00  0.00    +0.090 C 
ATOM      5  N   UNL     1     -14.092  14.943  71.713  0.00  0.00    -0.274 NA
ATOM      6  C   UNL     1     -13.158  16.100  72.169  0.00  0.00    +0.061 C 
ATOM      7  C   UNL     1     -11.776  15.507  71.482  0.00  0.00    +0.060 C 
ATOM      8  C   UNL     1     -12.448  14.689  70.215  0.00  0.00    +0.172 C 
ATOM      9  C   UNL     1     -12.432  13.287  71.068  0.00  0.00    +0.060 C 
ATOM     10  C   UNL     1     -12.933  15.455  73.662  0.00  0.00    +0.017 C 
ATOM     11  C   UNL     1     -12.293  14.282  73.231  0.00  0.00    +0.017 C 
ATOM     12  C   UNL     1     -13.478  13.634  72.305  0.00  0.00    +0.061 C 
ENDBRANCH   3   8
ENDBRANCH   1   3
BRANCH   1  13
ATOM     13  C   UNL     1     -12.101  13.283  67.730  0.00  0.00    +0.154 C 
BRANCH  13  14
ATOM     14  C   UNL     1     -10.853  12.268  67.538  0.00  0.00    -0.009 A 
ATOM     15  C   UNL     1      -9.968  12.648  66.562  0.00  0.00    -0.004 A 
ATOM     16  C   UNL     1      -9.026  11.681  66.213  0.00  0.00    -0.000 A 
ATOM     17  C   UNL     1      -9.531  10.409  66.016  0.00  0.00    -0.000 A 
ATOM     18  C   UNL     1     -10.569  10.019  66.826  0.00  0.00    -0.000 A 
ATOM     19  C   UNL     1     -11.273  10.966  67.555  0.00  0.00    -0.004 A 
ENDBRANCH  13  14
BRANCH  13  20
ATOM     20  C   UNL     1     -12.087  13.856  66.235  0.00  0.00    +0.198 C 
ATOM     21  O   UNL     1     -12.921  13.990  65.368  0.00  0.00    -0.219 OA
ENDBRANCH  13  20
ENDBRANCH   1  13
TORSDOF 5
ENDMDL
MODEL 9
REMARK VINA RESULT:      -5.6      2.229      6.784
REMARK  Name = 
REMARK  5 active torsions:
REMARK  status: ('A' for Active; 'I' for Inactive)
REMARK    1  A    between atoms: C_8  and  O_9
REMARK    2  A    between atoms: O_9  and  C_10
REMARK    3  A    between atoms: C_10  and  C_12
REMARK    4  A    between atoms: C_12  and  C_13
REMARK    5  A    between atoms: C_12  and  C_15
REMARK                            x       y       z     vdW  Elec       q    Type
REMARK                         _______ _______ _______ _____ _____    ______ ____
ROOT
ATOM      1  C   UNL     1      -9.515  16.574  66.304  0.00  0.00    +0.323 C 
ATOM      2  O   UNL     1      -8.781  15.870  66.984  0.00  0.00    -0.250 OA
ENDROOT
BRANCH   1   3
ATOM      3  O   UNL     1     -10.699  15.814  66.123  0.00  0.00    -0.452 OA
BRANCH   3   8
ATOM      4  C   UNL     1      -9.814  11.850  65.652  0.00  0.00    +0.090 C 
ATOM      5  N   UNL     1     -10.282  12.164  65.574  0.00  0.00    -0.274 NA
ATOM      6  C   UNL     1     -10.420  12.716  64.127  0.00  0.00    +0.061 C 
ATOM      7  C   UNL     1     -10.981  14.213  64.549  0.00  0.00    +0.060 C 
ATOM      8  C   UNL     1     -10.246  14.358  66.021  0.00  0.00    +0.172 C 
ATOM      9  C   UNL     1     -11.593  13.816  66.784  0.00  0.00    +0.060 C 
ATOM     10  C   UNL     1     -11.884  12.009  63.898  0.00  0.00    +0.017 C 
ATOM     11  C   UNL     1     -12.562  12.727  64.896  0.00  0.00    +0.017 C 
ATOM     12  C   UNL     1     -11.705  12.265  66.212  0.00  0.00    +0.061 C 
ENDBRANCH   3   8
ENDBRANCH   1   3
BRANCH   1  13
ATOM     13  C   UNL     1      -9.965  17.984  66.981  0.00  0.00    +0.154 C 
BRANCH  13  14
ATOM     14  C   UNL     1      -8.461  18.512  67.268  0.00  0.00    -0.009 A 
ATOM     15  C   UNL     1      -8.280  19.033  68.523  0.00  0.00    -0.004 A 
ATOM     16  C   UNL     1      -7.075  19.708  68.712  0.00  0.00    -0.000 A 
ATOM     17  C   UNL     1      -6.731  20.594  67.709  0.00  0.00    -0.000 A 
ATOM     18  C   UNL     1      -7.063  20.239  66.425  0.00  0.00    -0.000 A 
ATOM     19  C   UNL     1      -7.979  19.222  66.201  0.00  0.00    -0.004 A 
ENDBRANCH  13  14
BRANCH  13  20
ATOM     20  C   UNL     1     -10.160  17.246  68.389  0.00  0.00    +0.198 C 
ATOM     21  O   UNL     1     -11.113  16.976  69.082  0.00  0.00    -0.219 OA
ENDBRANCH  13  20
ENDBRANCH   1  13
TORSDOF 5
ENDMDL
