MODEL 1
REMARK VINA RESULT:      -5.9      0.000      0.000
REMARK  Name = 
REMARK  5 active torsions:
REMARK  status: ('A' for Active; 'I' for Inactive)
REMARK    1  A    between atoms: N_2  and  C_4
REMARK    2  A    between atoms: C_4  and  C_5
REMARK    3  A    between atoms: C_5  and  C_6
REMARK    4  A    between atoms: C_6  and  C_7
REMARK    5  A    between atoms: C_6  and  C_14
REMARK                            x       y       z     vdW  Elec       q    Type
REMARK                         _______ _______ _______ _____ _____    ______ ____
ROOT
ATOM      1  C   UNL     1     -10.850  14.704  69.482  0.00  0.00    +0.064 C 
ENDROOT
BRANCH   1   2
ATOM      2  C   UNL     1     -11.340  13.825  68.221  0.00  0.00    -0.017 A 
ATOM      3  C   UNL     1     -10.407  12.865  67.843  0.00  0.00    -0.003 A 
ATOM      4  C   UNL     1     -10.493  12.356  66.552  0.00  0.00    +0.006 A 
ATOM      5  C   UNL     1     -11.558  12.685  65.736  0.00  0.00    +0.035 A 
ATOM      6 BR   UNL     1     -11.676  12.115  63.912  0.00  0.00    -0.049 Br
ATOM      7  C   UNL     1     -12.458  13.647  66.176  0.00  0.00    +0.006 A 
ATOM      8  C   UNL     1     -12.020  14.435  67.229  0.00  0.00    -0.003 A 
ENDBRANCH   1   2
BRANCH   1   9
ATOM      9  C   UNL     1     -12.078  14.256  70.415  0.00  0.00    +0.063 A 
ATOM     10  N   UNL     1     -12.378  13.007  70.619  0.00  0.00    -0.248 NA
ATOM     11  C   UNL     1     -13.130  12.711  71.709  0.00  0.00    +0.098 A 
ATOM     12  C   UNL     1     -13.720  13.738  72.438  0.00  0.00    +0.021 A 
ATOM     13  C   UNL     1     -13.896  14.913  71.714  0.00  0.00    +0.003 A 
ATOM     14  C   UNL     1     -13.052  15.200  70.644  0.00  0.00    +0.015 A 
ENDBRANCH   1   9
BRANCH   1  15
ATOM     15  C   UNL     1     -11.579  16.080  68.939  0.00  0.00    +0.028 C 
BRANCH  15  16
ATOM     16  C   UNL     1     -10.408  17.055  68.948  0.00  0.00    +0.073 C 
BRANCH  16  18
ATOM     17  C   UNL     1     -10.231  17.721  66.669  0.00  0.00    +0.090 C 
ATOM     18  N   UNL     1     -10.594  18.128  68.001  0.00  0.00    -0.270 NA
ATOM     19  C   UNL     1      -9.884  19.330  68.399  0.00  0.00    +0.090 C 
ENDBRANCH  16  18
ENDBRANCH  15  16
ENDBRANCH   1  15
TORSDOF 5
ENDMDL
MODEL 2
REMARK VINA RESULT:      -5.5      2.592      5.132
REMARK  Name = 
REMARK  5 active torsions:
REMARK  status: ('A' for Active; 'I' for Inactive)
REMARK    1  A    between atoms: N_2  and  C_4
REMARK    2  A    between atoms: C_4  and  C_5
REMARK    3  A    between atoms: C_5  and  C_6
REMARK    4  A    between atoms: C_6  and  C_7
REMARK    5  A    between atoms: C_6  and  C_14
REMARK                            x       y       z     vdW  Elec       q    Type
REMARK                         _______ _______ _______ _____ _____    ______ ____
ROOT
ATOM      1  C   UNL     1     -10.658  14.736  68.701  0.00  0.00    +0.064 C 
ENDROOT
BRANCH   1   2
ATOM      2  C   UNL     1     -10.158  15.924  67.731  0.00  0.00    -0.017 A 
ATOM      3  C   UNL     1      -8.956  15.627  67.097  0.00  0.00    -0.003 A 
ATOM      4  C   UNL     1      -8.209  16.691  66.601  0.00  0.00    +0.006 A 
ATOM      5  C   UNL     1      -8.723  17.973  66.607  0.00  0.00    +0.035 A 
ATOM      6 BR   UNL     1      -7.704  19.495  66.049  0.00  0.00    -0.049 Br
ATOM      7  C   UNL     1      -9.931  18.201  67.252  0.00  0.00    +0.006 A 
ATOM      8  C   UNL     1     -10.339  17.202  68.123  0.00  0.00    -0.003 A 
ENDBRANCH   1   2
BRANCH   1   9
ATOM      9  C   UNL     1     -11.339  13.900  67.512  0.00  0.00    +0.063 A 
ATOM     10  N   UNL     1     -12.296  14.388  66.778  0.00  0.00    -0.248 NA
ATOM     11  C   UNL     1     -12.521  13.807  65.572  0.00  0.00    +0.098 A 
ATOM     12  C   UNL     1     -11.885  12.612  65.253  0.00  0.00    +0.021 A 
ATOM     13  C   UNL     1     -11.476  11.879  66.362  0.00  0.00    +0.003 A 
ATOM     14  C   UNL     1     -11.194  12.533  67.560  0.00  0.00    +0.015 A 
ENDBRANCH   1   9
BRANCH   1  15
ATOM     15  C   UNL     1     -12.041  15.526  69.129  0.00  0.00    +0.028 C 
BRANCH  15  16
ATOM     16  C   UNL     1     -12.364  14.853  70.457  0.00  0.00    +0.073 C 
BRANCH  16  18
ATOM     17  C   UNL     1     -12.223  16.094  72.484  0.00  0.00    +0.090 C 
ATOM     18  N   UNL     1     -13.051  15.745  71.360  0.00  0.00    -0.270 NA
ATOM     19  C   UNL     1     -14.327  15.203  71.792  0.00  0.00    +0.090 C 
ENDBRANCH  16  18
ENDBRANCH  15  16
ENDBRANCH   1  15
TORSDOF 5
ENDMDL
MODEL 3
REMARK VINA RESULT:      -5.5      1.683      4.427
REMARK  Name = 
REMARK  5 active torsions:
REMARK  status: ('A' for Active; 'I' for Inactive)
REMARK    1  A    between atoms: N_2  and  C_4
REMARK    2  A    between atoms: C_4  and  C_5
REMARK    3  A    between atoms: C_5  and  C_6
REMARK    4  A    between atoms: C_6  and  C_7
REMARK    5  A    between atoms: C_6  and  C_14
REMARK                            x       y       z     vdW  Elec       q    Type
REMARK                         _______ _______ _______ _____ _____    ______ ____
ROOT
ATOM      1  C   UNL     1     -11.623  15.909  68.563  0.00  0.00    +0.064 C 
ENDROOT
BRANCH   1   2
ATOM      2  C   UNL     1     -11.253  14.794  67.458  0.00  0.00    -0.017 A 
ATOM      3  C   UNL     1     -10.861  15.352  66.245  0.00  0.00    -0.003 A 
ATOM      4  C   UNL     1     -10.939  14.551  65.111  0.00  0.00    +0.006 A 
ATOM      5  C   UNL     1     -11.250  13.209  65.219  0.00  0.00    +0.035 A 
ATOM      6 BR   UNL     1     -11.490  12.079  63.692  0.00  0.00    -0.049 Br
ATOM      7  C   UNL     1     -11.628  12.714  66.460  0.00  0.00    +0.006 A 
ATOM      8  C   UNL     1     -11.993  13.667  67.397  0.00  0.00    -0.003 A 
ENDBRANCH   1   2
BRANCH   1   9
ATOM      9  C   UNL     1     -10.103  16.388  68.753  0.00  0.00    +0.063 A 
ATOM     10  N   UNL     1      -9.213  15.655  69.356  0.00  0.00    -0.248 NA
ATOM     11  C   UNL     1      -7.906  15.929  69.114  0.00  0.00    +0.098 A 
ATOM     12  C   UNL     1      -7.560  17.082  68.418  0.00  0.00    +0.021 A 
ATOM     13  C   UNL     1      -8.528  18.080  68.468  0.00  0.00    +0.003 A 
ATOM     14  C   UNL     1      -9.867  17.739  68.652  0.00  0.00    +0.015 A 
ENDBRANCH   1   9
BRANCH   1  15
ATOM     15  C   UNL     1     -11.590  14.832  69.812  0.00  0.00    +0.028 C 
BRANCH  15  16
ATOM     16  C   UNL     1     -12.566  15.482  70.785  0.00  0.00    +0.073 C 
BRANCH  16  18
ATOM     17  C   UNL     1     -13.462  14.039  72.454  0.00  0.00    +0.090 C 
ATOM     18  N   UNL     1     -12.412  14.967  72.124  0.00  0.00    -0.270 NA
ATOM     19  C   UNL     1     -12.322  16.033  73.107  0.00  0.00    +0.090 C 
ENDBRANCH  16  18
ENDBRANCH  15  16
ENDBRANCH   1  15
TORSDOF 5
ENDMDL
MODEL 4
REMARK VINA RESULT:      -5.5      3.222      5.617
REMARK  Name = 
REMARK  5 active torsions:
REMARK  status: ('A' for Active; 'I' for Inactive)
REMARK    1  A    between atoms: N_2  and  C_4
REMARK    2  A    between atoms: C_4  and  C_5
REMARK    3  A    between atoms: C_5  and  C_6
REMARK    4  A    between atoms: C_6  and  C_7
REMARK    5  A    between atoms: C_6  and  C_14
REMARK                            x       y       z     vdW  Elec       q    Type
REMARK                         _______ _______ _______ _____ _____    ______ ____
ROOT
ATOM      1  C   UNL     1     -10.732  13.146  67.493  0.00  0.00    +0.064 C 
ENDROOT
BRANCH   1   2
ATOM      2  C   UNL     1     -11.176  13.798  68.900  0.00  0.00    -0.017 A 
ATOM      3  C   UNL     1     -11.725  12.864  69.773  0.00  0.00    -0.003 A 
ATOM      4  C   UNL     1     -12.528  13.340  70.805  0.00  0.00    +0.006 A 
ATOM      5  C   UNL     1     -12.644  14.697  71.036  0.00  0.00    +0.035 A 
ATOM      6 BR   UNL     1     -13.821  15.421  72.360  0.00  0.00    -0.049 Br
ATOM      7  C   UNL     1     -12.067  15.576  70.128  0.00  0.00    +0.006 A 
ATOM      8  C   UNL     1     -11.728  15.029  68.901  0.00  0.00    -0.003 A 
ENDBRANCH   1   2
BRANCH   1   9
ATOM      9  C   UNL     1      -9.490  14.143  67.294  0.00  0.00    +0.063 A 
ATOM     10  N   UNL     1      -9.342  14.864  66.221  0.00  0.00    -0.248 NA
ATOM     11  C   UNL     1      -8.534  15.951  66.302  0.00  0.00    +0.098 A 
ATOM     12  C   UNL     1      -7.743  16.140  67.430  0.00  0.00    +0.021 A 
ATOM     13  C   UNL     1      -7.483  14.970  68.137  0.00  0.00    +0.003 A 
ATOM     14  C   UNL     1      -8.381  13.907  68.072  0.00  0.00    +0.015 A 
ENDBRANCH   1   9
BRANCH   1  15
ATOM     15  C   UNL     1     -11.790  14.059  66.618  0.00  0.00    +0.028 C 
BRANCH  15  16
ATOM     16  C   UNL     1     -12.427  12.999  65.729  0.00  0.00    +0.073 C 
BRANCH  16  18
ATOM     17  C   UNL     1     -11.946  12.666  63.420  0.00  0.00    +0.090 C 
ATOM     18  N   UNL     1     -12.639  13.480  64.384  0.00  0.00    -0.270 NA
ATOM     19  C   UNL     1     -12.281  14.881  64.247  0.00  0.00    +0.090 C 
ENDBRANCH  16  18
ENDBRANCH  15  16
ENDBRANCH   1  15
TORSDOF 5
ENDMDL
MODEL 5
REMARK VINA RESULT:      -5.5      2.811      5.747
REMARK  Name = 
REMARK  5 active torsions:
REMARK  status: ('A' for Active; 'I' for Inactive)
REMARK    1  A    between atoms: N_2  and  C_4
REMARK    2  A    between atoms: C_4  and  C_5
REMARK    3  A    between atoms: C_5  and  C_6
REMARK    4  A    between atoms: C_6  and  C_7
REMARK    5  A    between atoms: C_6  and  C_14
REMARK                            x       y       z     vdW  Elec       q    Type
REMARK                         _______ _______ _______ _____ _____    ______ ____
ROOT
ATOM      1  C   UNL     1      -9.435  15.591  66.493  0.00  0.00    +0.064 C 
ENDROOT
BRANCH   1   2
ATOM      2  C   UNL     1     -10.109  15.376  67.943  0.00  0.00    -0.017 A 
ATOM      3  C   UNL     1     -10.133  14.039  68.328  0.00  0.00    -0.003 A 
ATOM      4  C   UNL     1     -11.046  13.668  69.310  0.00  0.00    +0.006 A 
ATOM      5  C   UNL     1     -11.787  14.624  69.978  0.00  0.00    +0.035 A 
ATOM      6 BR   UNL     1     -13.143  14.174  71.253  0.00  0.00    -0.049 Br
ATOM      7  C   UNL     1     -11.713  15.942  69.546  0.00  0.00    +0.006 A 
ATOM      8  C   UNL     1     -11.178  16.125  68.280  0.00  0.00    -0.003 A 
ENDBRANCH   1   2
BRANCH   1   9
ATOM      9  C   UNL     1      -9.484  17.193  66.583  0.00  0.00    +0.063 A 
ATOM     10  N   UNL     1     -10.150  17.918  65.732  0.00  0.00    -0.248 NA
ATOM     11  C   UNL     1     -10.479  19.180  66.105  0.00  0.00    +0.098 A 
ATOM     12  C   UNL     1      -9.932  19.722  67.263  0.00  0.00    +0.021 A 
ATOM     13  C   UNL     1      -8.740  19.121  67.656  0.00  0.00    +0.003 A 
ATOM     14  C   UNL     1      -8.481  17.799  67.302  0.00  0.00    +0.015 A 
ENDBRANCH   1   9
BRANCH   1  15
ATOM     15  C   UNL     1     -10.869  15.450  65.691  0.00  0.00    +0.028 C 
BRANCH  15  16
ATOM     16  C   UNL     1     -10.568  14.290  64.751  0.00  0.00    +0.073 C 
BRANCH  16  18
ATOM     17  C   UNL     1     -11.904  12.705  63.579  0.00  0.00    +0.090 C 
ATOM     18  N   UNL     1     -11.545  13.234  64.869  0.00  0.00    -0.270 NA
ATOM     19  C   UNL     1     -12.718  13.661  65.610  0.00  0.00    +0.090 C 
ENDBRANCH  16  18
ENDBRANCH  15  16
ENDBRANCH   1  15
TORSDOF 5
ENDMDL
MODEL 6
REMARK VINA RESULT:      -5.4      2.782      4.438
REMARK  Name = 
REMARK  5 active torsions:
REMARK  status: ('A' for Active; 'I' for Inactive)
REMARK    1  A    between atoms: N_2  and  C_4
REMARK    2  A    between atoms: C_4  and  C_5
REMARK    3  A    between atoms: C_5  and  C_6
REMARK    4  A    between atoms: C_6  and  C_7
REMARK    5  A    between atoms: C_6  and  C_14
REMARK                            x       y       z     vdW  Elec       q    Type
REMARK                         _______ _______ _______ _____ _____    ______ ____
ROOT
ATOM      1  C   UNL     1     -11.848  15.749  68.898  0.00  0.00    +0.064 C 
ENDROOT
BRANCH   1   2
ATOM      2  C   UNL     1     -10.294  16.095  69.158  0.00  0.00    -0.017 A 
ATOM      3  C   UNL     1      -9.933  17.342  68.658  0.00  0.00    -0.003 A 
ATOM      4  C   UNL     1      -8.582  17.575  68.421  0.00  0.00    +0.006 A 
ATOM      5  C   UNL     1      -7.631  16.654  68.815  0.00  0.00    +0.035 A 
ATOM      6 BR   UNL     1      -5.769  16.858  68.415  0.00  0.00    -0.049 Br
ATOM      7  C   UNL     1      -8.059  15.430  69.312  0.00  0.00    +0.006 A 
ATOM      8  C   UNL     1      -9.381  15.108  69.049  0.00  0.00    -0.003 A 
ENDBRANCH   1   2
BRANCH   1   9
ATOM      9  C   UNL     1     -12.144  15.399  70.436  0.00  0.00    +0.063 A 
ATOM     10  N   UNL     1     -11.695  16.129  71.415  0.00  0.00    -0.248 NA
ATOM     11  C   UNL     1     -12.314  16.018  72.617  0.00  0.00    +0.098 A 
ATOM     12  C   UNL     1     -13.245  15.005  72.822  0.00  0.00    +0.021 A 
ATOM     13  C   UNL     1     -13.094  13.920  71.965  0.00  0.00    +0.003 A 
ATOM     14  C   UNL     1     -12.511  14.102  70.712  0.00  0.00    +0.015 A 
ENDBRANCH   1   9
BRANCH   1  15
ATOM     15  C   UNL     1     -11.534  14.191  68.456  0.00  0.00    +0.028 C 
BRANCH  15  16
ATOM     16  C   UNL     1     -12.136  14.156  67.057  0.00  0.00    +0.073 C 
BRANCH  16  18
ATOM     17  C   UNL     1     -10.356  14.261  65.479  0.00  0.00    +0.090 C 
ATOM     18  N   UNL     1     -11.313  13.410  66.136  0.00  0.00    -0.270 NA
ATOM     19  C   UNL     1     -12.111  12.671  65.173  0.00  0.00    +0.090 C 
ENDBRANCH  16  18
ENDBRANCH  15  16
ENDBRANCH   1  15
TORSDOF 5
ENDMDL
MODEL 7
REMARK VINA RESULT:      -5.3      3.012      6.188
REMARK  Name = 
REMARK  5 active torsions:
REMARK  status: ('A' for Active; 'I' for Inactive)
REMARK    1  A    between atoms: N_2  and  C_4
REMARK    2  A    between atoms: C_4  and  C_5
REMARK    3  A    between atoms: C_5  and  C_6
REMARK    4  A    between atoms: C_6  and  C_7
REMARK    5  A    between atoms: C_6  and  C_14
REMARK                            x       y       z     vdW  Elec       q    Type
REMARK                         _______ _______ _______ _____ _____    ______ ____
ROOT
ATOM      1  C   UNL     1     -10.072  12.747  67.256  0.00  0.00    +0.064 C 
ENDROOT
BRANCH   1   2
ATOM      2  C   UNL     1     -10.456  14.313  67.193  0.00  0.00    -0.017 A 
ATOM      3  C   UNL     1      -9.718  15.006  66.238  0.00  0.00    -0.003 A 
ATOM      4  C   UNL     1      -9.625  16.388  66.374  0.00  0.00    +0.006 A 
ATOM      5  C   UNL     1     -10.365  17.050  67.334  0.00  0.00    +0.035 A 
ATOM      6 BR   UNL     1     -10.195  18.931  67.652  0.00  0.00    -0.049 Br
ATOM      7  C   UNL     1     -11.084  16.298  68.254  0.00  0.00    +0.006 A 
ATOM      8  C   UNL     1     -10.724  14.963  68.344  0.00  0.00    -0.003 A 
ENDBRANCH   1   2
BRANCH   1   9
ATOM      9  C   UNL     1     -10.885  12.379  65.921  0.00  0.00    +0.063 A 
ATOM     10  N   UNL     1     -12.180  12.477  65.846  0.00  0.00    -0.248 NA
ATOM     11  C   UNL     1     -12.733  12.553  64.609  0.00  0.00    +0.098 A 
ATOM     12  C   UNL     1     -11.947  12.318  63.486  0.00  0.00    +0.021 A 
ATOM     13  C   UNL     1     -10.813  11.555  63.744  0.00  0.00    +0.003 A 
ATOM     14  C   UNL     1     -10.245  11.565  65.016  0.00  0.00    +0.015 A 
ENDBRANCH   1   9
BRANCH   1  15
ATOM     15  C   UNL     1     -11.309  12.378  68.281  0.00  0.00    +0.028 C 
BRANCH  15  16
ATOM     16  C   UNL     1     -10.757  11.138  68.972  0.00  0.00    +0.073 C 
BRANCH  16  18
ATOM     17  C   UNL     1     -12.323  11.683  70.682  0.00  0.00    +0.090 C 
ATOM     18  N   UNL     1     -11.673  10.620  69.961  0.00  0.00    -0.270 NA
ATOM     19  C   UNL     1     -11.023   9.689  70.866  0.00  0.00    +0.090 C 
ENDBRANCH  16  18
ENDBRANCH  15  16
ENDBRANCH   1  15
TORSDOF 5
ENDMDL
MODEL 8
REMARK VINA RESULT:      -5.2      1.452      4.865
REMARK  Name = 
REMARK  5 active torsions:
REMARK  status: ('A' for Active; 'I' for Inactive)
REMARK    1  A    between atoms: N_2  and  C_4
REMARK    2  A    between atoms: C_4  and  C_5
REMARK    3  A    between atoms: C_5  and  C_6
REMARK    4  A    between atoms: C_6  and  C_7
REMARK    5  A    between atoms: C_6  and  C_14
REMARK                            x       y       z     vdW  Elec       q    Type
REMARK                         _______ _______ _______ _____ _____    ______ ____
ROOT
ATOM      1  C   UNL     1     -11.375  16.232  68.500  0.00  0.00    +0.064 C 
ENDROOT
BRANCH   1   2
ATOM      2  C   UNL     1     -10.928  15.024  67.529  0.00  0.00    -0.017 A 
ATOM      3  C   UNL     1     -12.014  14.330  67.004  0.00  0.00    -0.003 A 
ATOM      4  C   UNL     1     -11.788  13.043  66.528  0.00  0.00    +0.006 A 
ATOM      5  C   UNL     1     -10.504  12.541  66.444  0.00  0.00    +0.035 A 
ATOM      6 BR   UNL     1     -10.133  10.739  65.911  0.00  0.00    -0.049 Br
ATOM      7  C   UNL     1      -9.463  13.286  66.983  0.00  0.00    +0.006 A 
ATOM      8  C   UNL     1      -9.842  14.295  67.855  0.00  0.00    -0.003 A 
ENDBRANCH   1   2
BRANCH   1   9
ATOM      9  C   UNL     1     -10.197  17.209  68.014  0.00  0.00    +0.063 A 
ATOM     10  N   UNL     1      -9.147  17.449  68.743  0.00  0.00    -0.248 NA
ATOM     11  C   UNL     1      -8.043  17.927  68.116  0.00  0.00    +0.098 A 
ATOM     12  C   UNL     1      -8.127  18.335  66.788  0.00  0.00    +0.021 A 
ATOM     13  C   UNL     1      -9.413  18.677  66.385  0.00  0.00    +0.003 A 
ATOM     14  C   UNL     1     -10.514  18.105  67.020  0.00  0.00    +0.015 A 
ENDBRANCH   1   9
BRANCH   1  15
ATOM     15  C   UNL     1     -10.541  15.638  69.793  0.00  0.00    +0.028 C 
BRANCH  15  16
ATOM     16  C   UNL     1     -11.574  15.790  70.903  0.00  0.00    +0.073 C 
BRANCH  16  18
ATOM     17  C   UNL     1     -13.807  15.298  71.570  0.00  0.00    +0.090 C 
ATOM     18  N   UNL     1     -12.727  14.949  70.684  0.00  0.00    -0.270 NA
ATOM     19  C   UNL     1     -12.395  13.539  70.786  0.00  0.00    +0.090 C 
ENDBRANCH  16  18
ENDBRANCH  15  16
ENDBRANCH   1  15
TORSDOF 5
ENDMDL
MODEL 9
REMARK VINA RESULT:      -5.2      2.918      5.079
REMARK  Name = 
REMARK  5 active torsions:
REMARK  status: ('A' for Active; 'I' for Inactive)
REMARK    1  A    between atoms: N_2  and  C_4
REMARK    2  A    between atoms: C_4  and  C_5
REMARK    3  A    between atoms: C_5  and  C_6
REMARK    4  A    between atoms: C_6  and  C_7
REMARK    5  A    between atoms: C_6  and  C_14
REMARK                            x       y       z     vdW  Elec       q    Type
REMARK                         _______ _______ _______ _____ _____    ______ ____
ROOT
ATOM      1  C   UNL     1     -11.547  14.096  67.053  0.00  0.00    +0.064 C 
ENDROOT
BRANCH   1   2
ATOM      2  C   UNL     1     -11.657  12.708  67.868  0.00  0.00    -0.017 A 
ATOM      3  C   UNL     1     -12.126  12.886  69.166  0.00  0.00    -0.003 A 
ATOM      4  C   UNL     1     -11.860  11.882  70.091  0.00  0.00    +0.006 A 
ATOM      5  C   UNL     1     -11.286  10.691  69.689  0.00  0.00    +0.035 A 
ATOM      6 BR   UNL     1     -10.785   9.318  70.926  0.00  0.00    -0.049 Br
ATOM      7  C   UNL     1     -10.844  10.577  68.377  0.00  0.00    +0.006 A 
ATOM      8  C   UNL     1     -10.703  11.772  67.689  0.00  0.00    -0.003 A 
ENDBRANCH   1   2
BRANCH   1   9
ATOM      9  C   UNL     1     -11.475  13.379  65.619  0.00  0.00    +0.063 A 
ATOM     10  N   UNL     1     -10.428  13.462  64.851  0.00  0.00    -0.248 NA
ATOM     11  C   UNL     1     -10.281  12.522  63.884  0.00  0.00    +0.098 A 
ATOM     12  C   UNL     1     -11.326  11.645  63.611  0.00  0.00    +0.021 A 
ATOM     13  C   UNL     1     -12.575  12.122  63.996  0.00  0.00    +0.003 A 
ATOM     14  C   UNL     1     -12.676  13.038  65.040  0.00  0.00    +0.015 A 
ENDBRANCH   1   9
BRANCH   1  15
ATOM     15  C   UNL     1      -9.913  14.198  67.243  0.00  0.00    +0.028 C 
BRANCH  15  16
ATOM     16  C   UNL     1      -9.797  15.435  68.124  0.00  0.00    +0.073 C 
BRANCH  16  18
ATOM     17  C   UNL     1     -10.179  17.526  67.050  0.00  0.00    +0.090 C 
ATOM     18  N   UNL     1      -9.195  16.543  67.421  0.00  0.00    -0.270 NA
ATOM     19  C   UNL     1      -8.428  16.102  66.270  0.00  0.00    +0.090 C 
ENDBRANCH  16  18
ENDBRANCH  15  16
ENDBRANCH   1  15
TORSDOF 5
ENDMDL
