MODEL 1
REMARK VINA RESULT:      -6.0      0.000      0.000
REMARK  Name = 
REMARK  6 active torsions:
REMARK  status: ('A' for Active; 'I' for Inactive)
REMARK    1  A    between atoms: O_2  and  C_3
REMARK    2  A    between atoms: C_11  and  N_12
REMARK    3  A    between atoms: N_12  and  C_13
REMARK    4  A    between atoms: C_13  and  C_15
REMARK    5  A    between atoms: C_15  and  C_16
REMARK    6  A    between atoms: C_16  and  C_17
REMARK                            x       y       z     vdW  Elec       q    Type
REMARK                         _______ _______ _______ _____ _____    ______ ____
ROOT
ATOM      1  C   UNL     1     -12.342  14.146  70.520  0.00  0.00    +0.140 A 
ATOM      2  C   UNL     1     -11.773  13.937  69.268  0.00  0.00    +0.054 A 
ATOM      3  C   UNL     1     -11.628  12.647  68.763  0.00  0.00    +0.086 A 
ATOM      4  C   UNL     1     -11.777  11.642  69.712  0.00  0.00    +0.096 A 
ATOM      5  C   UNL     1     -12.521  11.805  70.876  0.00  0.00    +0.022 A 
ATOM      6  C   UNL     1     -12.885  10.711  71.654  0.00  0.00    +0.003 A 
ATOM      7  C   UNL     1     -12.268   9.516  71.312  0.00  0.00    +0.021 A 
ATOM      8  C   UNL     1     -11.314   9.469  70.308  0.00  0.00    +0.099 A 
ATOM      9  N   UNL     1     -11.192  10.476  69.429  0.00  0.00    -0.243 NA
ATOM     10  C   UNL     1     -12.865  13.094  71.264  0.00  0.00    +0.038 A 
ENDROOT
BRANCH   1  12
ATOM     11  C   UNL     1     -11.945  15.932  71.388  0.00  0.00    +0.252 C 
ATOM     12  O   UNL     1     -12.329  15.420  71.079  0.00  0.00    -0.471 OA
ENDBRANCH   1  12
BRANCH   3  13
ATOM     13  N   UNL     1     -11.971  12.318  67.410  0.00  0.00    -0.238 NA
BRANCH  13  14
ATOM     14  C   UNL     1     -11.161  13.152  66.318  0.00  0.00    +0.093 C 
ATOM     15  C   UNL     1     -11.055  11.820  65.315  0.00  0.00    +0.023 C 
BRANCH  14  16
ATOM     16  C   UNL     1     -12.576  13.635  65.577  0.00  0.00    +0.023 C 
BRANCH  16  17
ATOM     17  C   UNL     1     -12.090  14.424  64.397  0.00  0.00    +0.022 C 
BRANCH  17  18
ATOM     18  C   UNL     1     -11.089  15.438  64.945  0.00  0.00    +0.109 C 
ATOM     19  N   UNL     1     -11.279  16.700  64.270  0.00  0.00    -0.131 NA
ENDBRANCH  17  18
ENDBRANCH  16  17
ENDBRANCH  14  16
ENDBRANCH  13  14
ENDBRANCH   3  13
TORSDOF 6
ENDMDL
MODEL 2
REMARK VINA RESULT:      -5.9      3.704      7.431
REMARK  Name = 
REMARK  6 active torsions:
REMARK  status: ('A' for Active; 'I' for Inactive)
REMARK    1  A    between atoms: O_2  and  C_3
REMARK    2  A    between atoms: C_11  and  N_12
REMARK    3  A    between atoms: N_12  and  C_13
REMARK    4  A    between atoms: C_13  and  C_15
REMARK    5  A    between atoms: C_15  and  C_16
REMARK    6  A    between atoms: C_16  and  C_17
REMARK                            x       y       z     vdW  Elec       q    Type
REMARK                         _______ _______ _______ _____ _____    ______ ____
ROOT
ATOM      1  C   UNL     1     -10.575  15.355  65.982  0.00  0.00    +0.140 A 
ATOM      2  C   UNL     1     -10.865  15.065  67.311  0.00  0.00    +0.054 A 
ATOM      3  C   UNL     1     -11.041  16.091  68.236  0.00  0.00    +0.086 A 
ATOM      4  C   UNL     1     -10.585  17.333  67.807  0.00  0.00    +0.096 A 
ATOM      5  C   UNL     1     -10.488  17.679  66.464  0.00  0.00    +0.022 A 
ATOM      6  C   UNL     1     -10.306  19.002  66.074  0.00  0.00    +0.003 A 
ATOM      7  C   UNL     1     -10.006  19.881  67.106  0.00  0.00    +0.021 A 
ATOM      8  C   UNL     1      -9.841  19.426  68.404  0.00  0.00    +0.099 A 
ATOM      9  N   UNL     1     -10.276  18.209  68.766  0.00  0.00    -0.243 NA
ATOM     10  C   UNL     1     -10.542  16.665  65.515  0.00  0.00    +0.038 A 
ENDROOT
BRANCH   1  12
ATOM     11  C   UNL     1     -10.469  13.851  64.630  0.00  0.00    +0.252 C 
ATOM     12  O   UNL     1     -10.241  14.324  65.109  0.00  0.00    -0.471 OA
ENDBRANCH   1  12
BRANCH   3  13
ATOM     13  N   UNL     1     -12.122  16.087  69.180  0.00  0.00    -0.238 NA
BRANCH  13  14
ATOM     14  C   UNL     1     -12.221  14.749  70.042  0.00  0.00    +0.093 C 
ATOM     15  C   UNL     1     -10.902  15.193  70.964  0.00  0.00    +0.023 C 
BRANCH  14  16
ATOM     16  C   UNL     1     -13.262  15.476  71.126  0.00  0.00    +0.023 C 
BRANCH  16  17
ATOM     17  C   UNL     1     -12.353  15.889  72.245  0.00  0.00    +0.022 C 
BRANCH  17  18
ATOM     18  C   UNL     1     -13.192  15.829  73.519  0.00  0.00    +0.109 C 
ATOM     19  N   UNL     1     -12.468  16.472  74.591  0.00  0.00    -0.131 NA
ENDBRANCH  17  18
ENDBRANCH  16  17
ENDBRANCH  14  16
ENDBRANCH  13  14
ENDBRANCH   3  13
TORSDOF 6
ENDMDL
MODEL 3
REMARK VINA RESULT:      -5.9      1.420      1.824
REMARK  Name = 
REMARK  6 active torsions:
REMARK  status: ('A' for Active; 'I' for Inactive)
REMARK    1  A    between atoms: O_2  and  C_3
REMARK    2  A    between atoms: C_11  and  N_12
REMARK    3  A    between atoms: N_12  and  C_13
REMARK    4  A    between atoms: C_13  and  C_15
REMARK    5  A    between atoms: C_15  and  C_16
REMARK    6  A    between atoms: C_16  and  C_17
REMARK                            x       y       z     vdW  Elec       q    Type
REMARK                         _______ _______ _______ _____ _____    ______ ____
ROOT
ATOM      1  C   UNL     1     -13.099  14.314  71.775  0.00  0.00    +0.140 A 
ATOM      2  C   UNL     1     -12.377  14.565  70.613  0.00  0.00    +0.054 A 
ATOM      3  C   UNL     1     -11.979  13.515  69.788  0.00  0.00    +0.086 A 
ATOM      4  C   UNL     1     -12.064  12.259  70.379  0.00  0.00    +0.096 A 
ATOM      5  C   UNL     1     -12.941  11.972  71.419  0.00  0.00    +0.022 A 
ATOM      6  C   UNL     1     -13.207  10.658  71.792  0.00  0.00    +0.003 A 
ATOM      7  C   UNL     1     -12.375   9.706  71.217  0.00  0.00    +0.021 A 
ATOM      8  C   UNL     1     -11.328  10.081  70.392  0.00  0.00    +0.099 A 
ATOM      9  N   UNL     1     -11.276  11.313  69.864  0.00  0.00    -0.243 NA
ATOM     10  C   UNL     1     -13.524  13.031  72.104  0.00  0.00    +0.038 A 
ENDROOT
BRANCH   1  12
ATOM     11  C   UNL     1     -13.128  15.708  73.245  0.00  0.00    +0.252 C 
ATOM     12  O   UNL     1     -13.346  15.351  72.669  0.00  0.00    -0.471 OA
ENDBRANCH   1  12
BRANCH   3  13
ATOM     13  N   UNL     1     -12.123  13.573  68.362  0.00  0.00    -0.238 NA
BRANCH  13  14
ATOM     14  C   UNL     1     -11.305  14.759  67.678  0.00  0.00    +0.093 C 
ATOM     15  C   UNL     1     -10.004  13.753  67.387  0.00  0.00    +0.023 C 
BRANCH  14  16
ATOM     16  C   UNL     1     -11.955  14.400  66.183  0.00  0.00    +0.023 C 
BRANCH  16  17
ATOM     17  C   UNL     1     -11.946  12.901  66.159  0.00  0.00    +0.022 C 
BRANCH  17  18
ATOM     18  C   UNL     1     -12.394  12.494  64.757  0.00  0.00    +0.109 C 
ATOM     19  N   UNL     1     -12.519  13.679  63.941  0.00  0.00    -0.131 NA
ENDBRANCH  17  18
ENDBRANCH  16  17
ENDBRANCH  14  16
ENDBRANCH  13  14
ENDBRANCH   3  13
TORSDOF 6
ENDMDL
MODEL 4
REMARK VINA RESULT:      -5.9      2.860      5.432
REMARK  Name = 
REMARK  6 active torsions:
REMARK  status: ('A' for Active; 'I' for Inactive)
REMARK    1  A    between atoms: O_2  and  C_3
REMARK    2  A    between atoms: C_11  and  N_12
REMARK    3  A    between atoms: N_12  and  C_13
REMARK    4  A    between atoms: C_13  and  C_15
REMARK    5  A    between atoms: C_15  and  C_16
REMARK    6  A    between atoms: C_16  and  C_17
REMARK                            x       y       z     vdW  Elec       q    Type
REMARK                         _______ _______ _______ _____ _____    ______ ____
ROOT
ATOM      1  C   UNL     1     -11.104  12.378  68.120  0.00  0.00    +0.140 A 
ATOM      2  C   UNL     1     -11.761  13.387  68.816  0.00  0.00    +0.054 A 
ATOM      3  C   UNL     1     -12.199  13.176  70.121  0.00  0.00    +0.086 A 
ATOM      4  C   UNL     1     -12.223  11.841  70.508  0.00  0.00    +0.096 A 
ATOM      5  C   UNL     1     -11.408  10.873  69.931  0.00  0.00    +0.022 A 
ATOM      6  C   UNL     1     -11.248   9.624  70.523  0.00  0.00    +0.003 A 
ATOM      7  C   UNL     1     -12.120   9.354  71.569  0.00  0.00    +0.021 A 
ATOM      8  C   UNL     1     -13.107  10.259  71.924  0.00  0.00    +0.099 A 
ATOM      9  N   UNL     1     -13.054  11.533  71.506  0.00  0.00    -0.243 NA
ATOM     10  C   UNL     1     -10.781  11.169  68.727  0.00  0.00    +0.038 A 
ENDROOT
BRANCH   1  12
ATOM     11  C   UNL     1     -10.748  13.000  66.226  0.00  0.00    +0.252 C 
ATOM     12  O   UNL     1     -10.820  12.546  66.769  0.00  0.00    -0.471 OA
ENDBRANCH   1  12
BRANCH   3  13
ATOM     13  N   UNL     1     -11.997  14.148  71.157  0.00  0.00    -0.238 NA
BRANCH  13  14
ATOM     14  C   UNL     1     -12.701  15.551  70.872  0.00  0.00    +0.093 C 
ATOM     15  C   UNL     1     -14.157  14.991  71.470  0.00  0.00    +0.023 C 
BRANCH  14  16
ATOM     16  C   UNL     1     -12.266  16.121  72.379  0.00  0.00    +0.023 C 
BRANCH  16  17
ATOM     17  C   UNL     1     -12.607  14.977  73.288  0.00  0.00    +0.022 C 
BRANCH  17  18
ATOM     18  C   UNL     1     -12.478  15.511  74.712  0.00  0.00    +0.109 C 
ATOM     19  N   UNL     1     -12.321  16.946  74.665  0.00  0.00    -0.131 NA
ENDBRANCH  17  18
ENDBRANCH  16  17
ENDBRANCH  14  16
ENDBRANCH  13  14
ENDBRANCH   3  13
TORSDOF 6
ENDMDL
MODEL 5
REMARK VINA RESULT:      -5.7      1.943      2.638
REMARK  Name = 
REMARK  6 active torsions:
REMARK  status: ('A' for Active; 'I' for Inactive)
REMARK    1  A    between atoms: O_2  and  C_3
REMARK    2  A    between atoms: C_11  and  N_12
REMARK    3  A    between atoms: N_12  and  C_13
REMARK    4  A    between atoms: C_13  and  C_15
REMARK    5  A    between atoms: C_15  and  C_16
REMARK    6  A    between atoms: C_16  and  C_17
REMARK                            x       y       z     vdW  Elec       q    Type
REMARK                         _______ _______ _______ _____ _____    ______ ____
ROOT
ATOM      1  C   UNL     1     -12.930  11.607  71.462  0.00  0.00    +0.140 A 
ATOM      2  C   UNL     1     -12.184  11.842  70.311  0.00  0.00    +0.054 A 
ATOM      3  C   UNL     1     -11.593  10.786  69.624  0.00  0.00    +0.086 A 
ATOM      4  C   UNL     1     -11.533   9.597  70.343  0.00  0.00    +0.096 A 
ATOM      5  C   UNL     1     -12.420   9.290  71.369  0.00  0.00    +0.022 A 
ATOM      6  C   UNL     1     -12.517   7.996  71.870  0.00  0.00    +0.003 A 
ATOM      7  C   UNL     1     -11.527   7.123  71.439  0.00  0.00    +0.021 A 
ATOM      8  C   UNL     1     -10.496   7.564  70.625  0.00  0.00    +0.099 A 
ATOM      9  N   UNL     1     -10.589   8.731  69.968  0.00  0.00    -0.243 NA
ATOM     10  C   UNL     1     -13.187  10.315  71.909  0.00  0.00    +0.038 A 
ENDROOT
BRANCH   1  12
ATOM     11  C   UNL     1     -13.639  13.341  72.231  0.00  0.00    +0.252 C 
ATOM     12  O   UNL     1     -13.374  12.681  72.226  0.00  0.00    -0.471 OA
ENDBRANCH   1  12
BRANCH   3  13
ATOM     13  N   UNL     1     -11.659  10.677  68.195  0.00  0.00    -0.238 NA
BRANCH  13  14
ATOM     14  C   UNL     1     -10.381  11.262  67.442  0.00  0.00    +0.093 C 
ATOM     15  C   UNL     1     -10.131   9.816  66.647  0.00  0.00    +0.023 C 
BRANCH  14  16
ATOM     16  C   UNL     1     -11.325  11.825  66.188  0.00  0.00    +0.023 C 
BRANCH  16  17
ATOM     17  C   UNL     1     -11.792  13.161  66.686  0.00  0.00    +0.022 C 
BRANCH  17  18
ATOM     18  C   UNL     1     -12.666  13.747  65.580  0.00  0.00    +0.109 C 
ATOM     19  N   UNL     1     -13.103  12.680  64.710  0.00  0.00    -0.131 NA
ENDBRANCH  17  18
ENDBRANCH  16  17
ENDBRANCH  14  16
ENDBRANCH  13  14
ENDBRANCH   3  13
TORSDOF 6
ENDMDL
MODEL 6
REMARK VINA RESULT:      -5.6      1.810      2.659
REMARK  Name = 
REMARK  6 active torsions:
REMARK  status: ('A' for Active; 'I' for Inactive)
REMARK    1  A    between atoms: O_2  and  C_3
REMARK    2  A    between atoms: C_11  and  N_12
REMARK    3  A    between atoms: N_12  and  C_13
REMARK    4  A    between atoms: C_13  and  C_15
REMARK    5  A    between atoms: C_15  and  C_16
REMARK    6  A    between atoms: C_16  and  C_17
REMARK                            x       y       z     vdW  Elec       q    Type
REMARK                         _______ _______ _______ _____ _____    ______ ____
ROOT
ATOM      1  C   UNL     1     -10.616  16.054  69.241  0.00  0.00    +0.140 A 
ATOM      2  C   UNL     1     -10.405  14.868  68.546  0.00  0.00    +0.054 A 
ATOM      3  C   UNL     1     -11.191  13.748  68.806  0.00  0.00    +0.086 A 
ATOM      4  C   UNL     1     -11.921  13.822  69.987  0.00  0.00    +0.096 A 
ATOM      5  C   UNL     1     -12.297  15.028  70.568  0.00  0.00    +0.022 A 
ATOM      6  C   UNL     1     -13.255  15.072  71.576  0.00  0.00    +0.003 A 
ATOM      7  C   UNL     1     -13.618  13.836  72.094  0.00  0.00    +0.021 A 
ATOM      8  C   UNL     1     -13.000  12.674  71.663  0.00  0.00    +0.099 A 
ATOM      9  N   UNL     1     -12.285  12.657  70.527  0.00  0.00    -0.243 NA
ATOM     10  C   UNL     1     -11.666  16.191  70.143  0.00  0.00    +0.038 A 
ENDROOT
BRANCH   1  12
ATOM     11  C   UNL     1      -9.382  17.543  68.641  0.00  0.00    +0.252 C 
ATOM     12  O   UNL     1      -9.721  17.109  69.090  0.00  0.00    -0.471 OA
ENDBRANCH   1  12
BRANCH   3  13
ATOM     13  N   UNL     1     -11.742  12.945  67.752  0.00  0.00    -0.238 NA
BRANCH  13  14
ATOM     14  C   UNL     1     -11.094  13.225  66.322  0.00  0.00    +0.093 C 
ATOM     15  C   UNL     1     -11.440  11.672  65.812  0.00  0.00    +0.023 C 
BRANCH  14  16
ATOM     16  C   UNL     1     -12.551  13.778  65.724  0.00  0.00    +0.023 C 
BRANCH  16  17
ATOM     17  C   UNL     1     -12.149  14.529  64.489  0.00  0.00    +0.022 C 
BRANCH  17  18
ATOM     18  C   UNL     1     -11.066  15.513  64.922  0.00  0.00    +0.109 C 
ATOM     19  N   UNL     1     -11.308  16.789  64.289  0.00  0.00    -0.131 NA
ENDBRANCH  17  18
ENDBRANCH  16  17
ENDBRANCH  14  16
ENDBRANCH  13  14
ENDBRANCH   3  13
TORSDOF 6
ENDMDL
MODEL 7
REMARK VINA RESULT:      -5.5      1.811      2.136
REMARK  Name = 
REMARK  6 active torsions:
REMARK  status: ('A' for Active; 'I' for Inactive)
REMARK    1  A    between atoms: O_2  and  C_3
REMARK    2  A    between atoms: C_11  and  N_12
REMARK    3  A    between atoms: N_12  and  C_13
REMARK    4  A    between atoms: C_13  and  C_15
REMARK    5  A    between atoms: C_15  and  C_16
REMARK    6  A    between atoms: C_16  and  C_17
REMARK                            x       y       z     vdW  Elec       q    Type
REMARK                         _______ _______ _______ _____ _____    ______ ____
ROOT
ATOM      1  C   UNL     1     -13.052  14.401  71.858  0.00  0.00    +0.140 A 
ATOM      2  C   UNL     1     -12.334  14.634  70.689  0.00  0.00    +0.054 A 
ATOM      3  C   UNL     1     -11.982  13.577  69.854  0.00  0.00    +0.086 A 
ATOM      4  C   UNL     1     -12.106  12.321  70.437  0.00  0.00    +0.096 A 
ATOM      5  C   UNL     1     -12.982  12.058  71.484  0.00  0.00    +0.022 A 
ATOM      6  C   UNL     1     -13.291  10.752  71.850  0.00  0.00    +0.003 A 
ATOM      7  C   UNL     1     -12.501   9.774  71.260  0.00  0.00    +0.021 A 
ATOM      8  C   UNL     1     -11.449  10.117  70.427  0.00  0.00    +0.099 A 
ATOM      9  N   UNL     1     -11.358  11.351  69.907  0.00  0.00    -0.243 NA
ATOM     10  C   UNL     1     -13.519  13.132  72.182  0.00  0.00    +0.038 A 
ENDROOT
BRANCH   1  12
ATOM     11  C   UNL     1     -13.068  15.736  73.381  0.00  0.00    +0.252 C 
ATOM     12  O   UNL     1     -13.252  15.440  72.761  0.00  0.00    -0.471 OA
ENDBRANCH   1  12
BRANCH   3  13
ATOM     13  N   UNL     1     -12.139  13.650  68.429  0.00  0.00    -0.238 NA
BRANCH  13  14
ATOM     14  C   UNL     1     -10.760  13.713  67.630  0.00  0.00    +0.093 C 
ATOM     15  C   UNL     1     -11.485  13.131  66.244  0.00  0.00    +0.023 C 
BRANCH  14  16
ATOM     16  C   UNL     1     -11.055  15.287  67.162  0.00  0.00    +0.023 C 
BRANCH  16  17
ATOM     17  C   UNL     1      -9.856  16.026  67.677  0.00  0.00    +0.022 C 
BRANCH  17  18
ATOM     18  C   UNL     1     -10.391  17.110  68.608  0.00  0.00    +0.109 C 
ATOM     19  N   UNL     1     -10.811  18.245  67.819  0.00  0.00    -0.131 NA
ENDBRANCH  17  18
ENDBRANCH  16  17
ENDBRANCH  14  16
ENDBRANCH  13  14
ENDBRANCH   3  13
TORSDOF 6
ENDMDL
MODEL 8
REMARK VINA RESULT:      -5.5      2.536      4.392
REMARK  Name = 
REMARK  6 active torsions:
REMARK  status: ('A' for Active; 'I' for Inactive)
REMARK    1  A    between atoms: O_2  and  C_3
REMARK    2  A    between atoms: C_11  and  N_12
REMARK    3  A    between atoms: N_12  and  C_13
REMARK    4  A    between atoms: C_13  and  C_15
REMARK    5  A    between atoms: C_15  and  C_16
REMARK    6  A    between atoms: C_16  and  C_17
REMARK                            x       y       z     vdW  Elec       q    Type
REMARK                         _______ _______ _______ _____ _____    ______ ____
ROOT
ATOM      1  C   UNL     1     -11.937  13.070  65.639  0.00  0.00    +0.140 A 
ATOM      2  C   UNL     1     -12.066  14.081  66.587  0.00  0.00    +0.054 A 
ATOM      3  C   UNL     1     -11.757  13.839  67.923  0.00  0.00    +0.086 A 
ATOM      4  C   UNL     1     -11.652  12.492  68.252  0.00  0.00    +0.096 A 
ATOM      5  C   UNL     1     -11.324  11.511  67.322  0.00  0.00    +0.022 A 
ATOM      6  C   UNL     1     -10.950  10.235  67.728  0.00  0.00    +0.003 A 
ATOM      7  C   UNL     1     -11.149   9.965  69.075  0.00  0.00    +0.021 A 
ATOM      8  C   UNL     1     -11.743  10.899  69.907  0.00  0.00    +0.099 A 
ATOM      9  N   UNL     1     -11.844  12.184  69.536  0.00  0.00    -0.243 NA
ATOM     10  C   UNL     1     -11.414  11.825  65.972  0.00  0.00    +0.038 A 
ENDROOT
BRANCH   1  12
ATOM     11  C   UNL     1     -12.381  13.076  63.663  0.00  0.00    +0.252 C 
ATOM     12  O   UNL     1     -12.403  13.277  64.345  0.00  0.00    -0.471 OA
ENDBRANCH   1  12
BRANCH   3  13
ATOM     13  N   UNL     1     -10.980  14.761  68.702  0.00  0.00    -0.238 NA
BRANCH  13  14
ATOM     14  C   UNL     1     -11.702  16.160  68.957  0.00  0.00    +0.093 C 
ATOM     15  C   UNL     1     -11.519  16.004  70.609  0.00  0.00    +0.023 C 
BRANCH  14  16
ATOM     16  C   UNL     1     -10.252  16.976  68.841  0.00  0.00    +0.023 C 
BRANCH  16  17
ATOM     17  C   UNL     1     -10.470  17.894  67.675  0.00  0.00    +0.022 C 
BRANCH  17  18
ATOM     18  C   UNL     1      -9.629  17.336  66.530  0.00  0.00    +0.109 C 
ATOM     19  N   UNL     1     -10.471  17.161  65.369  0.00  0.00    -0.131 NA
ENDBRANCH  17  18
ENDBRANCH  16  17
ENDBRANCH  14  16
ENDBRANCH  13  14
ENDBRANCH   3  13
TORSDOF 6
ENDMDL
MODEL 9
REMARK VINA RESULT:      -5.4      3.863      5.318
REMARK  Name = 
REMARK  6 active torsions:
REMARK  status: ('A' for Active; 'I' for Inactive)
REMARK    1  A    between atoms: O_2  and  C_3
REMARK    2  A    between atoms: C_11  and  N_12
REMARK    3  A    between atoms: N_12  and  C_13
REMARK    4  A    between atoms: C_13  and  C_15
REMARK    5  A    between atoms: C_15  and  C_16
REMARK    6  A    between atoms: C_16  and  C_17
REMARK                            x       y       z     vdW  Elec       q    Type
REMARK                         _______ _______ _______ _____ _____    ______ ____
ROOT
ATOM      1  C   UNL     1     -11.492  13.768  67.185  0.00  0.00    +0.140 A 
ATOM      2  C   UNL     1     -11.232  15.135  67.165  0.00  0.00    +0.054 A 
ATOM      3  C   UNL     1     -11.282  15.879  68.341  0.00  0.00    +0.086 A 
ATOM      4  C   UNL     1     -11.913  15.236  69.400  0.00  0.00    +0.096 A 
ATOM      5  C   UNL     1     -11.991  13.852  69.504  0.00  0.00    +0.022 A 
ATOM      6  C   UNL     1     -12.367  13.242  70.696  0.00  0.00    +0.003 A 
ATOM      7  C   UNL     1     -12.867  14.103  71.664  0.00  0.00    +0.021 A 
ATOM      8  C   UNL     1     -13.026  15.454  71.400  0.00  0.00    +0.099 A 
ATOM      9  N   UNL     1     -12.416  16.026  70.351  0.00  0.00    -0.243 NA
ATOM     10  C   UNL     1     -11.716  13.088  68.377  0.00  0.00    +0.038 A 
ENDROOT
BRANCH   1  12
ATOM     11  C   UNL     1     -11.950  12.578  65.611  0.00  0.00    +0.252 C 
ATOM     12  O   UNL     1     -11.600  13.071  65.985  0.00  0.00    -0.471 OA
ENDBRANCH   1  12
BRANCH   3  13
ATOM     13  N   UNL     1     -10.270  16.840  68.675  0.00  0.00    -0.238 NA
BRANCH  13  14
ATOM     14  C   UNL     1      -9.519  17.454  67.409  0.00  0.00    +0.093 C 
ATOM     15  C   UNL     1     -10.400  18.868  67.517  0.00  0.00    +0.023 C 
BRANCH  14  16
ATOM     16  C   UNL     1      -8.319  18.091  68.377  0.00  0.00    +0.023 C 
BRANCH  16  17
ATOM     17  C   UNL     1      -8.341  19.550  68.032  0.00  0.00    +0.022 C 
BRANCH  17  18
ATOM     18  C   UNL     1      -6.890  20.021  68.072  0.00  0.00    +0.109 C 
ATOM     19  N   UNL     1      -6.778  21.266  67.349  0.00  0.00    -0.131 NA
ENDBRANCH  17  18
ENDBRANCH  16  17
ENDBRANCH  14  16
ENDBRANCH  13  14
ENDBRANCH   3  13
TORSDOF 6
ENDMDL
