MODEL 1
REMARK VINA RESULT:      -7.7      0.000      0.000
REMARK  Name = 
REMARK  8 active torsions:
REMARK  status: ('A' for Active; 'I' for Inactive)
REMARK    1  A    between atoms: C_2  and  N_4
REMARK    2  A    between atoms: C_5  and  C_6
REMARK    3  A    between atoms: C_7  and  C_8
REMARK    4  A    between atoms: C_8  and  C_10
REMARK    5  A    between atoms: C_10  and  C_11
REMARK    6  A    between atoms: C_11  and  C_13
REMARK    7  A    between atoms: C_13  and  C_14
REMARK    8  A    between atoms: C_17  and  C_18
REMARK                            x       y       z     vdW  Elec       q    Type
REMARK                         _______ _______ _______ _____ _____    ______ ____
ROOT
ATOM      1  N   UNL     1     -11.800  13.487  68.966  0.00  0.00    -0.329 N 
ATOM      2  C   UNL     1     -12.364  14.046  70.051  0.00  0.00    +0.060 A 
ATOM      3  C   UNL     1     -12.626  12.995  70.907  0.00  0.00    +0.017 A 
ATOM      4  C   UNL     1     -13.173  13.247  72.155  0.00  0.00    +0.001 A 
ATOM      5  C   UNL     1     -13.315  14.550  72.584  0.00  0.00    +0.000 A 
ATOM      6  C   UNL     1     -12.986  15.584  71.716  0.00  0.00    +0.001 A 
ATOM      7  C   UNL     1     -11.976  11.865  70.438  0.00  0.00    +0.017 A 
ATOM      8  C   UNL     1     -12.592  15.352  70.427  0.00  0.00    +0.017 A 
ATOM      9  C   UNL     1     -11.317  12.268  69.297  0.00  0.00    +0.060 A 
ENDROOT
BRANCH   7  10
ATOM     10  C   UNL     1     -12.219  10.477  70.810  0.00  0.00    +0.002 A 
ATOM     11  C   UNL     1     -13.473   9.923  70.925  0.00  0.00    +0.002 A 
ATOM     12  C   UNL     1     -13.633   8.802  71.721  0.00  0.00    +0.030 A 
ATOM     13  C   UNL     1     -12.580   7.916  71.864  0.00  0.00    +0.140 A 
ATOM     14  F   UNL     1     -12.753   6.584  71.923  0.00  0.00    -0.204 F 
ATOM     15  C   UNL     1     -11.327   8.394  71.548  0.00  0.00    +0.030 A 
ATOM     16  C   UNL     1     -11.140   9.665  71.090  0.00  0.00    +0.002 A 
ENDBRANCH   7  10
BRANCH   1  18
ATOM     17  C   UNL     1     -12.107  14.350  67.582  0.00  0.00    +0.024 C 
ATOM     18  C   UNL     1     -11.760  14.155  67.676  0.00  0.00    +0.086 C 
ATOM     19  C   UNL     1     -10.602  15.125  67.563  0.00  0.00    +0.024 C 
ENDBRANCH   1  18
BRANCH   9  20
ATOM     20  C   UNL     1     -10.263  11.573  68.583  0.00  0.00    +0.015 C 
ATOM     21  C   UNL     1     -10.397  10.969  67.415  0.00  0.00    +0.008 C 
BRANCH  21  22
ATOM     22  C   UNL     1      -9.058  11.102  66.471  0.00  0.00    +0.177 C 
ATOM     23  O   UNL     1      -8.481  12.197  67.387  0.00  0.00    -0.218 OA
BRANCH  22  24
ATOM     24  C   UNL     1      -9.799  12.222  65.474  0.00  0.00    +0.071 C 
BRANCH  24  25
ATOM     25  C   UNL     1     -10.904  11.204  64.751  0.00  0.00    +0.166 C 
ATOM     26  O   UNL     1      -9.793  10.496  63.959  0.00  0.00    -0.222 OA
BRANCH  25  27
ATOM     27  C   UNL     1     -11.175  12.269  63.500  0.00  0.00    +0.147 C 
BRANCH  27  28
ATOM     28  C   UNL     1     -12.326  13.052  64.037  0.00  0.00    +0.367 C 
ATOM     29  O   UNL     1     -12.506  14.402  63.847  0.00  0.00    -0.246 OA
ATOM     30  O   UNL     1     -13.195  12.448  64.714  0.00  0.00    -0.246 OA
ENDBRANCH  27  28
ENDBRANCH  25  27
ENDBRANCH  24  25
ENDBRANCH  22  24
ENDBRANCH  21  22
ENDBRANCH   9  20
TORSDOF 8
ENDMDL
MODEL 2
REMARK VINA RESULT:      -7.6      3.363      5.816
REMARK  Name = 
REMARK  8 active torsions:
REMARK  status: ('A' for Active; 'I' for Inactive)
REMARK    1  A    between atoms: C_2  and  N_4
REMARK    2  A    between atoms: C_5  and  C_6
REMARK    3  A    between atoms: C_7  and  C_8
REMARK    4  A    between atoms: C_8  and  C_10
REMARK    5  A    between atoms: C_10  and  C_11
REMARK    6  A    between atoms: C_11  and  C_13
REMARK    7  A    between atoms: C_13  and  C_14
REMARK    8  A    between atoms: C_17  and  C_18
REMARK                            x       y       z     vdW  Elec       q    Type
REMARK                         _______ _______ _______ _____ _____    ______ ____
ROOT
ATOM      1  N   UNL     1     -12.821  13.661  71.080  0.00  0.00    -0.329 N 
ATOM      2  C   UNL     1     -12.812  12.317  71.112  0.00  0.00    +0.060 A 
ATOM      3  C   UNL     1     -12.258  11.928  69.909  0.00  0.00    +0.017 A 
ATOM      4  C   UNL     1     -12.063  10.582  69.648  0.00  0.00    +0.001 A 
ATOM      5  C   UNL     1     -12.286   9.657  70.646  0.00  0.00    +0.000 A 
ATOM      6  C   UNL     1     -12.788  10.091  71.867  0.00  0.00    +0.001 A 
ATOM      7  C   UNL     1     -11.704  13.039  69.293  0.00  0.00    +0.017 A 
ATOM      8  C   UNL     1     -13.133  11.397  72.086  0.00  0.00    +0.017 A 
ATOM      9  C   UNL     1     -11.929  14.088  70.158  0.00  0.00    +0.060 A 
ENDROOT
BRANCH   7  10
ATOM     10  C   UNL     1     -11.315  13.182  67.897  0.00  0.00    +0.002 A 
ATOM     11  C   UNL     1     -12.097  13.790  66.942  0.00  0.00    +0.002 A 
ATOM     12  C   UNL     1     -11.893  13.466  65.611  0.00  0.00    +0.030 A 
ATOM     13  C   UNL     1     -10.629  13.093  65.191  0.00  0.00    +0.140 A 
ATOM     14  F   UNL     1     -10.122  13.459  64.000  0.00  0.00    -0.204 F 
ATOM     15  C   UNL     1      -9.753  12.678  66.169  0.00  0.00    +0.030 A 
ATOM     16  C   UNL     1     -10.105  12.662  67.486  0.00  0.00    +0.002 A 
ENDBRANCH   7  10
BRANCH   1  18
ATOM     17  C   UNL     1     -14.043  14.274  72.021  0.00  0.00    +0.024 C 
ATOM     18  C   UNL     1     -13.687  14.456  71.935  0.00  0.00    +0.086 C 
ATOM     19  C   UNL     1     -13.011  14.859  73.229  0.00  0.00    +0.024 C 
ENDBRANCH   1  18
BRANCH   9  20
ATOM     20  C   UNL     1     -11.311  15.400  70.148  0.00  0.00    +0.015 C 
ATOM     21  C   UNL     1     -10.052  15.653  69.835  0.00  0.00    +0.008 C 
BRANCH  21  22
ATOM     22  C   UNL     1      -9.867  17.078  69.039  0.00  0.00    +0.177 C 
ATOM     23  O   UNL     1     -11.340  17.057  68.590  0.00  0.00    -0.218 OA
BRANCH  22  24
ATOM     24  C   UNL     1      -9.355  16.302  67.648  0.00  0.00    +0.071 C 
BRANCH  24  25
ATOM     25  C   UNL     1     -10.231  17.192  66.542  0.00  0.00    +0.166 C 
ATOM     26  O   UNL     1      -9.599  16.431  65.367  0.00  0.00    -0.222 OA
BRANCH  25  27
ATOM     27  C   UNL     1      -9.062  18.375  66.459  0.00  0.00    +0.147 C 
BRANCH  27  28
ATOM     28  C   UNL     1      -9.905  19.607  66.430  0.00  0.00    +0.367 C 
ATOM     29  O   UNL     1      -9.821  20.629  67.346  0.00  0.00    -0.246 OA
ATOM     30  O   UNL     1     -10.755  19.727  65.513  0.00  0.00    -0.246 OA
ENDBRANCH  27  28
ENDBRANCH  25  27
ENDBRANCH  24  25
ENDBRANCH  22  24
ENDBRANCH  21  22
ENDBRANCH   9  20
TORSDOF 8
ENDMDL
MODEL 3
REMARK VINA RESULT:      -7.5      3.060      5.414
REMARK  Name = 
REMARK  8 active torsions:
REMARK  status: ('A' for Active; 'I' for Inactive)
REMARK    1  A    between atoms: C_2  and  N_4
REMARK    2  A    between atoms: C_5  and  C_6
REMARK    3  A    between atoms: C_7  and  C_8
REMARK    4  A    between atoms: C_8  and  C_10
REMARK    5  A    between atoms: C_10  and  C_11
REMARK    6  A    between atoms: C_11  and  C_13
REMARK    7  A    between atoms: C_13  and  C_14
REMARK    8  A    between atoms: C_17  and  C_18
REMARK                            x       y       z     vdW  Elec       q    Type
REMARK                         _______ _______ _______ _____ _____    ______ ____
ROOT
ATOM      1  N   UNL     1     -12.152  14.344  70.222  0.00  0.00    -0.329 N 
ATOM      2  C   UNL     1     -12.464  13.080  70.556  0.00  0.00    +0.060 A 
ATOM      3  C   UNL     1     -12.140  12.320  69.451  0.00  0.00    +0.017 A 
ATOM      4  C   UNL     1     -12.302  10.944  69.492  0.00  0.00    +0.001 A 
ATOM      5  C   UNL     1     -12.645  10.337  70.682  0.00  0.00    +0.000 A 
ATOM      6  C   UNL     1     -12.907  11.130  71.793  0.00  0.00    +0.001 A 
ATOM      7  C   UNL     1     -11.396  13.097  68.578  0.00  0.00    +0.017 A 
ATOM      8  C   UNL     1     -12.903  12.497  71.725  0.00  0.00    +0.017 A 
ATOM      9  C   UNL     1     -11.276  14.325  69.191  0.00  0.00    +0.060 A 
ENDROOT
BRANCH   7  10
ATOM     10  C   UNL     1     -11.120  12.842  67.170  0.00  0.00    +0.002 A 
ATOM     11  C   UNL     1     -11.982  13.169  66.149  0.00  0.00    +0.002 A 
ATOM     12  C   UNL     1     -11.881  12.486  64.949  0.00  0.00    +0.030 A 
ATOM     13  C   UNL     1     -10.650  11.995  64.550  0.00  0.00    +0.140 A 
ATOM     14  F   UNL     1     -10.243  12.009  63.269  0.00  0.00    -0.204 F 
ATOM     15  C   UNL     1      -9.695  11.857  65.533  0.00  0.00    +0.030 A 
ATOM     16  C   UNL     1      -9.941  12.213  66.826  0.00  0.00    +0.002 A 
ENDBRANCH   7  10
BRANCH   1  18
ATOM     17  C   UNL     1     -13.105  15.446  71.015  0.00  0.00    +0.024 C 
ATOM     18  C   UNL     1     -12.713  15.494  70.909  0.00  0.00    +0.086 C 
ATOM     19  C   UNL     1     -11.912  15.883  72.135  0.00  0.00    +0.024 C 
ENDBRANCH   1  18
BRANCH   9  20
ATOM     20  C   UNL     1     -10.363  15.403  68.860  0.00  0.00    +0.015 C 
ATOM     21  C   UNL     1      -9.136  15.540  69.331  0.00  0.00    +0.008 C 
BRANCH  21  22
ATOM     22  C   UNL     1      -8.095  16.168  68.225  0.00  0.00    +0.177 C 
ATOM     23  O   UNL     1      -7.171  16.689  69.342  0.00  0.00    -0.218 OA
BRANCH  22  24
ATOM     24  C   UNL     1      -8.944  17.607  68.155  0.00  0.00    +0.071 C 
BRANCH  24  25
ATOM     25  C   UNL     1      -8.749  17.920  66.528  0.00  0.00    +0.166 C 
ATOM     26  O   UNL     1      -8.775  19.436  66.775  0.00  0.00    -0.222 OA
BRANCH  25  27
ATOM     27  C   UNL     1     -10.391  17.894  66.252  0.00  0.00    +0.147 C 
BRANCH  27  28
ATOM     28  C   UNL     1     -10.491  16.800  65.242  0.00  0.00    +0.367 C 
ATOM     29  O   UNL     1      -9.732  15.653  65.259  0.00  0.00    -0.246 OA
ATOM     30  O   UNL     1     -11.320  16.925  64.306  0.00  0.00    -0.246 OA
ENDBRANCH  27  28
ENDBRANCH  25  27
ENDBRANCH  24  25
ENDBRANCH  22  24
ENDBRANCH  21  22
ENDBRANCH   9  20
TORSDOF 8
ENDMDL
MODEL 4
REMARK VINA RESULT:      -7.5      2.753      4.936
REMARK  Name = 
REMARK  8 active torsions:
REMARK  status: ('A' for Active; 'I' for Inactive)
REMARK    1  A    between atoms: C_2  and  N_4
REMARK    2  A    between atoms: C_5  and  C_6
REMARK    3  A    between atoms: C_7  and  C_8
REMARK    4  A    between atoms: C_8  and  C_10
REMARK    5  A    between atoms: C_10  and  C_11
REMARK    6  A    between atoms: C_11  and  C_13
REMARK    7  A    between atoms: C_13  and  C_14
REMARK    8  A    between atoms: C_17  and  C_18
REMARK                            x       y       z     vdW  Elec       q    Type
REMARK                         _______ _______ _______ _____ _____    ______ ____
ROOT
ATOM      1  N   UNL     1     -12.097  12.288  70.144  0.00  0.00    -0.329 N 
ATOM      2  C   UNL     1     -12.569  13.220  70.991  0.00  0.00    +0.060 A 
ATOM      3  C   UNL     1     -11.983  14.404  70.591  0.00  0.00    +0.017 A 
ATOM      4  C   UNL     1     -12.306  15.583  71.243  0.00  0.00    +0.001 A 
ATOM      5  C   UNL     1     -13.314  15.585  72.184  0.00  0.00    +0.000 A 
ATOM      6  C   UNL     1     -13.924  14.382  72.520  0.00  0.00    +0.001 A 
ATOM      7  C   UNL     1     -11.385  14.211  69.356  0.00  0.00    +0.017 A 
ATOM      8  C   UNL     1     -13.508  13.188  71.998  0.00  0.00    +0.017 A 
ATOM      9  C   UNL     1     -11.636  12.897  69.028  0.00  0.00    +0.060 A 
ENDROOT
BRANCH   7  10
ATOM     10  C   UNL     1     -10.388  15.053  68.707  0.00  0.00    +0.002 A 
ATOM     11  C   UNL     1      -9.064  15.097  69.078  0.00  0.00    +0.002 A 
ATOM     12  C   UNL     1      -8.323  16.223  68.762  0.00  0.00    +0.030 A 
ATOM     13  C   UNL     1      -8.645  16.951  67.630  0.00  0.00    +0.140 A 
ATOM     14  F   UNL     1      -7.715  17.510  66.836  0.00  0.00    -0.204 F 
ATOM     15  C   UNL     1      -9.909  16.760  67.115  0.00  0.00    +0.030 A 
ATOM     16  C   UNL     1     -10.784  15.878  67.674  0.00  0.00    +0.002 A 
ENDBRANCH   7  10
BRANCH   1  18
ATOM     17  C   UNL     1     -12.371  10.653  70.221  0.00  0.00    +0.024 C 
ATOM     18  C   UNL     1     -12.117  10.869  70.457  0.00  0.00    +0.086 C 
ATOM     19  C   UNL     1     -10.737  10.245  70.401  0.00  0.00    +0.024 C 
ENDBRANCH   1  18
BRANCH   9  20
ATOM     20  C   UNL     1     -11.495  12.257  67.734  0.00  0.00    +0.015 C 
ATOM     21  C   UNL     1     -10.363  11.808  67.220  0.00  0.00    +0.008 C 
BRANCH  21  22
ATOM     22  C   UNL     1     -10.565  10.438  66.334  0.00  0.00    +0.177 C 
ATOM     23  O   UNL     1      -9.354   9.778  67.018  0.00  0.00    -0.218 OA
BRANCH  22  24
ATOM     24  C   UNL     1      -9.628  11.037  65.085  0.00  0.00    +0.071 C 
BRANCH  24  25
ATOM     25  C   UNL     1     -10.832  11.204  63.943  0.00  0.00    +0.166 C 
ATOM     26  O   UNL     1      -9.811  11.136  62.797  0.00  0.00    -0.222 OA
BRANCH  25  27
ATOM     27  C   UNL     1     -10.739  12.866  63.983  0.00  0.00    +0.147 C 
BRANCH  27  28
ATOM     28  C   UNL     1     -12.180  13.228  64.126  0.00  0.00    +0.367 C 
ATOM     29  O   UNL     1     -13.156  12.372  64.581  0.00  0.00    -0.246 OA
ATOM     30  O   UNL     1     -12.539  14.390  63.809  0.00  0.00    -0.246 OA
ENDBRANCH  27  28
ENDBRANCH  25  27
ENDBRANCH  24  25
ENDBRANCH  22  24
ENDBRANCH  21  22
ENDBRANCH   9  20
TORSDOF 8
ENDMDL
MODEL 5
REMARK VINA RESULT:      -7.3      4.150      6.603
REMARK  Name = 
REMARK  8 active torsions:
REMARK  status: ('A' for Active; 'I' for Inactive)
REMARK    1  A    between atoms: C_2  and  N_4
REMARK    2  A    between atoms: C_5  and  C_6
REMARK    3  A    between atoms: C_7  and  C_8
REMARK    4  A    between atoms: C_8  and  C_10
REMARK    5  A    between atoms: C_10  and  C_11
REMARK    6  A    between atoms: C_11  and  C_13
REMARK    7  A    between atoms: C_13  and  C_14
REMARK    8  A    between atoms: C_17  and  C_18
REMARK                            x       y       z     vdW  Elec       q    Type
REMARK                         _______ _______ _______ _____ _____    ______ ____
ROOT
ATOM      1  N   UNL     1     -12.176  14.406  70.225  0.00  0.00    -0.329 N 
ATOM      2  C   UNL     1     -12.459  13.130  70.545  0.00  0.00    +0.060 A 
ATOM      3  C   UNL     1     -12.134  12.393  69.424  0.00  0.00    +0.017 A 
ATOM      4  C   UNL     1     -12.269  11.015  69.447  0.00  0.00    +0.001 A 
ATOM      5  C   UNL     1     -12.584  10.383  70.632  0.00  0.00    +0.000 A 
ATOM      6  C   UNL     1     -12.846  11.155  71.757  0.00  0.00    +0.001 A 
ATOM      7  C   UNL     1     -11.418  13.198  68.553  0.00  0.00    +0.017 A 
ATOM      8  C   UNL     1     -12.870  12.522  71.710  0.00  0.00    +0.017 A 
ATOM      9  C   UNL     1     -11.314  14.419  69.182  0.00  0.00    +0.060 A 
ENDROOT
BRANCH   7  10
ATOM     10  C   UNL     1     -11.156  12.969  67.138  0.00  0.00    +0.002 A 
ATOM     11  C   UNL     1     -11.995  13.379  66.127  0.00  0.00    +0.002 A 
ATOM     12  C   UNL     1     -11.933  12.726  64.907  0.00  0.00    +0.030 A 
ATOM     13  C   UNL     1     -10.734  12.174  64.494  0.00  0.00    +0.140 A 
ATOM     14  F   UNL     1     -10.325  12.202  63.213  0.00  0.00    -0.204 F 
ATOM     15  C   UNL     1      -9.791  11.949  65.472  0.00  0.00    +0.030 A 
ATOM     16  C   UNL     1     -10.017  12.280  66.775  0.00  0.00    +0.002 A 
ENDBRANCH   7  10
BRANCH   1  18
ATOM     17  C   UNL     1     -13.141  15.478  71.045  0.00  0.00    +0.024 C 
ATOM     18  C   UNL     1     -12.751  15.534  70.937  0.00  0.00    +0.086 C 
ATOM     19  C   UNL     1     -11.946  15.916  72.162  0.00  0.00    +0.024 C 
ENDBRANCH   1  18
BRANCH   9  20
ATOM     20  C   UNL     1     -10.427  15.519  68.855  0.00  0.00    +0.015 C 
ATOM     21  C   UNL     1     -10.737  16.554  68.094  0.00  0.00    +0.008 C 
BRANCH  21  22
ATOM     22  C   UNL     1     -10.036  17.951  68.602  0.00  0.00    +0.177 C 
ATOM     23  O   UNL     1     -10.940  18.781  67.672  0.00  0.00    -0.218 OA
BRANCH  22  24
ATOM     24  C   UNL     1      -8.831  17.835  67.447  0.00  0.00    +0.071 C 
BRANCH  24  25
ATOM     25  C   UNL     1      -8.502  19.462  67.282  0.00  0.00    +0.166 C 
ATOM     26  O   UNL     1      -8.385  19.325  65.756  0.00  0.00    -0.222 OA
BRANCH  25  27
ATOM     27  C   UNL     1      -6.865  19.224  67.471  0.00  0.00    +0.147 C 
BRANCH  27  28
ATOM     28  C   UNL     1      -6.445  20.553  68.007  0.00  0.00    +0.367 C 
ATOM     29  O   UNL     1      -5.953  20.760  69.275  0.00  0.00    -0.246 OA
ATOM     30  O   UNL     1      -6.548  21.558  67.261  0.00  0.00    -0.246 OA
ENDBRANCH  27  28
ENDBRANCH  25  27
ENDBRANCH  24  25
ENDBRANCH  22  24
ENDBRANCH  21  22
ENDBRANCH   9  20
TORSDOF 8
ENDMDL
MODEL 6
REMARK VINA RESULT:      -7.2      2.975      5.508
REMARK  Name = 
REMARK  8 active torsions:
REMARK  status: ('A' for Active; 'I' for Inactive)
REMARK    1  A    between atoms: C_2  and  N_4
REMARK    2  A    between atoms: C_5  and  C_6
REMARK    3  A    between atoms: C_7  and  C_8
REMARK    4  A    between atoms: C_8  and  C_10
REMARK    5  A    between atoms: C_10  and  C_11
REMARK    6  A    between atoms: C_11  and  C_13
REMARK    7  A    between atoms: C_13  and  C_14
REMARK    8  A    between atoms: C_17  and  C_18
REMARK                            x       y       z     vdW  Elec       q    Type
REMARK                         _______ _______ _______ _____ _____    ______ ____
ROOT
ATOM      1  N   UNL     1     -12.016  12.664  69.778  0.00  0.00    -0.329 N 
ATOM      2  C   UNL     1     -12.386  13.409  70.835  0.00  0.00    +0.060 A 
ATOM      3  C   UNL     1     -11.797  14.641  70.636  0.00  0.00    +0.017 A 
ATOM      4  C   UNL     1     -12.027  15.665  71.541  0.00  0.00    +0.001 A 
ATOM      5  C   UNL     1     -12.955  15.487  72.546  0.00  0.00    +0.000 A 
ATOM      6  C   UNL     1     -13.573  14.250  72.681  0.00  0.00    +0.001 A 
ATOM      7  C   UNL     1     -11.308  14.698  69.341  0.00  0.00    +0.017 A 
ATOM      8  C   UNL     1     -13.241  13.183  71.892  0.00  0.00    +0.017 A 
ATOM      9  C   UNL     1     -11.627  13.484  68.775  0.00  0.00    +0.060 A 
ENDROOT
BRANCH   7  10
ATOM     10  C   UNL     1     -10.341  15.641  68.794  0.00  0.00    +0.002 A 
ATOM     11  C   UNL     1      -8.979  15.456  68.842  0.00  0.00    +0.002 A 
ATOM     12  C   UNL     1      -8.154  16.564  68.753  0.00  0.00    +0.030 A 
ATOM     13  C   UNL     1      -8.576  17.667  68.032  0.00  0.00    +0.140 A 
ATOM     14  F   UNL     1      -7.743  18.402  67.274  0.00  0.00    -0.204 F 
ATOM     15  C   UNL     1      -9.929  17.762  67.789  0.00  0.00    +0.030 A 
ATOM     16  C   UNL     1     -10.801  16.805  68.213  0.00  0.00    +0.002 A 
ENDBRANCH   7  10
BRANCH   1  18
ATOM     17  C   UNL     1     -12.258  11.050  69.479  0.00  0.00    +0.024 C 
ATOM     18  C   UNL     1     -12.055  11.212  69.795  0.00  0.00    +0.086 C 
ATOM     19  C   UNL     1     -10.672  10.596  69.862  0.00  0.00    +0.024 C 
ENDBRANCH   1  18
BRANCH   9  20
ATOM     20  C   UNL     1     -11.613  13.123  67.369  0.00  0.00    +0.015 C 
ATOM     21  C   UNL     1     -12.213  13.792  66.400  0.00  0.00    +0.008 C 
BRANCH  21  22
ATOM     22  C   UNL     1     -11.363  13.777  64.995  0.00  0.00    +0.177 C 
ATOM     23  O   UNL     1     -12.654  13.949  64.173  0.00  0.00    -0.218 OA
BRANCH  22  24
ATOM     24  C   UNL     1     -11.435  12.109  64.898  0.00  0.00    +0.071 C 
BRANCH  24  25
ATOM     25  C   UNL     1      -9.834  11.822  64.532  0.00  0.00    +0.166 C 
ATOM     26  O   UNL     1     -10.141  11.793  63.027  0.00  0.00    -0.222 OA
BRANCH  25  27
ATOM     27  C   UNL     1     -10.028  10.172  64.646  0.00  0.00    +0.147 C 
BRANCH  27  28
ATOM     28  C   UNL     1      -9.808   9.960  66.107  0.00  0.00    +0.367 C 
ATOM     29  O   UNL     1      -8.911  10.671  66.869  0.00  0.00    -0.246 OA
ATOM     30  O   UNL     1     -10.479   9.073  66.690  0.00  0.00    -0.246 OA
ENDBRANCH  27  28
ENDBRANCH  25  27
ENDBRANCH  24  25
ENDBRANCH  22  24
ENDBRANCH  21  22
ENDBRANCH   9  20
TORSDOF 8
ENDMDL
MODEL 7
REMARK VINA RESULT:      -7.2      2.737      5.236
REMARK  Name = 
REMARK  8 active torsions:
REMARK  status: ('A' for Active; 'I' for Inactive)
REMARK    1  A    between atoms: C_2  and  N_4
REMARK    2  A    between atoms: C_5  and  C_6
REMARK    3  A    between atoms: C_7  and  C_8
REMARK    4  A    between atoms: C_8  and  C_10
REMARK    5  A    between atoms: C_10  and  C_11
REMARK    6  A    between atoms: C_11  and  C_13
REMARK    7  A    between atoms: C_13  and  C_14
REMARK    8  A    between atoms: C_17  and  C_18
REMARK                            x       y       z     vdW  Elec       q    Type
REMARK                         _______ _______ _______ _____ _____    ______ ____
ROOT
ATOM      1  N   UNL     1     -10.325  10.685  69.195  0.00  0.00    -0.329 N 
ATOM      2  C   UNL     1     -10.884   9.747  69.980  0.00  0.00    +0.060 A 
ATOM      3  C   UNL     1     -11.792  10.426  70.768  0.00  0.00    +0.017 A 
ATOM      4  C   UNL     1     -12.579   9.725  71.667  0.00  0.00    +0.001 A 
ATOM      5  C   UNL     1     -12.551   8.346  71.662  0.00  0.00    +0.000 A 
ATOM      6  C   UNL     1     -11.666   7.693  70.812  0.00  0.00    +0.001 A 
ATOM      7  C   UNL     1     -11.954  11.705  70.261  0.00  0.00    +0.017 A 
ATOM      8  C   UNL     1     -10.773   8.375  70.032  0.00  0.00    +0.017 A 
ATOM      9  C   UNL     1     -11.135  11.768  69.154  0.00  0.00    +0.060 A 
ENDROOT
BRANCH   7  10
ATOM     10  C   UNL     1     -12.537  12.862  70.928  0.00  0.00    +0.002 A 
ATOM     11  C   UNL     1     -13.381  12.777  72.011  0.00  0.00    +0.002 A 
ATOM     12  C   UNL     1     -14.242  13.830  72.267  0.00  0.00    +0.030 A 
ATOM     13  C   UNL     1     -13.869  15.113  71.907  0.00  0.00    +0.140 A 
ATOM     14  F   UNL     1     -14.149  16.190  72.663  0.00  0.00    -0.204 F 
ATOM     15  C   UNL     1     -12.866  15.222  70.969  0.00  0.00    +0.030 A 
ATOM     16  C   UNL     1     -12.255  14.122  70.443  0.00  0.00    +0.002 A 
ENDBRANCH   7  10
BRANCH   1  18
ATOM     17  C   UNL     1      -8.777  10.280  68.758  0.00  0.00    +0.024 C 
ATOM     18  C   UNL     1      -9.047  10.487  68.532  0.00  0.00    +0.086 C 
ATOM     19  C   UNL     1      -9.193   9.809  67.185  0.00  0.00    +0.024 C 
ENDBRANCH   1  18
BRANCH   9  20
ATOM     20  C   UNL     1     -11.140  12.760  68.096  0.00  0.00    +0.015 C 
ATOM     21  C   UNL     1     -11.683  12.603  66.901  0.00  0.00    +0.008 C 
BRANCH  21  22
ATOM     22  C   UNL     1     -12.350  13.987  66.319  0.00  0.00    +0.177 C 
ATOM     23  O   UNL     1     -12.977  13.226  65.136  0.00  0.00    -0.218 OA
BRANCH  22  24
ATOM     24  C   UNL     1     -10.971  14.355  65.447  0.00  0.00    +0.071 C 
BRANCH  24  25
ATOM     25  C   UNL     1     -10.706  15.885  66.054  0.00  0.00    +0.166 C 
ATOM     26  O   UNL     1     -10.764  16.498  64.647  0.00  0.00    -0.222 OA
BRANCH  25  27
ATOM     27  C   UNL     1      -9.052  15.715  65.959  0.00  0.00    +0.147 C 
BRANCH  27  28
ATOM     28  C   UNL     1      -8.600  17.039  66.480  0.00  0.00    +0.367 C 
ATOM     29  O   UNL     1      -8.880  17.516  67.739  0.00  0.00    -0.246 OA
ATOM     30  O   UNL     1      -7.920  17.778  65.725  0.00  0.00    -0.246 OA
ENDBRANCH  27  28
ENDBRANCH  25  27
ENDBRANCH  24  25
ENDBRANCH  22  24
ENDBRANCH  21  22
ENDBRANCH   9  20
TORSDOF 8
ENDMDL
MODEL 8
REMARK VINA RESULT:      -7.1      2.979      6.137
REMARK  Name = 
REMARK  8 active torsions:
REMARK  status: ('A' for Active; 'I' for Inactive)
REMARK    1  A    between atoms: C_2  and  N_4
REMARK    2  A    between atoms: C_5  and  C_6
REMARK    3  A    between atoms: C_7  and  C_8
REMARK    4  A    between atoms: C_8  and  C_10
REMARK    5  A    between atoms: C_10  and  C_11
REMARK    6  A    between atoms: C_11  and  C_13
REMARK    7  A    between atoms: C_13  and  C_14
REMARK    8  A    between atoms: C_17  and  C_18
REMARK                            x       y       z     vdW  Elec       q    Type
REMARK                         _______ _______ _______ _____ _____    ______ ____
ROOT
ATOM      1  N   UNL     1     -10.475  13.553  66.434  0.00  0.00    -0.329 N 
ATOM      2  C   UNL     1     -10.263  12.615  65.494  0.00  0.00    +0.060 A 
ATOM      3  C   UNL     1     -10.280  11.412  66.171  0.00  0.00    +0.017 A 
ATOM      4  C   UNL     1     -10.135  10.227  65.467  0.00  0.00    +0.001 A 
ATOM      5  C   UNL     1     -10.123  10.254  64.088  0.00  0.00    +0.000 A 
ATOM      6  C   UNL     1     -10.168  11.481  63.437  0.00  0.00    +0.001 A 
ATOM      7  C   UNL     1     -10.763  11.627  67.451  0.00  0.00    +0.017 A 
ATOM      8  C   UNL     1     -10.153  12.666  64.122  0.00  0.00    +0.017 A 
ATOM      9  C   UNL     1     -11.043  12.974  67.517  0.00  0.00    +0.060 A 
ENDROOT
BRANCH   7  10
ATOM     10  C   UNL     1     -10.652  10.745  68.606  0.00  0.00    +0.002 A 
ATOM     11  C   UNL     1     -11.727  10.323  69.354  0.00  0.00    +0.002 A 
ATOM     12  C   UNL     1     -11.509   9.914  70.658  0.00  0.00    +0.030 A 
ATOM     13  C   UNL     1     -10.293   9.346  70.997  0.00  0.00    +0.140 A 
ATOM     14  F   UNL     1     -10.185   8.321  71.860  0.00  0.00    -0.204 F 
ATOM     15  C   UNL     1      -9.242   9.585  70.138  0.00  0.00    +0.030 A 
ATOM     16  C   UNL     1      -9.400  10.319  69.000  0.00  0.00    +0.002 A 
ENDBRANCH   7  10
BRANCH   1  18
ATOM     17  C   UNL     1      -9.728  15.003  66.127  0.00  0.00    +0.024 C 
ATOM     18  C   UNL     1     -10.118  14.948  66.238  0.00  0.00    +0.086 C 
ATOM     19  C   UNL     1     -11.021  15.641  65.238  0.00  0.00    +0.024 C 
ENDBRANCH   1  18
BRANCH   9  20
ATOM     20  C   UNL     1     -11.834  13.674  68.511  0.00  0.00    +0.015 C 
ATOM     21  C   UNL     1     -11.352  14.332  69.550  0.00  0.00    +0.008 C 
BRANCH  21  22
ATOM     22  C   UNL     1     -12.224  15.676  69.914  0.00  0.00    +0.177 C 
ATOM     23  O   UNL     1     -11.140  16.585  69.304  0.00  0.00    -0.218 OA
BRANCH  22  24
ATOM     24  C   UNL     1     -11.548  15.773  71.442  0.00  0.00    +0.071 C 
BRANCH  24  25
ATOM     25  C   UNL     1     -12.959  15.930  72.317  0.00  0.00    +0.166 C 
ATOM     26  O   UNL     1     -12.230  16.693  73.433  0.00  0.00    -0.222 OA
BRANCH  25  27
ATOM     27  C   UNL     1     -12.723  14.477  73.096  0.00  0.00    +0.147 C 
BRANCH  27  28
ATOM     28  C   UNL     1     -13.743  13.623  72.420  0.00  0.00    +0.367 C 
ATOM     29  O   UNL     1     -15.019  14.031  72.112  0.00  0.00    -0.246 OA
ATOM     30  O   UNL     1     -13.426  12.448  72.109  0.00  0.00    -0.246 OA
ENDBRANCH  27  28
ENDBRANCH  25  27
ENDBRANCH  24  25
ENDBRANCH  22  24
ENDBRANCH  21  22
ENDBRANCH   9  20
TORSDOF 8
ENDMDL
MODEL 9
REMARK VINA RESULT:      -7.0      2.572      5.026
REMARK  Name = 
REMARK  8 active torsions:
REMARK  status: ('A' for Active; 'I' for Inactive)
REMARK    1  A    between atoms: C_2  and  N_4
REMARK    2  A    between atoms: C_5  and  C_6
REMARK    3  A    between atoms: C_7  and  C_8
REMARK    4  A    between atoms: C_8  and  C_10
REMARK    5  A    between atoms: C_10  and  C_11
REMARK    6  A    between atoms: C_11  and  C_13
REMARK    7  A    between atoms: C_13  and  C_14
REMARK    8  A    between atoms: C_17  and  C_18
REMARK                            x       y       z     vdW  Elec       q    Type
REMARK                         _______ _______ _______ _____ _____    ______ ____
ROOT
ATOM      1  N   UNL     1     -10.747   9.422  69.981  0.00  0.00    -0.329 N 
ATOM      2  C   UNL     1     -11.662   8.805  70.749  0.00  0.00    +0.060 A 
ATOM      3  C   UNL     1     -12.471   9.813  71.233  0.00  0.00    +0.017 A 
ATOM      4  C   UNL     1     -13.557   9.497  72.032  0.00  0.00    +0.001 A 
ATOM      5  C   UNL     1     -13.903   8.174  72.216  0.00  0.00    +0.000 A 
ATOM      6  C   UNL     1     -13.098   7.185  71.664  0.00  0.00    +0.001 A 
ATOM      7  C   UNL     1     -12.193  10.980  70.538  0.00  0.00    +0.017 A 
ATOM      8  C   UNL     1     -11.936   7.479  71.005  0.00  0.00    +0.017 A 
ATOM      9  C   UNL     1     -11.215  10.641  69.629  0.00  0.00    +0.060 A 
ENDROOT
BRANCH   7  10
ATOM     10  C   UNL     1     -12.546  12.344  70.910  0.00  0.00    +0.002 A 
ATOM     11  C   UNL     1     -12.143  13.457  70.209  0.00  0.00    +0.002 A 
ATOM     12  C   UNL     1     -12.101  14.676  70.865  0.00  0.00    +0.030 A 
ATOM     13  C   UNL     1     -12.982  14.917  71.903  0.00  0.00    +0.140 A 
ATOM     14  F   UNL     1     -13.557  16.116  72.104  0.00  0.00    -0.204 F 
ATOM     15  C   UNL     1     -13.565  13.813  72.485  0.00  0.00    +0.030 A 
ATOM     16  C   UNL     1     -13.307  12.550  72.042  0.00  0.00    +0.002 A 
ENDBRANCH   7  10
BRANCH   1  18
ATOM     17  C   UNL     1      -9.299   8.611  69.944  0.00  0.00    +0.024 C 
ATOM     18  C   UNL     1      -9.478   8.806  69.632  0.00  0.00    +0.086 C 
ATOM     19  C   UNL     1      -9.599   7.857  68.457  0.00  0.00    +0.024 C 
ENDBRANCH   1  18
BRANCH   9  20
ATOM     20  C   UNL     1     -10.775  11.395  68.470  0.00  0.00    +0.015 C 
ATOM     21  C   UNL     1     -11.018  11.078  67.211  0.00  0.00    +0.008 C 
BRANCH  21  22
ATOM     22  C   UNL     1     -11.256  12.394  66.257  0.00  0.00    +0.177 C 
ATOM     23  O   UNL     1     -10.145  11.938  65.293  0.00  0.00    -0.218 OA
BRANCH  22  24
ATOM     24  C   UNL     1     -10.195  13.317  67.162  0.00  0.00    +0.071 C 
BRANCH  24  25
ATOM     25  C   UNL     1     -10.916  14.803  66.932  0.00  0.00    +0.166 C 
ATOM     26  O   UNL     1     -12.294  14.151  66.744  0.00  0.00    -0.222 OA
BRANCH  25  27
ATOM     27  C   UNL     1     -10.629  14.770  65.292  0.00  0.00    +0.147 C 
BRANCH  27  28
ATOM     28  C   UNL     1     -10.818  16.209  64.942  0.00  0.00    +0.367 C 
ATOM     29  O   UNL     1     -11.588  16.660  63.896  0.00  0.00    -0.246 OA
ATOM     30  O   UNL     1     -10.237  17.075  65.642  0.00  0.00    -0.246 OA
ENDBRANCH  27  28
ENDBRANCH  25  27
ENDBRANCH  24  25
ENDBRANCH  22  24
ENDBRANCH  21  22
ENDBRANCH   9  20
TORSDOF 8
ENDMDL
