MODEL 1
REMARK VINA RESULT:      -6.9      0.000      0.000
REMARK  Name = 
REMARK  8 active torsions:
REMARK  status: ('A' for Active; 'I' for Inactive)
REMARK    1  A    between atoms: C_2  and  O_4
REMARK    2  A    between atoms: O_4  and  C_5
REMARK    3  A    between atoms: C_5  and  C_6
REMARK    4  A    between atoms: C_8  and  N_9
REMARK    5  A    between atoms: C_17  and  O_18
REMARK    6  A    between atoms: O_18  and  C_19
REMARK    7  A    between atoms: C_22  and  O_23
REMARK    8  A    between atoms: O_23  and  C_24
REMARK                            x       y       z     vdW  Elec       q    Type
REMARK                         _______ _______ _______ _____ _____    ______ ____
ROOT
ATOM      1  C   UNL     1     -12.197  13.649  68.737  0.00  0.00    +0.204 C 
ATOM      2  C   UNL     1     -10.561  13.123  68.527  0.00  0.00    +0.244 C 
ATOM      3  C   UNL     1     -10.619  13.675  66.913  0.00  0.00    +0.260 C 
ATOM      4  C   UNL     1     -11.603  15.081  67.231  0.00  0.00    +0.253 C 
ATOM      5  O   UNL     1     -11.491  15.007  68.758  0.00  0.00    -0.327 OA
ENDROOT
BRANCH   4   6
ATOM      6  N   UNL     1     -10.351  16.103  67.176  0.00  0.00    -0.253 N 
ATOM      7  C   UNL     1     -10.320  16.866  66.093  0.00  0.00    +0.355 A 
ATOM      8  O   UNL     1     -10.436  16.279  64.997  0.00  0.00    -0.244 OA
ATOM      9  N   UNL     1      -9.450  17.903  66.092  0.00  0.00    -0.153 NA
ATOM     10  C   UNL     1      -9.303  18.529  67.278  0.00  0.00    +0.285 A 
ATOM     11  O   UNL     1      -8.746  19.658  67.286  0.00  0.00    -0.265 OA
ATOM     12  C   UNL     1      -9.805  18.009  68.424  0.00  0.00    +0.081 A 
ATOM     13  C   UNL     1     -10.361  16.740  68.377  0.00  0.00    +0.087 A 
ENDBRANCH   4   6
BRANCH   1  14
ATOM     14  C   UNL     1     -12.031  13.488  70.393  0.00  0.00    +0.242 C 
BRANCH  14  15
ATOM     15  O   UNL     1     -12.816  14.608  70.798  0.00  0.00    -0.446 OA
BRANCH  15  17
ATOM     16  C   UNL     1     -14.800  15.042  71.712  0.00  0.00    +0.121 C 
ATOM     17  C   UNL     1     -13.938  14.459  71.619  0.00  0.00    +0.318 C 
ATOM     18  O   UNL     1     -13.809  13.613  72.540  0.00  0.00    -0.250 OA
ENDBRANCH  15  17
ENDBRANCH  14  15
ENDBRANCH   1  14
BRANCH   3  19
ATOM     19  O   UNL     1     -11.882  12.883  66.548  0.00  0.00    -0.444 OA
BRANCH  19  20
ATOM     20  C   UNL     1     -11.968  12.438  65.251  0.00  0.00    +0.318 C 
ATOM     21  O   UNL     1     -13.114  12.504  64.713  0.00  0.00    -0.250 OA
ATOM     22  C   UNL     1     -10.858  12.859  64.336  0.00  0.00    +0.121 C 
ENDBRANCH  19  20
ENDBRANCH   3  19
BRANCH   2  23
ATOM     23  O   UNL     1     -10.936  11.659  68.230  0.00  0.00    -0.446 OA
BRANCH  23  24
ATOM     24  C   UNL     1     -10.041  10.820  68.869  0.00  0.00    +0.318 C 
ATOM     25  O   UNL     1      -8.809  11.052  68.769  0.00  0.00    -0.250 OA
ATOM     26  C   UNL     1     -10.497   9.959  69.975  0.00  0.00    +0.121 C 
ENDBRANCH  23  24
ENDBRANCH   2  23
TORSDOF 8
ENDMDL
MODEL 2
REMARK VINA RESULT:      -6.8      2.144      5.434
REMARK  Name = 
REMARK  8 active torsions:
REMARK  status: ('A' for Active; 'I' for Inactive)
REMARK    1  A    between atoms: C_2  and  O_4
REMARK    2  A    between atoms: O_4  and  C_5
REMARK    3  A    between atoms: C_5  and  C_6
REMARK    4  A    between atoms: C_8  and  N_9
REMARK    5  A    between atoms: C_17  and  O_18
REMARK    6  A    between atoms: O_18  and  C_19
REMARK    7  A    between atoms: C_22  and  O_23
REMARK    8  A    between atoms: O_23  and  C_24
REMARK                            x       y       z     vdW  Elec       q    Type
REMARK                         _______ _______ _______ _____ _____    ______ ____
ROOT
ATOM      1  C   UNL     1     -10.149  14.815  66.797  0.00  0.00    +0.204 C 
ATOM      2  C   UNL     1     -11.683  14.204  66.279  0.00  0.00    +0.244 C 
ATOM      3  C   UNL     1     -11.506  12.907  67.374  0.00  0.00    +0.260 C 
ATOM      4  C   UNL     1     -10.724  13.829  68.633  0.00  0.00    +0.253 C 
ATOM      5  O   UNL     1     -10.998  15.203  68.011  0.00  0.00    -0.327 OA
ENDROOT
BRANCH   4   6
ATOM      6  N   UNL     1     -12.067  13.951  69.526  0.00  0.00    -0.253 N 
ATOM      7  C   UNL     1     -12.128  13.091  70.532  0.00  0.00    +0.355 A 
ATOM      8  O   UNL     1     -11.914  11.893  70.254  0.00  0.00    -0.244 OA
ATOM      9  N   UNL     1     -13.096  13.294  71.459  0.00  0.00    -0.153 NA
ATOM     10  C   UNL     1     -13.348  14.586  71.750  0.00  0.00    +0.285 A 
ATOM     11  O   UNL     1     -14.013  14.840  72.789  0.00  0.00    -0.265 OA
ATOM     12  C   UNL     1     -12.843  15.597  71.001  0.00  0.00    +0.081 A 
ATOM     13  C   UNL     1     -12.166  15.271  69.837  0.00  0.00    +0.087 A 
ENDBRANCH   4   6
BRANCH   1  14
ATOM     14  C   UNL     1     -10.481  16.272  66.045  0.00  0.00    +0.242 C 
BRANCH  14  15
ATOM     15  O   UNL     1     -10.090  17.151  67.097  0.00  0.00    -0.446 OA
BRANCH  15  17
ATOM     16  C   UNL     1     -10.394  19.202  66.283  0.00  0.00    +0.121 C 
ATOM     17  C   UNL     1     -10.402  18.514  67.069  0.00  0.00    +0.318 C 
ATOM     18  O   UNL     1     -10.509  19.054  68.199  0.00  0.00    -0.250 OA
ENDBRANCH  15  17
ENDBRANCH  14  15
ENDBRANCH   1  14
BRANCH   3  19
ATOM     19  O   UNL     1     -10.131  12.476  66.846  0.00  0.00    -0.444 OA
BRANCH  19  20
ATOM     20  C   UNL     1      -9.879  11.125  66.834  0.00  0.00    +0.318 C 
ATOM     21  O   UNL     1     -10.778  10.385  67.337  0.00  0.00    -0.250 OA
ATOM     22  C   UNL     1      -9.300  10.575  65.565  0.00  0.00    +0.121 C 
ENDBRANCH  19  20
ENDBRANCH   3  19
BRANCH   2  23
ATOM     23  O   UNL     1     -11.119  13.476  65.044  0.00  0.00    -0.446 OA
BRANCH  23  24
ATOM     24  C   UNL     1     -12.123  13.325  64.106  0.00  0.00    +0.318 C 
ATOM     25  O   UNL     1     -12.598  14.348  63.550  0.00  0.00    -0.250 OA
ATOM     26  C   UNL     1     -12.333  12.019  63.453  0.00  0.00    +0.121 C 
ENDBRANCH  23  24
ENDBRANCH   2  23
TORSDOF 8
ENDMDL
MODEL 3
REMARK VINA RESULT:      -6.4      2.820      6.348
REMARK  Name = 
REMARK  8 active torsions:
REMARK  status: ('A' for Active; 'I' for Inactive)
REMARK    1  A    between atoms: C_2  and  O_4
REMARK    2  A    between atoms: O_4  and  C_5
REMARK    3  A    between atoms: C_5  and  C_6
REMARK    4  A    between atoms: C_8  and  N_9
REMARK    5  A    between atoms: C_17  and  O_18
REMARK    6  A    between atoms: O_18  and  C_19
REMARK    7  A    between atoms: C_22  and  O_23
REMARK    8  A    between atoms: O_23  and  C_24
REMARK                            x       y       z     vdW  Elec       q    Type
REMARK                         _______ _______ _______ _____ _____    ______ ____
ROOT
ATOM      1  C   UNL     1     -10.361  13.778  67.421  0.00  0.00    +0.204 C 
ATOM      2  C   UNL     1     -11.678  13.021  66.588  0.00  0.00    +0.244 C 
ATOM      3  C   UNL     1     -10.930  11.508  66.835  0.00  0.00    +0.260 C 
ATOM      4  C   UNL     1     -10.305  11.864  68.426  0.00  0.00    +0.253 C 
ATOM      5  O   UNL     1     -11.097  13.164  68.615  0.00  0.00    -0.327 OA
ENDROOT
BRANCH   4   6
ATOM      6  N   UNL     1     -11.465  11.032  69.185  0.00  0.00    -0.253 N 
ATOM      7  C   UNL     1     -11.051   9.895  69.726  0.00  0.00    +0.355 A 
ATOM      8  O   UNL     1     -10.400   9.132  68.983  0.00  0.00    -0.244 OA
ATOM      9  N   UNL     1     -11.900   9.271  70.577  0.00  0.00    -0.153 NA
ATOM     10  C   UNL     1     -12.623  10.091  71.368  0.00  0.00    +0.285 A 
ATOM     11  O   UNL     1     -13.206   9.588  72.365  0.00  0.00    -0.265 OA
ATOM     12  C   UNL     1     -12.667  11.428  71.157  0.00  0.00    +0.081 A 
ATOM     13  C   UNL     1     -12.058  11.929  70.017  0.00  0.00    +0.087 A 
ENDBRANCH   4   6
BRANCH   1  14
ATOM     14  C   UNL     1     -11.254  15.187  67.541  0.00  0.00    +0.242 C 
BRANCH  14  15
ATOM     15  O   UNL     1     -10.198  16.127  67.349  0.00  0.00    -0.446 OA
BRANCH  15  17
ATOM     16  C   UNL     1     -10.257  18.100  66.318  0.00  0.00    +0.121 C 
ATOM     17  C   UNL     1     -10.224  17.056  66.305  0.00  0.00    +0.318 C 
ATOM     18  O   UNL     1     -10.454  16.567  65.170  0.00  0.00    -0.250 OA
ENDBRANCH  15  17
ENDBRANCH  14  15
ENDBRANCH   1  14
BRANCH   3  19
ATOM     19  O   UNL     1      -9.585  11.923  66.223  0.00  0.00    -0.444 OA
BRANCH  19  20
ATOM     20  C   UNL     1      -8.896  10.946  65.546  0.00  0.00    +0.318 C 
ATOM     21  O   UNL     1      -7.849  10.507  66.111  0.00  0.00    -0.250 OA
ATOM     22  C   UNL     1      -9.728   9.867  64.921  0.00  0.00    +0.121 C 
ENDBRANCH  19  20
ENDBRANCH   3  19
BRANCH   2  23
ATOM     23  O   UNL     1     -11.102  13.279  65.182  0.00  0.00    -0.446 OA
BRANCH  23  24
ATOM     24  C   UNL     1     -12.135  13.292  64.262  0.00  0.00    +0.318 C 
ATOM     25  O   UNL     1     -12.593  14.396  63.874  0.00  0.00    -0.250 OA
ATOM     26  C   UNL     1     -12.399  12.100  63.434  0.00  0.00    +0.121 C 
ENDBRANCH  23  24
ENDBRANCH   2  23
TORSDOF 8
ENDMDL
MODEL 4
REMARK VINA RESULT:      -6.4      2.302      6.192
REMARK  Name = 
REMARK  8 active torsions:
REMARK  status: ('A' for Active; 'I' for Inactive)
REMARK    1  A    between atoms: C_2  and  O_4
REMARK    2  A    between atoms: O_4  and  C_5
REMARK    3  A    between atoms: C_5  and  C_6
REMARK    4  A    between atoms: C_8  and  N_9
REMARK    5  A    between atoms: C_17  and  O_18
REMARK    6  A    between atoms: O_18  and  C_19
REMARK    7  A    between atoms: C_22  and  O_23
REMARK    8  A    between atoms: O_23  and  C_24
REMARK                            x       y       z     vdW  Elec       q    Type
REMARK                         _______ _______ _______ _____ _____    ______ ____
ROOT
ATOM      1  C   UNL     1     -10.799  15.038  66.460  0.00  0.00    +0.204 C 
ATOM      2  C   UNL     1      -9.421  14.954  67.505  0.00  0.00    +0.244 C 
ATOM      3  C   UNL     1     -10.222  15.990  68.600  0.00  0.00    +0.260 C 
ATOM      4  C   UNL     1     -11.820  15.336  68.342  0.00  0.00    +0.253 C 
ATOM      5  O   UNL     1     -11.359  14.112  67.542  0.00  0.00    -0.327 OA
ENDROOT
BRANCH   4   6
ATOM      6  N   UNL     1     -11.802  14.468  69.706  0.00  0.00    -0.253 N 
ATOM      7  C   UNL     1     -12.777  14.768  70.552  0.00  0.00    +0.355 A 
ATOM      8  O   UNL     1     -12.925  15.978  70.823  0.00  0.00    -0.244 OA
ATOM      9  N   UNL     1     -12.970  13.926  71.595  0.00  0.00    -0.153 NA
ATOM     10  C   UNL     1     -12.791  12.618  71.316  0.00  0.00    +0.285 A 
ATOM     11  O   UNL     1     -13.227  11.772  72.141  0.00  0.00    -0.265 OA
ATOM     12  C   UNL     1     -12.231  12.209  70.152  0.00  0.00    +0.081 A 
ATOM     13  C   UNL     1     -11.715  13.174  69.301  0.00  0.00    +0.087 A 
ENDBRANCH   4   6
BRANCH   1  14
ATOM     14  C   UNL     1     -10.211  13.736  65.590  0.00  0.00    +0.242 C 
BRANCH  14  15
ATOM     15  O   UNL     1     -11.122  13.782  64.493  0.00  0.00    -0.446 OA
BRANCH  15  17
ATOM     16  C   UNL     1     -12.087  12.026  63.521  0.00  0.00    +0.121 C 
ATOM     17  C   UNL     1     -12.047  12.759  64.264  0.00  0.00    +0.318 C 
ATOM     18  O   UNL     1     -13.112  12.854  64.925  0.00  0.00    -0.250 OA
ENDBRANCH  15  17
ENDBRANCH  14  15
ENDBRANCH   1  14
BRANCH   3  19
ATOM     19  O   UNL     1     -10.510  17.082  67.561  0.00  0.00    -0.444 OA
BRANCH  19  20
ATOM     20  C   UNL     1     -10.334  18.380  67.978  0.00  0.00    +0.318 C 
ATOM     21  O   UNL     1      -9.343  18.592  68.740  0.00  0.00    -0.250 OA
ATOM     22  C   UNL     1     -10.512  19.437  66.930  0.00  0.00    +0.121 C 
ENDBRANCH  19  20
ENDBRANCH   3  19
BRANCH   2  23
ATOM     23  O   UNL     1      -8.633  16.051  66.763  0.00  0.00    -0.446 OA
BRANCH  23  24
ATOM     24  C   UNL     1      -7.281  15.767  66.833  0.00  0.00    +0.318 C 
ATOM     25  O   UNL     1      -6.455  16.634  66.448  0.00  0.00    -0.250 OA
ATOM     26  C   UNL     1      -6.798  14.692  67.719  0.00  0.00    +0.121 C 
ENDBRANCH  23  24
ENDBRANCH   2  23
TORSDOF 8
ENDMDL
MODEL 5
REMARK VINA RESULT:      -6.4      1.882      2.274
REMARK  Name = 
REMARK  8 active torsions:
REMARK  status: ('A' for Active; 'I' for Inactive)
REMARK    1  A    between atoms: C_2  and  O_4
REMARK    2  A    between atoms: O_4  and  C_5
REMARK    3  A    between atoms: C_5  and  C_6
REMARK    4  A    between atoms: C_8  and  N_9
REMARK    5  A    between atoms: C_17  and  O_18
REMARK    6  A    between atoms: O_18  and  C_19
REMARK    7  A    between atoms: C_22  and  O_23
REMARK    8  A    between atoms: O_23  and  C_24
REMARK                            x       y       z     vdW  Elec       q    Type
REMARK                         _______ _______ _______ _____ _____    ______ ____
ROOT
ATOM      1  C   UNL     1     -11.776  12.960  67.692  0.00  0.00    +0.204 C 
ATOM      2  C   UNL     1     -10.105  12.835  67.256  0.00  0.00    +0.244 C 
ATOM      3  C   UNL     1     -10.466  13.587  65.767  0.00  0.00    +0.260 C 
ATOM      4  C   UNL     1     -11.666  14.687  66.397  0.00  0.00    +0.253 C 
ATOM      5  O   UNL     1     -11.358  14.421  67.876  0.00  0.00    -0.327 OA
ENDROOT
BRANCH   4   6
ATOM      6  N   UNL     1     -10.659  15.952  66.402  0.00  0.00    -0.253 N 
ATOM      7  C   UNL     1     -10.944  16.876  65.496  0.00  0.00    +0.355 A 
ATOM      8  O   UNL     1     -11.112  16.473  64.326  0.00  0.00    -0.244 OA
ATOM      9  N   UNL     1     -10.301  18.063  65.601  0.00  0.00    -0.153 NA
ATOM     10  C   UNL     1     -10.098  18.495  66.862  0.00  0.00    +0.285 A 
ATOM     11  O   UNL     1      -9.775  19.701  67.030  0.00  0.00    -0.265 OA
ATOM     12  C   UNL     1     -10.306  17.691  67.932  0.00  0.00    +0.081 A 
ATOM     13  C   UNL     1     -10.606  16.358  67.698  0.00  0.00    +0.087 A 
ENDBRANCH   4   6
BRANCH   1  14
ATOM     14  C   UNL     1     -11.383  12.603  69.278  0.00  0.00    +0.242 C 
BRANCH  14  15
ATOM     15  O   UNL     1     -12.167  11.422  69.435  0.00  0.00    -0.446 OA
BRANCH  15  17
ATOM     16  C   UNL     1     -11.501   9.793  70.800  0.00  0.00    +0.121 C 
ATOM     17  C   UNL     1     -12.084  10.633  70.586  0.00  0.00    +0.318 C 
ATOM     18  O   UNL     1     -12.999  10.829  71.426  0.00  0.00    -0.250 OA
ENDBRANCH  15  17
ENDBRANCH  14  15
ENDBRANCH   1  14
BRANCH   3  19
ATOM     19  O   UNL     1     -11.580  12.601  65.388  0.00  0.00    -0.444 OA
BRANCH  19  20
ATOM     20  C   UNL     1     -11.713  12.317  64.050  0.00  0.00    +0.318 C 
ATOM     21  O   UNL     1     -12.415  13.128  63.374  0.00  0.00    -0.250 OA
ATOM     22  C   UNL     1     -10.465  11.881  63.344  0.00  0.00    +0.121 C 
ENDBRANCH  19  20
ENDBRANCH   3  19
BRANCH   2  23
ATOM     23  O   UNL     1     -10.213  11.382  66.755  0.00  0.00    -0.446 OA
BRANCH  23  24
ATOM     24  C   UNL     1      -9.076  10.687  67.125  0.00  0.00    +0.318 C 
ATOM     25  O   UNL     1      -9.150   9.848  68.058  0.00  0.00    -0.250 OA
ATOM     26  C   UNL     1      -7.934  10.595  66.196  0.00  0.00    +0.121 C 
ENDBRANCH  23  24
ENDBRANCH   2  23
TORSDOF 8
ENDMDL
MODEL 6
REMARK VINA RESULT:      -6.3      3.134      6.191
REMARK  Name = 
REMARK  8 active torsions:
REMARK  status: ('A' for Active; 'I' for Inactive)
REMARK    1  A    between atoms: C_2  and  O_4
REMARK    2  A    between atoms: O_4  and  C_5
REMARK    3  A    between atoms: C_5  and  C_6
REMARK    4  A    between atoms: C_8  and  N_9
REMARK    5  A    between atoms: C_17  and  O_18
REMARK    6  A    between atoms: O_18  and  C_19
REMARK    7  A    between atoms: C_22  and  O_23
REMARK    8  A    between atoms: O_23  and  C_24
REMARK                            x       y       z     vdW  Elec       q    Type
REMARK                         _______ _______ _______ _____ _____    ______ ____
ROOT
ATOM      1  C   UNL     1     -10.597  13.253  67.994  0.00  0.00    +0.204 C 
ATOM      2  C   UNL     1     -11.853  12.460  67.105  0.00  0.00    +0.244 C 
ATOM      3  C   UNL     1     -11.014  10.984  67.289  0.00  0.00    +0.260 C 
ATOM      4  C   UNL     1     -10.433  11.299  68.905  0.00  0.00    +0.253 C 
ATOM      5  O   UNL     1     -11.307  12.536  69.146  0.00  0.00    -0.327 OA
ENDROOT
BRANCH   4   6
ATOM      6  N   UNL     1     -11.548  10.360  69.605  0.00  0.00    -0.253 N 
ATOM      7  C   UNL     1     -11.058   9.265  70.169  0.00  0.00    +0.355 A 
ATOM      8  O   UNL     1     -10.300   8.568  69.463  0.00  0.00    -0.244 OA
ATOM      9  N   UNL     1     -11.888   8.562  70.976  0.00  0.00    -0.153 NA
ATOM     10  C   UNL     1     -12.724   9.308  71.727  0.00  0.00    +0.285 A 
ATOM     11  O   UNL     1     -13.308   8.750  72.693  0.00  0.00    -0.265 OA
ATOM     12  C   UNL     1     -12.882  10.636  71.511  0.00  0.00    +0.081 A 
ATOM     13  C   UNL     1     -12.264  11.195  70.403  0.00  0.00    +0.087 A 
ENDBRANCH   4   6
BRANCH   1  14
ATOM     14  C   UNL     1     -11.577  14.597  68.170  0.00  0.00    +0.242 C 
BRANCH  14  15
ATOM     15  O   UNL     1     -11.648  14.627  69.594  0.00  0.00    -0.446 OA
BRANCH  15  17
ATOM     16  C   UNL     1     -11.793  16.068  71.286  0.00  0.00    +0.121 C 
ATOM     17  C   UNL     1     -11.515  15.821  70.310  0.00  0.00    +0.318 C 
ATOM     18  O   UNL     1     -11.204  16.821  69.614  0.00  0.00    -0.250 OA
ENDBRANCH  15  17
ENDBRANCH  14  15
ENDBRANCH   1  14
BRANCH   3  19
ATOM     19  O   UNL     1      -9.691  11.513  66.719  0.00  0.00    -0.444 OA
BRANCH  19  20
ATOM     20  C   UNL     1      -8.946  10.621  65.984  0.00  0.00    +0.318 C 
ATOM     21  O   UNL     1      -7.972  10.078  66.588  0.00  0.00    -0.250 OA
ATOM     22  C   UNL     1      -9.720   9.666  65.127  0.00  0.00    +0.121 C 
ENDBRANCH  19  20
ENDBRANCH   3  19
BRANCH   2  23
ATOM     23  O   UNL     1     -11.277  12.822  65.723  0.00  0.00    -0.446 OA
BRANCH  23  24
ATOM     24  C   UNL     1     -12.315  12.954  64.818  0.00  0.00    +0.318 C 
ATOM     25  O   UNL     1     -13.119  13.913  64.947  0.00  0.00    -0.250 OA
ATOM     26  C   UNL     1     -12.241  12.281  63.508  0.00  0.00    +0.121 C 
ENDBRANCH  23  24
ENDBRANCH   2  23
TORSDOF 8
ENDMDL
MODEL 7
REMARK VINA RESULT:      -6.1      1.976      2.123
REMARK  Name = 
REMARK  8 active torsions:
REMARK  status: ('A' for Active; 'I' for Inactive)
REMARK    1  A    between atoms: C_2  and  O_4
REMARK    2  A    between atoms: O_4  and  C_5
REMARK    3  A    between atoms: C_5  and  C_6
REMARK    4  A    between atoms: C_8  and  N_9
REMARK    5  A    between atoms: C_17  and  O_18
REMARK    6  A    between atoms: O_18  and  C_19
REMARK    7  A    between atoms: C_22  and  O_23
REMARK    8  A    between atoms: O_23  and  C_24
REMARK                            x       y       z     vdW  Elec       q    Type
REMARK                         _______ _______ _______ _____ _____    ______ ____
ROOT
ATOM      1  C   UNL     1     -11.849  14.926  68.852  0.00  0.00    +0.204 C 
ATOM      2  C   UNL     1     -10.843  13.552  68.540  0.00  0.00    +0.244 C 
ATOM      3  C   UNL     1     -10.454  14.216  67.017  0.00  0.00    +0.260 C 
ATOM      4  C   UNL     1     -10.419  15.881  67.542  0.00  0.00    +0.253 C 
ATOM      5  O   UNL     1     -10.474  15.571  69.043  0.00  0.00    -0.327 OA
ENDROOT
BRANCH   4   6
ATOM      6  N   UNL     1      -8.804  15.941  67.601  0.00  0.00    -0.253 N 
ATOM      7  C   UNL     1      -8.261  16.780  66.731  0.00  0.00    +0.355 A 
ATOM      8  O   UNL     1      -8.637  16.672  65.545  0.00  0.00    -0.244 OA
ATOM      9  N   UNL     1      -6.945  17.063  66.885  0.00  0.00    -0.153 NA
ATOM     10  C   UNL     1      -6.526  17.161  68.163  0.00  0.00    +0.285 A 
ATOM     11  O   UNL     1      -5.407  17.697  68.379  0.00  0.00    -0.265 OA
ATOM     12  C   UNL     1      -7.306  16.770  69.200  0.00  0.00    +0.081 A 
ATOM     13  C   UNL     1      -8.504  16.135  68.912  0.00  0.00    +0.087 A 
ENDBRANCH   4   6
BRANCH   1  14
ATOM     14  C   UNL     1     -11.921  14.500  70.468  0.00  0.00    +0.242 C 
BRANCH  14  15
ATOM     15  O   UNL     1     -12.798  15.529  70.923  0.00  0.00    -0.446 OA
BRANCH  15  17
ATOM     16  C   UNL     1     -13.050  15.024  73.077  0.00  0.00    +0.121 C 
ATOM     17  C   UNL     1     -13.364  15.498  72.201  0.00  0.00    +0.318 C 
ATOM     18  O   UNL     1     -14.542  15.931  72.266  0.00  0.00    -0.250 OA
ENDBRANCH  15  17
ENDBRANCH  14  15
ENDBRANCH   1  14
BRANCH   3  19
ATOM     19  O   UNL     1     -11.912  14.395  66.574  0.00  0.00    -0.444 OA
BRANCH  19  20
ATOM     20  C   UNL     1     -12.184  14.130  65.253  0.00  0.00    +0.318 C 
ATOM     21  O   UNL     1     -13.212  13.422  65.026  0.00  0.00    -0.250 OA
ATOM     22  C   UNL     1     -12.037  15.283  64.307  0.00  0.00    +0.121 C 
ENDBRANCH  19  20
ENDBRANCH   3  19
BRANCH   2  23
ATOM     23  O   UNL     1     -12.000  12.656  68.055  0.00  0.00    -0.446 OA
BRANCH  23  24
ATOM     24  C   UNL     1     -11.737  11.344  68.403  0.00  0.00    +0.318 C 
ATOM     25  O   UNL     1     -12.432  10.799  69.298  0.00  0.00    -0.250 OA
ATOM     26  C   UNL     1     -10.984  10.473  67.482  0.00  0.00    +0.121 C 
ENDBRANCH  23  24
ENDBRANCH   2  23
TORSDOF 8
ENDMDL
MODEL 8
REMARK VINA RESULT:      -6.1      2.434      6.760
REMARK  Name = 
REMARK  8 active torsions:
REMARK  status: ('A' for Active; 'I' for Inactive)
REMARK    1  A    between atoms: C_2  and  O_4
REMARK    2  A    between atoms: O_4  and  C_5
REMARK    3  A    between atoms: C_5  and  C_6
REMARK    4  A    between atoms: C_8  and  N_9
REMARK    5  A    between atoms: C_17  and  O_18
REMARK    6  A    between atoms: O_18  and  C_19
REMARK    7  A    between atoms: C_22  and  O_23
REMARK    8  A    between atoms: O_23  and  C_24
REMARK                            x       y       z     vdW  Elec       q    Type
REMARK                         _______ _______ _______ _____ _____    ______ ____
ROOT
ATOM      1  C   UNL     1     -11.959  14.431  66.746  0.00  0.00    +0.204 C 
ATOM      2  C   UNL     1     -10.340  14.594  67.339  0.00  0.00    +0.244 C 
ATOM      3  C   UNL     1     -10.883  14.096  68.878  0.00  0.00    +0.260 C 
ATOM      4  C   UNL     1     -12.046  12.930  68.299  0.00  0.00    +0.253 C 
ATOM      5  O   UNL     1     -11.574  12.952  66.840  0.00  0.00    -0.327 OA
ENDROOT
BRANCH   4   6
ATOM      6  N   UNL     1     -11.088  11.663  68.603  0.00  0.00    -0.253 N 
ATOM      7  C   UNL     1     -11.538  10.860  69.556  0.00  0.00    +0.355 A 
ATOM      8  O   UNL     1     -11.873  11.404  70.629  0.00  0.00    -0.244 OA
ATOM      9  N   UNL     1     -10.922   9.662  69.696  0.00  0.00    -0.153 NA
ATOM     10  C   UNL     1     -10.538   9.077  68.542  0.00  0.00    +0.285 A 
ATOM     11  O   UNL     1     -10.229   7.857  68.572  0.00  0.00    -0.265 OA
ATOM     12  C   UNL     1     -10.555   9.747  67.365  0.00  0.00    +0.081 A 
ATOM     13  C   UNL     1     -10.847  11.102  67.389  0.00  0.00    +0.087 A 
ENDBRANCH   4   6
BRANCH   1  14
ATOM     14  C   UNL     1     -11.388  14.523  65.177  0.00  0.00    +0.242 C 
BRANCH  14  15
ATOM     15  O   UNL     1     -12.427  13.794  64.526  0.00  0.00    -0.446 OA
BRANCH  15  17
ATOM     16  C   UNL     1     -11.274  12.264  63.391  0.00  0.00    +0.121 C 
ATOM     17  C   UNL     1     -12.162  12.627  63.803  0.00  0.00    +0.318 C 
ATOM     18  O   UNL     1     -13.183  12.013  63.401  0.00  0.00    -0.250 OA
ENDBRANCH  15  17
ENDBRANCH  14  15
ENDBRANCH   1  14
BRANCH   3  19
ATOM     19  O   UNL     1     -11.996  15.148  68.973  0.00  0.00    -0.444 OA
BRANCH  19  20
ATOM     20  C   UNL     1     -12.292  15.609  70.233  0.00  0.00    +0.318 C 
ATOM     21  O   UNL     1     -13.457  15.349  70.663  0.00  0.00    -0.250 OA
ATOM     22  C   UNL     1     -11.224  15.427  71.268  0.00  0.00    +0.121 C 
ENDBRANCH  19  20
ENDBRANCH   3  19
BRANCH   2  23
ATOM     23  O   UNL     1     -10.451  16.110  67.591  0.00  0.00    -0.446 OA
BRANCH  23  24
ATOM     24  C   UNL     1      -9.198  16.684  67.476  0.00  0.00    +0.318 C 
ATOM     25  O   UNL     1      -8.630  17.123  68.509  0.00  0.00    -0.250 OA
ATOM     26  C   UNL     1      -8.365  16.405  66.291  0.00  0.00    +0.121 C 
ENDBRANCH  23  24
ENDBRANCH   2  23
TORSDOF 8
ENDMDL
MODEL 9
REMARK VINA RESULT:      -6.1      2.547      5.376
REMARK  Name = 
REMARK  8 active torsions:
REMARK  status: ('A' for Active; 'I' for Inactive)
REMARK    1  A    between atoms: C_2  and  O_4
REMARK    2  A    between atoms: O_4  and  C_5
REMARK    3  A    between atoms: C_5  and  C_6
REMARK    4  A    between atoms: C_8  and  N_9
REMARK    5  A    between atoms: C_17  and  O_18
REMARK    6  A    between atoms: O_18  and  C_19
REMARK    7  A    between atoms: C_22  and  O_23
REMARK    8  A    between atoms: O_23  and  C_24
REMARK                            x       y       z     vdW  Elec       q    Type
REMARK                         _______ _______ _______ _____ _____    ______ ____
ROOT
ATOM      1  C   UNL     1     -10.354  15.033  69.293  0.00  0.00    +0.204 C 
ATOM      2  C   UNL     1      -9.867  16.103  68.022  0.00  0.00    +0.244 C 
ATOM      3  C   UNL     1      -8.913  14.848  67.367  0.00  0.00    +0.260 C 
ATOM      4  C   UNL     1     -10.016  13.552  67.755  0.00  0.00    +0.253 C 
ATOM      5  O   UNL     1     -11.190  14.459  68.146  0.00  0.00    -0.327 OA
ENDROOT
BRANCH   4   6
ATOM      6  N   UNL     1     -10.587  13.443  66.245  0.00  0.00    -0.253 N 
ATOM      7  C   UNL     1     -10.385  12.265  65.673  0.00  0.00    +0.355 A 
ATOM      8  O   UNL     1      -9.220  11.818  65.718  0.00  0.00    -0.244 OA
ATOM      9  N   UNL     1     -11.042  12.020  64.514  0.00  0.00    -0.153 NA
ATOM     10  C   UNL     1     -12.294  12.518  64.450  0.00  0.00    +0.285 A 
ATOM     11  O   UNL     1     -13.055  12.090  63.541  0.00  0.00    -0.265 OA
ATOM     12  C   UNL     1     -12.761  13.392  65.373  0.00  0.00    +0.081 A 
ATOM     13  C   UNL     1     -11.873  13.877  66.321  0.00  0.00    +0.087 A 
ENDBRANCH   4   6
BRANCH   1  14
ATOM     14  C   UNL     1     -11.578  16.094  69.710  0.00  0.00    +0.242 C 
BRANCH  14  15
ATOM     15  O   UNL     1     -11.427  16.050  71.128  0.00  0.00    -0.446 OA
BRANCH  15  17
ATOM     16  C   UNL     1     -12.575  15.729  73.008  0.00  0.00    +0.121 C 
ATOM     17  C   UNL     1     -12.525  15.895  71.978  0.00  0.00    +0.318 C 
ATOM     18  O   UNL     1     -13.624  15.716  71.394  0.00  0.00    -0.250 OA
ENDBRANCH  15  17
ENDBRANCH  14  15
ENDBRANCH   1  14
BRANCH   3  19
ATOM     19  O   UNL     1      -8.147  14.574  68.668  0.00  0.00    -0.444 OA
BRANCH  19  20
ATOM     20  C   UNL     1      -6.831  14.199  68.532  0.00  0.00    +0.318 C 
ATOM     21  O   UNL     1      -6.396  14.110  67.344  0.00  0.00    -0.250 OA
ATOM     22  C   UNL     1      -5.862  14.849  69.472  0.00  0.00    +0.121 C 
ENDBRANCH  19  20
ENDBRANCH   3  19
BRANCH   2  23
ATOM     23  O   UNL     1      -8.748  16.771  68.842  0.00  0.00    -0.446 OA
BRANCH  23  24
ATOM     24  C   UNL     1      -8.650  18.103  68.480  0.00  0.00    +0.318 C 
ATOM     25  O   UNL     1      -9.576  18.892  68.801  0.00  0.00    -0.250 OA
ATOM     26  C   UNL     1      -7.339  18.677  68.127  0.00  0.00    +0.121 C 
ENDBRANCH  23  24
ENDBRANCH   2  23
TORSDOF 8
ENDMDL
