MODEL 1
REMARK VINA RESULT:      -6.6      0.000      0.000
REMARK  Name = 
REMARK  7 active torsions:
REMARK  status: ('A' for Active; 'I' for Inactive)
REMARK    1  A    between atoms: C_2  and  O_4
REMARK    2  A    between atoms: O_4  and  C_5
REMARK    3  A    between atoms: C_5  and  C_7
REMARK    4  A    between atoms: C_7  and  O_10
REMARK    5  A    between atoms: O_10  and  C_11
REMARK    6  A    between atoms: C_14  and  C_15
REMARK    7  A    between atoms: C_15  and  C_17
REMARK                            x       y       z     vdW  Elec       q    Type
REMARK                         _______ _______ _______ _____ _____    ______ ____
ROOT
ATOM      1  C   UNL     1     -11.446  11.777  67.575  0.00  0.00    +0.139 A 
ATOM      2  C   UNL     1     -11.673  12.577  68.688  0.00  0.00    +0.037 A 
ATOM      3  C   UNL     1     -11.819  11.985  69.937  0.00  0.00    +0.006 A 
ATOM      4  C   UNL     1     -11.597  10.624  70.125  0.00  0.00    +0.039 A 
ATOM      5  C   UNL     1     -10.824  10.028  69.135  0.00  0.00    +0.006 A 
ATOM      6  C   UNL     1     -10.839  10.556  67.849  0.00  0.00    +0.037 A 
ENDROOT
BRANCH   4   7
ATOM      7  C   UNL     1     -12.398   9.832  71.067  0.00  0.00    +0.196 C 
ATOM      8  O   UNL     1     -13.649   9.802  70.864  0.00  0.00    -0.287 OA
BRANCH   7   9
ATOM      9  C   UNL     1     -11.834   8.571  71.569  0.00  0.00    +0.039 A 
ATOM     10  C   UNL     1     -12.454   7.368  71.331  0.00  0.00    +0.004 A 
ATOM     11  C   UNL     1     -11.937   6.199  71.856  0.00  0.00    +0.011 A 
ATOM     12  C   UNL     1     -10.950   6.267  72.818  0.00  0.00    +0.058 A 
ATOM     13 CL   UNL     1     -10.707   5.009  73.998  0.00  0.00    -0.082 Cl
ATOM     14  C   UNL     1     -10.203   7.435  72.890  0.00  0.00    +0.011 A 
ATOM     15  C   UNL     1     -10.651   8.604  72.296  0.00  0.00    +0.004 A 
ENDBRANCH   7   9
ENDBRANCH   4   7
BRANCH   1  16
ATOM     16  O   UNL     1     -12.089  12.006  66.355  0.00  0.00    -0.472 OA
BRANCH  16  17
ATOM     17  C   UNL     1     -11.689  13.031  65.472  0.00  0.00    +0.221 C 
ATOM     18  C   UNL     1     -10.327  13.544  65.907  0.00  0.00    +0.055 C 
ATOM     19  C   UNL     1     -12.705  14.164  65.547  0.00  0.00    +0.055 C 
BRANCH  17  20
ATOM     20  C   UNL     1     -11.671  12.495  64.096  0.00  0.00    +0.353 C 
ATOM     21  O   UNL     1     -12.737  12.016  63.648  0.00  0.00    -0.246 OA
BRANCH  20  22
ATOM     22  O   UNL     1     -10.505  12.191  63.401  0.00  0.00    -0.450 OA
BRANCH  22  24
ATOM     23  C   UNL     1      -9.776  10.119  64.438  0.00  0.00    +0.047 C 
ATOM     24  C   UNL     1     -10.081  10.857  63.157  0.00  0.00    +0.169 C 
ATOM     25  C   UNL     1      -8.955  10.785  62.161  0.00  0.00    +0.047 C 
ENDBRANCH  22  24
ENDBRANCH  20  22
ENDBRANCH  17  20
ENDBRANCH  16  17
ENDBRANCH   1  16
TORSDOF 7
ENDMDL
MODEL 2
REMARK VINA RESULT:      -6.6      1.341      2.562
REMARK  Name = 
REMARK  7 active torsions:
REMARK  status: ('A' for Active; 'I' for Inactive)
REMARK    1  A    between atoms: C_2  and  O_4
REMARK    2  A    between atoms: O_4  and  C_5
REMARK    3  A    between atoms: C_5  and  C_7
REMARK    4  A    between atoms: C_7  and  O_10
REMARK    5  A    between atoms: O_10  and  C_11
REMARK    6  A    between atoms: C_14  and  C_15
REMARK    7  A    between atoms: C_15  and  C_17
REMARK                            x       y       z     vdW  Elec       q    Type
REMARK                         _______ _______ _______ _____ _____    ______ ____
ROOT
ATOM      1  C   UNL     1     -11.459  11.668  67.102  0.00  0.00    +0.139 A 
ATOM      2  C   UNL     1     -11.462  12.563  68.165  0.00  0.00    +0.037 A 
ATOM      3  C   UNL     1     -11.512  12.077  69.467  0.00  0.00    +0.006 A 
ATOM      4  C   UNL     1     -11.411  10.716  69.738  0.00  0.00    +0.039 A 
ATOM      5  C   UNL     1     -10.833   9.971  68.716  0.00  0.00    +0.006 A 
ATOM      6  C   UNL     1     -10.953  10.408  67.402  0.00  0.00    +0.037 A 
ENDROOT
BRANCH   4   7
ATOM      7  C   UNL     1     -12.166  10.086  70.827  0.00  0.00    +0.196 C 
ATOM      8  O   UNL     1     -13.430  10.178  70.771  0.00  0.00    -0.287 OA
BRANCH   7   9
ATOM      9  C   UNL     1     -11.675   8.809  71.366  0.00  0.00    +0.039 A 
ATOM     10  C   UNL     1     -12.384   7.645  71.198  0.00  0.00    +0.004 A 
ATOM     11  C   UNL     1     -11.933   6.464  71.757  0.00  0.00    +0.011 A 
ATOM     12  C   UNL     1     -10.912   6.501  72.684  0.00  0.00    +0.058 A 
ATOM     13 CL   UNL     1     -10.717   5.278  73.909  0.00  0.00    -0.082 Cl
ATOM     14  C   UNL     1     -10.084   7.615  72.683  0.00  0.00    +0.011 A 
ATOM     15  C   UNL     1     -10.469   8.787  72.053  0.00  0.00    +0.004 A 
ENDBRANCH   7   9
ENDBRANCH   4   7
BRANCH   1  16
ATOM     16  O   UNL     1     -12.221  11.885  65.950  0.00  0.00    -0.472 OA
BRANCH  16  17
ATOM     17  C   UNL     1     -11.691  12.508  64.801  0.00  0.00    +0.221 C 
ATOM     18  C   UNL     1     -12.456  12.016  63.585  0.00  0.00    +0.055 C 
ATOM     19  C   UNL     1     -10.224  12.121  64.668  0.00  0.00    +0.055 C 
BRANCH  17  20
ATOM     20  C   UNL     1     -11.786  13.973  64.967  0.00  0.00    +0.353 C 
ATOM     21  O   UNL     1     -12.902  14.505  64.775  0.00  0.00    -0.246 OA
BRANCH  20  22
ATOM     22  O   UNL     1     -10.683  14.820  64.996  0.00  0.00    -0.450 OA
BRANCH  22  24
ATOM     23  C   UNL     1     -10.233  16.962  66.048  0.00  0.00    +0.047 C 
ATOM     24  C   UNL     1     -10.234  15.459  66.182  0.00  0.00    +0.169 C 
ATOM     25  C   UNL     1      -8.915  14.917  66.664  0.00  0.00    +0.047 C 
ENDBRANCH  22  24
ENDBRANCH  20  22
ENDBRANCH  17  20
ENDBRANCH  16  17
ENDBRANCH   1  16
TORSDOF 7
ENDMDL
MODEL 3
REMARK VINA RESULT:      -6.5      2.384      3.416
REMARK  Name = 
REMARK  7 active torsions:
REMARK  status: ('A' for Active; 'I' for Inactive)
REMARK    1  A    between atoms: C_2  and  O_4
REMARK    2  A    between atoms: O_4  and  C_5
REMARK    3  A    between atoms: C_5  and  C_7
REMARK    4  A    between atoms: C_7  and  O_10
REMARK    5  A    between atoms: O_10  and  C_11
REMARK    6  A    between atoms: C_14  and  C_15
REMARK    7  A    between atoms: C_15  and  C_17
REMARK                            x       y       z     vdW  Elec       q    Type
REMARK                         _______ _______ _______ _____ _____    ______ ____
ROOT
ATOM      1  C   UNL     1     -10.748  15.282  68.211  0.00  0.00    +0.139 A 
ATOM      2  C   UNL     1     -11.418  15.141  69.420  0.00  0.00    +0.037 A 
ATOM      3  C   UNL     1     -11.701  13.868  69.901  0.00  0.00    +0.006 A 
ATOM      4  C   UNL     1     -11.200  12.729  69.277  0.00  0.00    +0.039 A 
ATOM      5  C   UNL     1     -10.096  12.961  68.464  0.00  0.00    +0.006 A 
ATOM      6  C   UNL     1      -9.940  14.205  67.863  0.00  0.00    +0.037 A 
ENDROOT
BRANCH   4   7
ATOM      7  C   UNL     1     -11.979  11.487  69.194  0.00  0.00    +0.196 C 
ATOM      8  O   UNL     1     -12.180  11.018  68.034  0.00  0.00    -0.287 OA
BRANCH   7   9
ATOM      9  C   UNL     1     -11.773  10.468  70.233  0.00  0.00    +0.039 A 
ATOM     10  C   UNL     1     -10.565   9.830  70.375  0.00  0.00    +0.004 A 
ATOM     11  C   UNL     1     -10.406   8.837  71.324  0.00  0.00    +0.011 A 
ATOM     12  C   UNL     1     -11.519   8.316  71.951  0.00  0.00    +0.058 A 
ATOM     13 CL   UNL     1     -11.554   6.702  72.604  0.00  0.00    -0.082 Cl
ATOM     14  C   UNL     1     -12.671   9.090  71.962  0.00  0.00    +0.011 A 
ATOM     15  C   UNL     1     -12.824  10.151  71.084  0.00  0.00    +0.004 A 
ENDBRANCH   7   9
ENDBRANCH   4   7
BRANCH   1  16
ATOM     16  O   UNL     1     -11.125  16.237  67.262  0.00  0.00    -0.472 OA
BRANCH  16  17
ATOM     17  C   UNL     1     -10.265  16.645  66.220  0.00  0.00    +0.221 C 
ATOM     18  C   UNL     1      -8.850  16.211  66.559  0.00  0.00    +0.055 C 
ATOM     19  C   UNL     1     -10.317  18.164  66.110  0.00  0.00    +0.055 C 
BRANCH  17  20
ATOM     20  C   UNL     1     -10.742  16.057  64.951  0.00  0.00    +0.353 C 
ATOM     21  O   UNL     1     -11.414  16.789  64.191  0.00  0.00    -0.246 OA
BRANCH  20  22
ATOM     22  O   UNL     1     -10.779  14.689  64.701  0.00  0.00    -0.450 OA
BRANCH  22  24
ATOM     23  C   UNL     1     -12.800  13.709  65.625  0.00  0.00    +0.047 C 
ATOM     24  C   UNL     1     -11.980  13.996  64.391  0.00  0.00    +0.169 C 
ATOM     25  C   UNL     1     -11.736  12.769  63.555  0.00  0.00    +0.047 C 
ENDBRANCH  22  24
ENDBRANCH  20  22
ENDBRANCH  17  20
ENDBRANCH  16  17
ENDBRANCH   1  16
TORSDOF 7
ENDMDL
MODEL 4
REMARK VINA RESULT:      -6.5      1.890      2.951
REMARK  Name = 
REMARK  7 active torsions:
REMARK  status: ('A' for Active; 'I' for Inactive)
REMARK    1  A    between atoms: C_2  and  O_4
REMARK    2  A    between atoms: O_4  and  C_5
REMARK    3  A    between atoms: C_5  and  C_7
REMARK    4  A    between atoms: C_7  and  O_10
REMARK    5  A    between atoms: O_10  and  C_11
REMARK    6  A    between atoms: C_14  and  C_15
REMARK    7  A    between atoms: C_15  and  C_17
REMARK                            x       y       z     vdW  Elec       q    Type
REMARK                         _______ _______ _______ _____ _____    ______ ____
ROOT
ATOM      1  C   UNL     1     -11.765  11.075  69.819  0.00  0.00    +0.139 A 
ATOM      2  C   UNL     1     -12.731  11.068  70.818  0.00  0.00    +0.037 A 
ATOM      3  C   UNL     1     -12.890   9.934  71.607  0.00  0.00    +0.006 A 
ATOM      4  C   UNL     1     -12.009   8.860  71.520  0.00  0.00    +0.039 A 
ATOM      5  C   UNL     1     -10.778   9.175  70.956  0.00  0.00    +0.006 A 
ATOM      6  C   UNL     1     -10.695  10.215  70.037  0.00  0.00    +0.037 A 
ENDROOT
BRANCH   4   7
ATOM      7  C   UNL     1     -12.464   7.473  71.667  0.00  0.00    +0.196 C 
ATOM      8  O   UNL     1     -13.700   7.256  71.483  0.00  0.00    -0.287 OA
BRANCH   7   9
ATOM      9  C   UNL     1     -11.582   6.398  71.190  0.00  0.00    +0.039 A 
ATOM     10  C   UNL     1     -10.914   5.581  72.070  0.00  0.00    +0.004 A 
ATOM     11  C   UNL     1     -10.048   4.610  71.603  0.00  0.00    +0.011 A 
ATOM     12  C   UNL     1      -9.667   4.625  70.278  0.00  0.00    +0.058 A 
ATOM     13 CL   UNL     1      -8.155   3.951  69.733  0.00  0.00    -0.082 Cl
ATOM     14  C   UNL     1     -10.487   5.294  69.380  0.00  0.00    +0.011 A 
ATOM     15  C   UNL     1     -11.429   6.208  69.823  0.00  0.00    +0.004 A 
ENDBRANCH   7   9
ENDBRANCH   4   7
BRANCH   1  16
ATOM     16  O   UNL     1     -12.015  11.609  68.552  0.00  0.00    -0.472 OA
BRANCH  16  17
ATOM     17  C   UNL     1     -11.475  12.844  68.134  0.00  0.00    +0.221 C 
ATOM     18  C   UNL     1      -9.961  12.768  68.225  0.00  0.00    +0.055 C 
ATOM     19  C   UNL     1     -11.985  13.940  69.061  0.00  0.00    +0.055 C 
BRANCH  17  20
ATOM     20  C   UNL     1     -11.940  13.126  66.760  0.00  0.00    +0.353 C 
ATOM     21  O   UNL     1     -12.422  14.258  66.534  0.00  0.00    -0.246 OA
BRANCH  20  22
ATOM     22  O   UNL     1     -12.178  12.140  65.808  0.00  0.00    -0.450 OA
BRANCH  22  24
ATOM     23  C   UNL     1     -12.372  12.002  63.391  0.00  0.00    +0.047 C 
ATOM     24  C   UNL     1     -11.454  12.058  64.588  0.00  0.00    +0.169 C 
ATOM     25  C   UNL     1     -10.438  10.949  64.595  0.00  0.00    +0.047 C 
ENDBRANCH  22  24
ENDBRANCH  20  22
ENDBRANCH  17  20
ENDBRANCH  16  17
ENDBRANCH   1  16
TORSDOF 7
ENDMDL
MODEL 5
REMARK VINA RESULT:      -6.4      6.681     10.056
REMARK  Name = 
REMARK  7 active torsions:
REMARK  status: ('A' for Active; 'I' for Inactive)
REMARK    1  A    between atoms: C_2  and  O_4
REMARK    2  A    between atoms: O_4  and  C_5
REMARK    3  A    between atoms: C_5  and  C_7
REMARK    4  A    between atoms: C_7  and  O_10
REMARK    5  A    between atoms: O_10  and  C_11
REMARK    6  A    between atoms: C_14  and  C_15
REMARK    7  A    between atoms: C_15  and  C_17
REMARK                            x       y       z     vdW  Elec       q    Type
REMARK                         _______ _______ _______ _____ _____    ______ ____
ROOT
ATOM      1  C   UNL     1     -10.475  18.038  67.493  0.00  0.00    +0.139 A 
ATOM      2  C   UNL     1      -9.760  18.257  68.664  0.00  0.00    +0.037 A 
ATOM      3  C   UNL     1      -8.748  19.210  68.679  0.00  0.00    +0.006 A 
ATOM      4  C   UNL     1      -8.532  20.056  67.596  0.00  0.00    +0.039 A 
ATOM      5  C   UNL     1      -9.620  20.178  66.739  0.00  0.00    +0.006 A 
ATOM      6  C   UNL     1     -10.521  19.125  66.627  0.00  0.00    +0.037 A 
ENDROOT
BRANCH   4   7
ATOM      7  C   UNL     1      -7.183  20.478  67.201  0.00  0.00    +0.196 C 
ATOM      8  O   UNL     1      -6.480  21.045  68.092  0.00  0.00    -0.287 OA
BRANCH   7   9
ATOM      9  C   UNL     1      -6.422  19.613  66.289  0.00  0.00    +0.039 A 
ATOM     10  C   UNL     1      -5.613  18.610  66.767  0.00  0.00    +0.004 A 
ATOM     11  C   UNL     1      -4.865  17.840  65.897  0.00  0.00    +0.011 A 
ATOM     12  C   UNL     1      -4.737  18.237  64.582  0.00  0.00    +0.058 A 
ATOM     13 CL   UNL     1      -3.365  17.798  63.602  0.00  0.00    -0.082 Cl
ATOM     14  C   UNL     1      -5.701  19.097  64.074  0.00  0.00    +0.011 A 
ATOM     15  C   UNL     1      -6.530  19.816  64.920  0.00  0.00    +0.004 A 
ENDBRANCH   7   9
ENDBRANCH   4   7
BRANCH   1  16
ATOM     16  O   UNL     1     -10.804  16.752  67.055  0.00  0.00    -0.472 OA
BRANCH  16  17
ATOM     17  C   UNL     1      -9.886  15.932  66.366  0.00  0.00    +0.221 C 
ATOM     18  C   UNL     1      -9.612  14.696  67.204  0.00  0.00    +0.055 C 
ATOM     19  C   UNL     1      -8.590  16.708  66.168  0.00  0.00    +0.055 C 
BRANCH  17  20
ATOM     20  C   UNL     1     -10.448  15.596  65.041  0.00  0.00    +0.353 C 
ATOM     21  O   UNL     1     -11.016  16.512  64.405  0.00  0.00    -0.246 OA
BRANCH  20  22
ATOM     22  O   UNL     1     -10.677  14.294  64.607  0.00  0.00    -0.450 OA
BRANCH  22  24
ATOM     23  C   UNL     1     -12.813  13.720  65.611  0.00  0.00    +0.047 C 
ATOM     24  C   UNL     1     -11.979  13.786  64.354  0.00  0.00    +0.169 C 
ATOM     25  C   UNL     1     -11.951  12.481  63.605  0.00  0.00    +0.047 C 
ENDBRANCH  22  24
ENDBRANCH  20  22
ENDBRANCH  17  20
ENDBRANCH  16  17
ENDBRANCH   1  16
TORSDOF 7
ENDMDL
MODEL 6
REMARK VINA RESULT:      -6.4      5.278      7.657
REMARK  Name = 
REMARK  7 active torsions:
REMARK  status: ('A' for Active; 'I' for Inactive)
REMARK    1  A    between atoms: C_2  and  O_4
REMARK    2  A    between atoms: O_4  and  C_5
REMARK    3  A    between atoms: C_5  and  C_7
REMARK    4  A    between atoms: C_7  and  O_10
REMARK    5  A    between atoms: O_10  and  C_11
REMARK    6  A    between atoms: C_14  and  C_15
REMARK    7  A    between atoms: C_15  and  C_17
REMARK                            x       y       z     vdW  Elec       q    Type
REMARK                         _______ _______ _______ _____ _____    ______ ____
ROOT
ATOM      1  C   UNL     1      -8.032  16.183  66.988  0.00  0.00    +0.139 A 
ATOM      2  C   UNL     1      -7.792  14.874  67.390  0.00  0.00    +0.037 A 
ATOM      3  C   UNL     1      -8.824  13.944  67.337  0.00  0.00    +0.006 A 
ATOM      4  C   UNL     1     -10.049  14.251  66.754  0.00  0.00    +0.039 A 
ATOM      5  C   UNL     1     -10.011  15.331  65.878  0.00  0.00    +0.006 A 
ATOM      6  C   UNL     1      -9.065  16.331  66.069  0.00  0.00    +0.037 A 
ENDROOT
BRANCH   4   7
ATOM      7  C   UNL     1     -11.313  13.729  67.288  0.00  0.00    +0.196 C 
ATOM      8  O   UNL     1     -11.628  12.548  66.952  0.00  0.00    -0.287 OA
BRANCH   7   9
ATOM      9  C   UNL     1     -11.689  14.089  68.662  0.00  0.00    +0.039 A 
ATOM     10  C   UNL     1     -11.984  13.125  69.596  0.00  0.00    +0.004 A 
ATOM     11  C   UNL     1     -12.386  13.484  70.869  0.00  0.00    +0.011 A 
ATOM     12  C   UNL     1     -12.729  14.795  71.125  0.00  0.00    +0.058 A 
ATOM     13 CL   UNL     1     -13.841  15.240  72.390  0.00  0.00    -0.082 Cl
ATOM     14  C   UNL     1     -12.236  15.768  70.267  0.00  0.00    +0.011 A 
ATOM     15  C   UNL     1     -11.741  15.430  69.018  0.00  0.00    +0.004 A 
ENDBRANCH   7   9
ENDBRANCH   4   7
BRANCH   1  16
ATOM     16  O   UNL     1      -7.538  17.279  67.702  0.00  0.00    -0.472 OA
BRANCH  16  17
ATOM     17  C   UNL     1      -6.659  18.220  67.127  0.00  0.00    +0.221 C 
ATOM     18  C   UNL     1      -5.705  17.490  66.198  0.00  0.00    +0.055 C 
ATOM     19  C   UNL     1      -5.867  18.894  68.240  0.00  0.00    +0.055 C 
BRANCH  17  20
ATOM     20  C   UNL     1      -7.454  19.244  66.419  0.00  0.00    +0.353 C 
ATOM     21  O   UNL     1      -7.262  19.378  65.190  0.00  0.00    -0.246 OA
BRANCH  20  22
ATOM     22  O   UNL     1      -8.142  20.268  67.062  0.00  0.00    -0.450 OA
BRANCH  22  24
ATOM     23  C   UNL     1      -9.862  19.422  68.554  0.00  0.00    +0.047 C 
ATOM     24  C   UNL     1      -9.539  20.218  67.312  0.00  0.00    +0.169 C 
ATOM     25  C   UNL     1     -10.323  19.764  66.110  0.00  0.00    +0.047 C 
ENDBRANCH  22  24
ENDBRANCH  20  22
ENDBRANCH  17  20
ENDBRANCH  16  17
ENDBRANCH   1  16
TORSDOF 7
ENDMDL
MODEL 7
REMARK VINA RESULT:      -6.4      4.422      8.319
REMARK  Name = 
REMARK  7 active torsions:
REMARK  status: ('A' for Active; 'I' for Inactive)
REMARK    1  A    between atoms: C_2  and  O_4
REMARK    2  A    between atoms: O_4  and  C_5
REMARK    3  A    between atoms: C_5  and  C_7
REMARK    4  A    between atoms: C_7  and  O_10
REMARK    5  A    between atoms: O_10  and  C_11
REMARK    6  A    between atoms: C_14  and  C_15
REMARK    7  A    between atoms: C_15  and  C_17
REMARK                            x       y       z     vdW  Elec       q    Type
REMARK                         _______ _______ _______ _____ _____    ______ ____
ROOT
ATOM      1  C   UNL     1     -11.758  12.407  66.237  0.00  0.00    +0.139 A 
ATOM      2  C   UNL     1     -12.771  13.273  65.844  0.00  0.00    +0.037 A 
ATOM      3  C   UNL     1     -12.444  14.463  65.203  0.00  0.00    +0.006 A 
ATOM      4  C   UNL     1     -11.137  14.741  64.813  0.00  0.00    +0.039 A 
ATOM      5  C   UNL     1     -10.322  13.620  64.706  0.00  0.00    +0.006 A 
ATOM      6  C   UNL     1     -10.587  12.505  65.494  0.00  0.00    +0.037 A 
ENDROOT
BRANCH   4   7
ATOM      7  C   UNL     1     -10.586  16.100  64.870  0.00  0.00    +0.196 C 
ATOM      8  O   UNL     1     -11.296  17.024  64.370  0.00  0.00    -0.287 OA
BRANCH   7   9
ATOM      9  C   UNL     1      -9.832  16.495  66.068  0.00  0.00    +0.039 A 
ATOM     10  C   UNL     1     -10.442  17.154  67.108  0.00  0.00    +0.004 A 
ATOM     11  C   UNL     1      -9.706  17.564  68.204  0.00  0.00    +0.011 A 
ATOM     12  C   UNL     1      -8.328  17.535  68.143  0.00  0.00    +0.058 A 
ATOM     13 CL   UNL     1      -7.328  18.595  69.098  0.00  0.00    -0.082 Cl
ATOM     14  C   UNL     1      -7.744  16.694  67.206  0.00  0.00    +0.011 A 
ATOM     15  C   UNL     1      -8.479  16.192  66.145  0.00  0.00    +0.004 A 
ENDBRANCH   7   9
ENDBRANCH   4   7
BRANCH   1  16
ATOM     16  O   UNL     1     -11.774  11.763  67.477  0.00  0.00    -0.472 OA
BRANCH  16  17
ATOM     17  C   UNL     1     -10.993  12.204  68.567  0.00  0.00    +0.221 C 
ATOM     18  C   UNL     1     -10.357  13.534  68.202  0.00  0.00    +0.055 C 
ATOM     19  C   UNL     1      -9.902  11.176  68.835  0.00  0.00    +0.055 C 
BRANCH  17  20
ATOM     20  C   UNL     1     -11.857  12.307  69.761  0.00  0.00    +0.353 C 
ATOM     21  O   UNL     1     -12.213  11.241  70.310  0.00  0.00    -0.246 OA
BRANCH  20  22
ATOM     22  O   UNL     1     -12.555  13.458  70.112  0.00  0.00    -0.450 OA
BRANCH  22  24
ATOM     23  C   UNL     1     -13.459  13.978  72.305  0.00  0.00    +0.047 C 
ATOM     24  C   UNL     1     -12.324  14.157  71.327  0.00  0.00    +0.169 C 
ATOM     25  C   UNL     1     -11.973  15.603  71.101  0.00  0.00    +0.047 C 
ENDBRANCH  22  24
ENDBRANCH  20  22
ENDBRANCH  17  20
ENDBRANCH  16  17
ENDBRANCH   1  16
TORSDOF 7
ENDMDL
MODEL 8
REMARK VINA RESULT:      -6.4      5.884      7.834
REMARK  Name = 
REMARK  7 active torsions:
REMARK  status: ('A' for Active; 'I' for Inactive)
REMARK    1  A    between atoms: C_2  and  O_4
REMARK    2  A    between atoms: O_4  and  C_5
REMARK    3  A    between atoms: C_5  and  C_7
REMARK    4  A    between atoms: C_7  and  O_10
REMARK    5  A    between atoms: O_10  and  C_11
REMARK    6  A    between atoms: C_14  and  C_15
REMARK    7  A    between atoms: C_15  and  C_17
REMARK                            x       y       z     vdW  Elec       q    Type
REMARK                         _______ _______ _______ _____ _____    ______ ____
ROOT
ATOM      1  C   UNL     1      -9.585  16.611  67.803  0.00  0.00    +0.139 A 
ATOM      2  C   UNL     1      -8.855  15.552  68.329  0.00  0.00    +0.037 A 
ATOM      3  C   UNL     1      -9.517  14.397  68.728  0.00  0.00    +0.006 A 
ATOM      4  C   UNL     1     -10.874  14.215  68.478  0.00  0.00    +0.039 A 
ATOM      5  C   UNL     1     -11.381  15.018  67.463  0.00  0.00    +0.006 A 
ATOM      6  C   UNL     1     -10.789  16.250  67.208  0.00  0.00    +0.037 A 
ENDROOT
BRANCH   4   7
ATOM      7  C   UNL     1     -11.749  13.520  69.429  0.00  0.00    +0.196 C 
ATOM      8  O   UNL     1     -11.558  12.276  69.575  0.00  0.00    -0.287 OA
BRANCH   7   9
ATOM      9  C   UNL     1     -12.132  14.223  70.662  0.00  0.00    +0.039 A 
ATOM     10  C   UNL     1     -11.624  15.464  70.963  0.00  0.00    +0.004 A 
ATOM     11  C   UNL     1     -11.954  16.086  72.151  0.00  0.00    +0.011 A 
ATOM     12  C   UNL     1     -12.589  15.363  73.140  0.00  0.00    +0.058 A 
ATOM     13 CL   UNL     1     -12.455  15.771  74.829  0.00  0.00    -0.082 Cl
ATOM     14  C   UNL     1     -13.270  14.215  72.760  0.00  0.00    +0.011 A 
ATOM     15  C   UNL     1     -13.027  13.617  71.534  0.00  0.00    +0.004 A 
ENDBRANCH   7   9
ENDBRANCH   4   7
BRANCH   1  16
ATOM     16  O   UNL     1      -9.324  17.938  68.156  0.00  0.00    -0.472 OA
BRANCH  16  17
ATOM     17  C   UNL     1      -8.740  18.857  67.258  0.00  0.00    +0.221 C 
ATOM     18  C   UNL     1      -9.848  19.599  66.533  0.00  0.00    +0.055 C 
ATOM     19  C   UNL     1      -7.900  18.086  66.248  0.00  0.00    +0.055 C 
BRANCH  17  20
ATOM     20  C   UNL     1      -7.859  19.769  68.016  0.00  0.00    +0.353 C 
ATOM     21  O   UNL     1      -7.351  20.729  67.396  0.00  0.00    -0.246 OA
BRANCH  20  22
ATOM     22  O   UNL     1      -7.304  19.456  69.253  0.00  0.00    -0.450 OA
BRANCH  22  24
ATOM     23  C   UNL     1      -5.533  18.068  70.168  0.00  0.00    +0.047 C 
ATOM     24  C   UNL     1      -5.903  19.350  69.464  0.00  0.00    +0.169 C 
ATOM     25  C   UNL     1      -5.329  20.569  70.134  0.00  0.00    +0.047 C 
ENDBRANCH  22  24
ENDBRANCH  20  22
ENDBRANCH  17  20
ENDBRANCH  16  17
ENDBRANCH   1  16
TORSDOF 7
ENDMDL
MODEL 9
REMARK VINA RESULT:      -6.4      5.117      7.869
REMARK  Name = 
REMARK  7 active torsions:
REMARK  status: ('A' for Active; 'I' for Inactive)
REMARK    1  A    between atoms: C_2  and  O_4
REMARK    2  A    between atoms: O_4  and  C_5
REMARK    3  A    between atoms: C_5  and  C_7
REMARK    4  A    between atoms: C_7  and  O_10
REMARK    5  A    between atoms: O_10  and  C_11
REMARK    6  A    between atoms: C_14  and  C_15
REMARK    7  A    between atoms: C_15  and  C_17
REMARK                            x       y       z     vdW  Elec       q    Type
REMARK                         _______ _______ _______ _____ _____    ______ ____
ROOT
ATOM      1  C   UNL     1     -10.451  15.809  66.266  0.00  0.00    +0.139 A 
ATOM      2  C   UNL     1     -11.004  15.916  64.996  0.00  0.00    +0.037 A 
ATOM      3  C   UNL     1     -11.813  14.892  64.514  0.00  0.00    +0.006 A 
ATOM      4  C   UNL     1     -12.201  13.831  65.326  0.00  0.00    +0.039 A 
ATOM      5  C   UNL     1     -12.108  14.090  66.688  0.00  0.00    +0.006 A 
ATOM      6  C   UNL     1     -11.164  15.003  67.146  0.00  0.00    +0.037 A 
ENDROOT
BRANCH   4   7
ATOM      7  C   UNL     1     -12.342  12.467  64.802  0.00  0.00    +0.196 C 
ATOM      8  O   UNL     1     -13.270  12.272  63.962  0.00  0.00    -0.287 OA
BRANCH   7   9
ATOM      9  C   UNL     1     -11.119  11.693  64.545  0.00  0.00    +0.039 A 
ATOM     10  C   UNL     1     -10.539  11.669  63.300  0.00  0.00    +0.004 A 
ATOM     11  C   UNL     1      -9.420  10.893  63.064  0.00  0.00    +0.011 A 
ATOM     12  C   UNL     1      -9.036   9.957  64.002  0.00  0.00    +0.058 A 
ATOM     13 CL   UNL     1      -8.136   8.526  63.580  0.00  0.00    -0.082 Cl
ATOM     14  C   UNL     1      -9.481  10.133  65.305  0.00  0.00    +0.011 A 
ATOM     15  C   UNL     1     -10.544  10.975  65.586  0.00  0.00    +0.004 A 
ENDBRANCH   7   9
ENDBRANCH   4   7
BRANCH   1  16
ATOM     16  O   UNL     1      -9.126  16.169  66.528  0.00  0.00    -0.472 OA
BRANCH  16  17
ATOM     17  C   UNL     1      -8.791  17.232  67.394  0.00  0.00    +0.221 C 
ATOM     18  C   UNL     1      -8.356  16.653  68.729  0.00  0.00    +0.055 C 
ATOM     19  C   UNL     1     -10.022  18.104  67.597  0.00  0.00    +0.055 C 
BRANCH  17  20
ATOM     20  C   UNL     1      -7.729  18.043  66.763  0.00  0.00    +0.353 C 
ATOM     21  O   UNL     1      -7.564  17.920  65.529  0.00  0.00    -0.246 OA
BRANCH  20  22
ATOM     22  O   UNL     1      -6.709  18.667  67.474  0.00  0.00    -0.450 OA
BRANCH  22  24
ATOM     23  C   UNL     1      -6.318  21.053  67.240  0.00  0.00    +0.047 C 
ATOM     24  C   UNL     1      -6.868  19.936  68.093  0.00  0.00    +0.169 C 
ATOM     25  C   UNL     1      -6.334  19.960  69.500  0.00  0.00    +0.047 C 
ENDBRANCH  22  24
ENDBRANCH  20  22
ENDBRANCH  17  20
ENDBRANCH  16  17
ENDBRANCH   1  16
TORSDOF 7
ENDMDL
