MODEL 1
REMARK VINA RESULT:      -6.4      0.000      0.000
REMARK  Name = 
REMARK  11 active torsions:
REMARK  status: ('A' for Active; 'I' for Inactive)
REMARK    1  A    between atoms: C_2  and  C_3
REMARK    2  A    between atoms: C_3  and  C_4
REMARK    3  A    between atoms: C_4  and  C_5
REMARK    4  A    between atoms: C_5  and  C_8
REMARK    5  A    between atoms: C_17  and  C_18
REMARK    6  A    between atoms: C_18  and  C_19
REMARK    7  A    between atoms: C_19  and  C_20
REMARK    8  A    between atoms: C_20  and  C_21
REMARK    9  A    between atoms: C_21  and  C_22
REMARK   10  A    between atoms: C_22  and  C_23
REMARK   11  A    between atoms: C_23  and  C_24
REMARK                            x       y       z     vdW  Elec       q    Type
REMARK                         _______ _______ _______ _____ _____    ______ ____
ROOT
ATOM      1  C   UNL     1      -8.834  17.169  66.392  0.00  0.00    +0.275 C 
ATOM      2  O   UNL     1      -9.413  16.289  65.504  0.00  0.00    -0.330 OA
ATOM      3  C   UNL     1      -9.388  14.923  66.193  0.00  0.00    +0.126 C 
ATOM      4  C   UNL     1     -10.706  14.389  65.335  0.00  0.00    +0.094 C 
ATOM      5  C   UNL     1     -11.568  13.834  66.393  0.00  0.00    +0.153 C 
ATOM      6  C   UNL     1     -10.708  13.876  67.757  0.00  0.00    +0.060 C 
ATOM      7  O   UNL     1     -12.754  14.023  66.328  0.00  0.00    -0.296 OA
ATOM      8  C   UNL     1     -10.418  15.520  67.436  0.00  0.00    +0.035 C 
ATOM      9  C   UNL     1      -9.160  15.663  68.425  0.00  0.00    +0.008 C 
ATOM     10  C   UNL     1      -8.330  16.646  67.665  0.00  0.00    +0.065 C 
ATOM     11  O   UNL     1      -7.680  17.641  65.731  0.00  0.00    -0.189 OA
ENDROOT
BRANCH   1  12
ATOM     12  C   UNL     1      -9.760  18.368  66.483  0.00  0.00    +0.312 C 
ATOM     13  F   UNL     1     -10.756  18.319  65.509  0.00  0.00    -0.199 F 
ATOM     14  F   UNL     1     -10.334  18.516  67.711  0.00  0.00    -0.199 F 
BRANCH  12  15
ATOM     15  C   UNL     1      -9.037  19.675  66.183  0.00  0.00    +0.072 C 
BRANCH  15  16
ATOM     16  C   UNL     1      -8.610  20.390  67.437  0.00  0.00    +0.006 C 
BRANCH  16  18
ATOM     17  C   UNL     1      -6.841  19.714  69.014  0.00  0.00    +0.000 C 
ATOM     18  C   UNL     1      -7.137  20.350  67.695  0.00  0.00    +0.000 C 
ENDBRANCH  16  18
ENDBRANCH  15  16
ENDBRANCH  12  15
ENDBRANCH   1  12
BRANCH   6  19
ATOM     19  C   UNL     1     -11.965  14.227  68.765  0.00  0.00    +0.007 C 
BRANCH  19  20
ATOM     20  C   UNL     1     -11.970  13.177  69.829  0.00  0.00    +0.000 C 
BRANCH  20  21
ATOM     21  C   UNL     1     -12.379  13.648  71.189  0.00  0.00    +0.000 C 
BRANCH  21  22
ATOM     22  C   UNL     1     -13.649  14.471  71.017  0.00  0.00    +0.001 C 
BRANCH  22  23
ATOM     23  C   UNL     1     -13.778  15.561  72.037  0.00  0.00    +0.012 C 
BRANCH  23  24
ATOM     24  C   UNL     1     -12.492  16.035  72.629  0.00  0.00    +0.114 C 
BRANCH  24  25
ATOM     25  C   UNL     1     -12.398  15.936  74.092  0.00  0.00    +0.365 C 
ATOM     26  O   UNL     1     -12.378  17.062  74.919  0.00  0.00    -0.246 OA
ATOM     27  O   UNL     1     -12.277  14.793  74.635  0.00  0.00    -0.246 OA
ENDBRANCH  24  25
ENDBRANCH  23  24
ENDBRANCH  22  23
ENDBRANCH  21  22
ENDBRANCH  20  21
ENDBRANCH  19  20
ENDBRANCH   6  19
TORSDOF 11
ENDMDL
MODEL 2
REMARK VINA RESULT:      -6.3      3.080      7.148
REMARK  Name = 
REMARK  11 active torsions:
REMARK  status: ('A' for Active; 'I' for Inactive)
REMARK    1  A    between atoms: C_2  and  C_3
REMARK    2  A    between atoms: C_3  and  C_4
REMARK    3  A    between atoms: C_4  and  C_5
REMARK    4  A    between atoms: C_5  and  C_8
REMARK    5  A    between atoms: C_17  and  C_18
REMARK    6  A    between atoms: C_18  and  C_19
REMARK    7  A    between atoms: C_19  and  C_20
REMARK    8  A    between atoms: C_20  and  C_21
REMARK    9  A    between atoms: C_21  and  C_22
REMARK   10  A    between atoms: C_22  and  C_23
REMARK   11  A    between atoms: C_23  and  C_24
REMARK                            x       y       z     vdW  Elec       q    Type
REMARK                         _______ _______ _______ _____ _____    ______ ____
ROOT
ATOM      1  C   UNL     1     -10.614  15.911  68.395  0.00  0.00    +0.275 C 
ATOM      2  O   UNL     1     -11.178  17.126  68.073  0.00  0.00    -0.330 OA
ATOM      3  C   UNL     1     -10.180  18.188  68.541  0.00  0.00    +0.126 C 
ATOM      4  C   UNL     1     -10.711  19.284  67.412  0.00  0.00    +0.094 C 
ATOM      5  C   UNL     1      -9.451  19.748  66.806  0.00  0.00    +0.153 C 
ATOM      6  C   UNL     1      -8.256  19.095  67.671  0.00  0.00    +0.060 C 
ATOM      7  O   UNL     1      -9.416  19.925  65.617  0.00  0.00    -0.296 OA
ATOM      8  C   UNL     1      -9.008  17.588  67.434  0.00  0.00    +0.035 C 
ATOM      9  C   UNL     1      -8.247  16.833  68.630  0.00  0.00    +0.008 C 
ATOM     10  C   UNL     1      -9.322  15.903  69.089  0.00  0.00    +0.065 C 
ATOM     11  O   UNL     1     -11.508  15.333  69.321  0.00  0.00    -0.189 OA
ENDROOT
BRANCH   1  12
ATOM     12  C   UNL     1     -10.710  15.043  67.154  0.00  0.00    +0.312 C 
ATOM     13  F   UNL     1     -10.949  15.809  66.013  0.00  0.00    -0.199 F 
ATOM     14  F   UNL     1      -9.610  14.262  66.953  0.00  0.00    -0.199 F 
BRANCH  12  15
ATOM     15  C   UNL     1     -11.906  14.102  67.203  0.00  0.00    +0.072 C 
BRANCH  15  16
ATOM     16  C   UNL     1     -12.526  13.898  65.847  0.00  0.00    +0.006 C 
BRANCH  16  18
ATOM     17  C   UNL     1     -12.104  12.753  63.706  0.00  0.00    +0.000 C 
ATOM     18  C   UNL     1     -12.156  12.605  65.191  0.00  0.00    +0.000 C 
ENDBRANCH  16  18
ENDBRANCH  15  16
ENDBRANCH  12  15
ENDBRANCH   1  12
BRANCH   6  19
ATOM     19  C   UNL     1      -7.221  18.850  66.411  0.00  0.00    +0.007 C 
BRANCH  19  20
ATOM     20  C   UNL     1      -6.029  19.719  66.658  0.00  0.00    +0.000 C 
BRANCH  20  21
ATOM     21  C   UNL     1      -6.216  20.776  67.701  0.00  0.00    +0.000 C 
BRANCH  21  22
ATOM     22  C   UNL     1      -5.007  20.718  68.623  0.00  0.00    +0.001 C 
BRANCH  22  23
ATOM     23  C   UNL     1      -5.120  19.646  69.665  0.00  0.00    +0.012 C 
BRANCH  23  24
ATOM     24  C   UNL     1      -5.584  20.108  71.007  0.00  0.00    +0.114 C 
BRANCH  24  25
ATOM     25  C   UNL     1      -4.572  20.796  71.819  0.00  0.00    +0.365 C 
ATOM     26  O   UNL     1      -4.454  22.188  71.847  0.00  0.00    -0.246 OA
ATOM     27  O   UNL     1      -3.732  20.112  72.483  0.00  0.00    -0.246 OA
ENDBRANCH  24  25
ENDBRANCH  23  24
ENDBRANCH  22  23
ENDBRANCH  21  22
ENDBRANCH  20  21
ENDBRANCH  19  20
ENDBRANCH   6  19
TORSDOF 11
ENDMDL
MODEL 3
REMARK VINA RESULT:      -6.2      3.247      5.850
REMARK  Name = 
REMARK  11 active torsions:
REMARK  status: ('A' for Active; 'I' for Inactive)
REMARK    1  A    between atoms: C_2  and  C_3
REMARK    2  A    between atoms: C_3  and  C_4
REMARK    3  A    between atoms: C_4  and  C_5
REMARK    4  A    between atoms: C_5  and  C_8
REMARK    5  A    between atoms: C_17  and  C_18
REMARK    6  A    between atoms: C_18  and  C_19
REMARK    7  A    between atoms: C_19  and  C_20
REMARK    8  A    between atoms: C_20  and  C_21
REMARK    9  A    between atoms: C_21  and  C_22
REMARK   10  A    between atoms: C_22  and  C_23
REMARK   11  A    between atoms: C_23  and  C_24
REMARK                            x       y       z     vdW  Elec       q    Type
REMARK                         _______ _______ _______ _____ _____    ______ ____
ROOT
ATOM      1  C   UNL     1      -9.985  15.393  68.421  0.00  0.00    +0.275 C 
ATOM      2  O   UNL     1     -10.351  16.157  67.335  0.00  0.00    -0.330 OA
ATOM      3  C   UNL     1      -9.773  15.446  66.109  0.00  0.00    +0.126 C 
ATOM      4  C   UNL     1     -10.940  16.075  65.108  0.00  0.00    +0.094 C 
ATOM      5  C   UNL     1     -11.410  14.883  64.382  0.00  0.00    +0.153 C 
ATOM      6  C   UNL     1     -10.434  13.670  64.807  0.00  0.00    +0.060 C 
ATOM      7  O   UNL     1     -12.587  14.768  64.165  0.00  0.00    -0.296 OA
ATOM      8  C   UNL     1     -10.761  14.074  66.427  0.00  0.00    +0.035 C 
ATOM      9  C   UNL     1      -9.501  13.297  67.050  0.00  0.00    +0.008 C 
ATOM     10  C   UNL     1      -9.164  14.201  68.190  0.00  0.00    +0.065 C 
ATOM     11  O   UNL     1      -9.160  16.237  69.194  0.00  0.00    -0.189 OA
ENDROOT
BRANCH   1  12
ATOM     12  C   UNL     1     -11.238  15.189  69.252  0.00  0.00    +0.312 C 
ATOM     13  F   UNL     1     -12.375  15.632  68.577  0.00  0.00    -0.199 F 
ATOM     14  F   UNL     1     -11.421  13.897  69.648  0.00  0.00    -0.199 F 
BRANCH  12  15
ATOM     15  C   UNL     1     -11.229  16.034  70.520  0.00  0.00    +0.072 C 
BRANCH  15  16
ATOM     16  C   UNL     1     -11.639  15.242  71.733  0.00  0.00    +0.006 C 
BRANCH  16  18
ATOM     17  C   UNL     1     -14.103  15.222  71.706  0.00  0.00    +0.000 C 
ATOM     18  C   UNL     1     -12.884  15.739  72.397  0.00  0.00    +0.000 C 
ENDBRANCH  16  18
ENDBRANCH  15  16
ENDBRANCH  12  15
ENDBRANCH   1  12
BRANCH   6  19
ATOM     19  C   UNL     1     -11.584  12.489  64.802  0.00  0.00    +0.007 C 
BRANCH  19  20
ATOM     20  C   UNL     1     -11.075  11.397  63.916  0.00  0.00    +0.000 C 
BRANCH  20  21
ATOM     21  C   UNL     1      -9.698  10.907  64.236  0.00  0.00    +0.000 C 
BRANCH  21  22
ATOM     22  C   UNL     1      -9.852   9.658  65.092  0.00  0.00    +0.001 C 
BRANCH  22  23
ATOM     23  C   UNL     1      -9.536   9.899  66.537  0.00  0.00    +0.012 C 
BRANCH  23  24
ATOM     24  C   UNL     1     -10.547   9.380  67.505  0.00  0.00    +0.114 C 
BRANCH  24  25
ATOM     25  C   UNL     1     -11.144  10.388  68.391  0.00  0.00    +0.365 C 
ATOM     26  O   UNL     1     -12.200  11.209  67.987  0.00  0.00    -0.246 OA
ATOM     27  O   UNL     1     -10.658  10.567  69.552  0.00  0.00    -0.246 OA
ENDBRANCH  24  25
ENDBRANCH  23  24
ENDBRANCH  22  23
ENDBRANCH  21  22
ENDBRANCH  20  21
ENDBRANCH  19  20
ENDBRANCH   6  19
TORSDOF 11
ENDMDL
MODEL 4
REMARK VINA RESULT:      -6.2      3.237      6.744
REMARK  Name = 
REMARK  11 active torsions:
REMARK  status: ('A' for Active; 'I' for Inactive)
REMARK    1  A    between atoms: C_2  and  C_3
REMARK    2  A    between atoms: C_3  and  C_4
REMARK    3  A    between atoms: C_4  and  C_5
REMARK    4  A    between atoms: C_5  and  C_8
REMARK    5  A    between atoms: C_17  and  C_18
REMARK    6  A    between atoms: C_18  and  C_19
REMARK    7  A    between atoms: C_19  and  C_20
REMARK    8  A    between atoms: C_20  and  C_21
REMARK    9  A    between atoms: C_21  and  C_22
REMARK   10  A    between atoms: C_22  and  C_23
REMARK   11  A    between atoms: C_23  and  C_24
REMARK                            x       y       z     vdW  Elec       q    Type
REMARK                         _______ _______ _______ _____ _____    ______ ____
ROOT
ATOM      1  C   UNL     1     -10.257  15.003  68.747  0.00  0.00    +0.275 C 
ATOM      2  O   UNL     1     -10.226  16.018  67.816  0.00  0.00    -0.330 OA
ATOM      3  C   UNL     1      -9.681  15.391  66.530  0.00  0.00    +0.126 C 
ATOM      4  C   UNL     1     -10.460  16.504  65.575  0.00  0.00    +0.094 C 
ATOM      5  C   UNL     1     -11.120  15.652  64.571  0.00  0.00    +0.153 C 
ATOM      6  C   UNL     1     -10.592  14.149  64.824  0.00  0.00    +0.060 C 
ATOM      7  O   UNL     1     -12.235  15.934  64.220  0.00  0.00    -0.296 OA
ATOM      8  C   UNL     1     -11.044  14.344  66.452  0.00  0.00    +0.035 C 
ATOM      9  C   UNL     1     -10.158  13.129  67.018  0.00  0.00    +0.008 C 
ATOM     10  C   UNL     1      -9.768  13.678  68.351  0.00  0.00    +0.065 C 
ATOM     11  O   UNL     1      -9.364  15.414  69.758  0.00  0.00    -0.189 OA
ENDROOT
BRANCH   1  12
ATOM     12  C   UNL     1     -11.632  15.042  69.388  0.00  0.00    +0.312 C 
ATOM     13  F   UNL     1     -12.399  16.093  68.887  0.00  0.00    -0.199 F 
ATOM     14  F   UNL     1     -12.323  13.874  69.257  0.00  0.00    -0.199 F 
BRANCH  12  15
ATOM     15  C   UNL     1     -11.560  15.337  70.881  0.00  0.00    +0.072 C 
BRANCH  15  16
ATOM     16  C   UNL     1     -12.914  15.633  71.468  0.00  0.00    +0.006 C 
BRANCH  16  18
ATOM     17  C   UNL     1     -13.673  13.434  72.278  0.00  0.00    +0.000 C 
ATOM     18  C   UNL     1     -13.254  14.812  72.671  0.00  0.00    +0.000 C 
ENDBRANCH  16  18
ENDBRANCH  15  16
ENDBRANCH  12  15
ENDBRANCH   1  12
BRANCH   6  19
ATOM     19  C   UNL     1     -12.006  13.385  64.455  0.00  0.00    +0.007 C 
BRANCH  19  20
ATOM     20  C   UNL     1     -11.676  12.335  63.443  0.00  0.00    +0.000 C 
BRANCH  20  21
ATOM     21  C   UNL     1     -10.245  11.900  63.418  0.00  0.00    +0.000 C 
BRANCH  21  22
ATOM     22  C   UNL     1     -10.201  10.464  63.920  0.00  0.00    +0.001 C 
BRANCH  22  23
ATOM     23  C   UNL     1      -9.221  10.267  65.037  0.00  0.00    +0.012 C 
BRANCH  23  24
ATOM     24  C   UNL     1      -9.236   8.913  65.666  0.00  0.00    +0.114 C 
BRANCH  24  25
ATOM     25  C   UNL     1     -10.303   8.689  66.651  0.00  0.00    +0.365 C 
ATOM     26  O   UNL     1     -10.874   7.432  66.862  0.00  0.00    -0.246 OA
ATOM     27  O   UNL     1     -10.769   9.675  67.303  0.00  0.00    -0.246 OA
ENDBRANCH  24  25
ENDBRANCH  23  24
ENDBRANCH  22  23
ENDBRANCH  21  22
ENDBRANCH  20  21
ENDBRANCH  19  20
ENDBRANCH   6  19
TORSDOF 11
ENDMDL
MODEL 5
REMARK VINA RESULT:      -6.2      3.234      6.986
REMARK  Name = 
REMARK  11 active torsions:
REMARK  status: ('A' for Active; 'I' for Inactive)
REMARK    1  A    between atoms: C_2  and  C_3
REMARK    2  A    between atoms: C_3  and  C_4
REMARK    3  A    between atoms: C_4  and  C_5
REMARK    4  A    between atoms: C_5  and  C_8
REMARK    5  A    between atoms: C_17  and  C_18
REMARK    6  A    between atoms: C_18  and  C_19
REMARK    7  A    between atoms: C_19  and  C_20
REMARK    8  A    between atoms: C_20  and  C_21
REMARK    9  A    between atoms: C_21  and  C_22
REMARK   10  A    between atoms: C_22  and  C_23
REMARK   11  A    between atoms: C_23  and  C_24
REMARK                            x       y       z     vdW  Elec       q    Type
REMARK                         _______ _______ _______ _____ _____    ______ ____
ROOT
ATOM      1  C   UNL     1     -11.434  13.107  66.846  0.00  0.00    +0.275 C 
ATOM      2  O   UNL     1     -12.012  13.950  67.769  0.00  0.00    -0.330 OA
ATOM      3  C   UNL     1     -10.889  14.358  68.725  0.00  0.00    +0.126 C 
ATOM      4  C   UNL     1     -11.641  15.789  69.108  0.00  0.00    +0.094 C 
ATOM      5  C   UNL     1     -10.554  16.770  68.946  0.00  0.00    +0.153 C 
ATOM      6  C   UNL     1      -9.208  15.926  68.670  0.00  0.00    +0.060 C 
ATOM      7  O   UNL     1     -10.809  17.833  68.443  0.00  0.00    -0.296 OA
ATOM      8  C   UNL     1     -10.053  15.125  67.431  0.00  0.00    +0.035 C 
ATOM      9  C   UNL     1      -9.049  13.876  67.324  0.00  0.00    +0.008 C 
ATOM     10  C   UNL     1     -10.011  12.783  66.992  0.00  0.00    +0.065 C 
ATOM     11  O   UNL     1     -12.090  11.872  67.025  0.00  0.00    -0.189 OA
ENDROOT
BRANCH   1  12
ATOM     12  C   UNL     1     -11.869  13.596  65.477  0.00  0.00    +0.312 C 
ATOM     13  F   UNL     1     -12.956  14.465  65.567  0.00  0.00    -0.199 F 
ATOM     14  F   UNL     1     -10.867  14.196  64.772  0.00  0.00    -0.199 F 
BRANCH  12  15
ATOM     15  C   UNL     1     -12.394  12.464  64.603  0.00  0.00    +0.072 C 
BRANCH  15  16
ATOM     16  C   UNL     1     -11.437  12.108  63.498  0.00  0.00    +0.006 C 
BRANCH  16  18
ATOM     17  C   UNL     1      -9.419  10.873  62.808  0.00  0.00    +0.000 C 
ATOM     18  C   UNL     1     -10.495  10.996  63.837  0.00  0.00    +0.000 C 
ENDBRANCH  16  18
ENDBRANCH  15  16
ENDBRANCH  12  15
ENDBRANCH   1  12
BRANCH   6  19
ATOM     19  C   UNL     1      -8.529  16.990  67.609  0.00  0.00    +0.007 C 
BRANCH  19  20
ATOM     20  C   UNL     1      -7.176  17.331  68.148  0.00  0.00    +0.000 C 
BRANCH  20  21
ATOM     21  C   UNL     1      -6.675  18.695  67.794  0.00  0.00    +0.000 C 
BRANCH  21  22
ATOM     22  C   UNL     1      -6.868  19.578  69.019  0.00  0.00    +0.001 C 
BRANCH  22  23
ATOM     23  C   UNL     1      -5.724  19.494  69.984  0.00  0.00    +0.012 C 
BRANCH  23  24
ATOM     24  C   UNL     1      -5.897  20.271  71.247  0.00  0.00    +0.114 C 
BRANCH  24  25
ATOM     25  C   UNL     1      -4.658  20.790  71.842  0.00  0.00    +0.365 C 
ATOM     26  O   UNL     1      -3.700  19.954  72.422  0.00  0.00    -0.246 OA
ATOM     27  O   UNL     1      -4.463  22.044  71.886  0.00  0.00    -0.246 OA
ENDBRANCH  24  25
ENDBRANCH  23  24
ENDBRANCH  22  23
ENDBRANCH  21  22
ENDBRANCH  20  21
ENDBRANCH  19  20
ENDBRANCH   6  19
TORSDOF 11
ENDMDL
MODEL 6
REMARK VINA RESULT:      -6.1      1.608      2.166
REMARK  Name = 
REMARK  11 active torsions:
REMARK  status: ('A' for Active; 'I' for Inactive)
REMARK    1  A    between atoms: C_2  and  C_3
REMARK    2  A    between atoms: C_3  and  C_4
REMARK    3  A    between atoms: C_4  and  C_5
REMARK    4  A    between atoms: C_5  and  C_8
REMARK    5  A    between atoms: C_17  and  C_18
REMARK    6  A    between atoms: C_18  and  C_19
REMARK    7  A    between atoms: C_19  and  C_20
REMARK    8  A    between atoms: C_20  and  C_21
REMARK    9  A    between atoms: C_21  and  C_22
REMARK   10  A    between atoms: C_22  and  C_23
REMARK   11  A    between atoms: C_23  and  C_24
REMARK                            x       y       z     vdW  Elec       q    Type
REMARK                         _______ _______ _______ _____ _____    ______ ____
ROOT
ATOM      1  C   UNL     1      -9.329  16.606  66.212  0.00  0.00    +0.275 C 
ATOM      2  O   UNL     1     -10.238  16.412  65.195  0.00  0.00    -0.330 OA
ATOM      3  C   UNL     1     -10.215  14.911  64.895  0.00  0.00    +0.126 C 
ATOM      4  C   UNL     1     -11.774  14.932  64.322  0.00  0.00    +0.094 C 
ATOM      5  C   UNL     1     -12.389  13.802  65.040  0.00  0.00    +0.153 C 
ATOM      6  C   UNL     1     -11.199  13.058  65.835  0.00  0.00    +0.060 C 
ATOM      7  O   UNL     1     -13.513  13.925  65.452  0.00  0.00    -0.296 OA
ATOM      8  C   UNL     1     -10.785  14.575  66.483  0.00  0.00    +0.035 C 
ATOM      9  C   UNL     1      -9.301  14.161  66.940  0.00  0.00    +0.008 C 
ATOM     10  C   UNL     1      -8.579  15.449  66.709  0.00  0.00    +0.065 C 
ATOM     11  O   UNL     1      -8.341  17.446  65.657  0.00  0.00    -0.189 OA
ENDROOT
BRANCH   1  12
ATOM     12  C   UNL     1     -10.026  17.451  67.263  0.00  0.00    +0.312 C 
ATOM     13  F   UNL     1     -10.885  18.382  66.682  0.00  0.00    -0.199 F 
ATOM     14  F   UNL     1     -10.712  16.713  68.182  0.00  0.00    -0.199 F 
BRANCH  12  15
ATOM     15  C   UNL     1      -9.046  18.314  68.047  0.00  0.00    +0.072 C 
BRANCH  15  16
ATOM     16  C   UNL     1      -9.533  19.730  68.201  0.00  0.00    +0.006 C 
BRANCH  16  18
ATOM     17  C   UNL     1      -7.352  20.355  67.240  0.00  0.00    +0.000 C 
ATOM     18  C   UNL     1      -8.792  20.728  67.368  0.00  0.00    +0.000 C 
ENDBRANCH  16  18
ENDBRANCH  15  16
ENDBRANCH  12  15
ENDBRANCH   1  12
BRANCH   6  19
ATOM     19  C   UNL     1     -12.081  12.657  67.169  0.00  0.00    +0.007 C 
BRANCH  19  20
ATOM     20  C   UNL     1     -11.502  11.385  67.701  0.00  0.00    +0.000 C 
BRANCH  20  21
ATOM     21  C   UNL     1     -11.238  11.372  69.173  0.00  0.00    +0.000 C 
BRANCH  21  22
ATOM     22  C   UNL     1     -11.339  12.810  69.662  0.00  0.00    +0.001 C 
BRANCH  22  23
ATOM     23  C   UNL     1     -12.384  12.993  70.721  0.00  0.00    +0.012 C 
BRANCH  23  24
ATOM     24  C   UNL     1     -12.965  14.366  70.810  0.00  0.00    +0.114 C 
BRANCH  24  25
ATOM     25  C   UNL     1     -13.943  14.566  71.889  0.00  0.00    +0.365 C 
ATOM     26  O   UNL     1     -14.466  15.823  72.200  0.00  0.00    -0.246 OA
ATOM     27  O   UNL     1     -14.293  13.578  72.607  0.00  0.00    -0.246 OA
ENDBRANCH  24  25
ENDBRANCH  23  24
ENDBRANCH  22  23
ENDBRANCH  21  22
ENDBRANCH  20  21
ENDBRANCH  19  20
ENDBRANCH   6  19
TORSDOF 11
ENDMDL
MODEL 7
REMARK VINA RESULT:      -6.1      3.554      5.698
REMARK  Name = 
REMARK  11 active torsions:
REMARK  status: ('A' for Active; 'I' for Inactive)
REMARK    1  A    between atoms: C_2  and  C_3
REMARK    2  A    between atoms: C_3  and  C_4
REMARK    3  A    between atoms: C_4  and  C_5
REMARK    4  A    between atoms: C_5  and  C_8
REMARK    5  A    between atoms: C_17  and  C_18
REMARK    6  A    between atoms: C_18  and  C_19
REMARK    7  A    between atoms: C_19  and  C_20
REMARK    8  A    between atoms: C_20  and  C_21
REMARK    9  A    between atoms: C_21  and  C_22
REMARK   10  A    between atoms: C_22  and  C_23
REMARK   11  A    between atoms: C_23  and  C_24
REMARK                            x       y       z     vdW  Elec       q    Type
REMARK                         _______ _______ _______ _____ _____    ______ ____
ROOT
ATOM      1  C   UNL     1      -6.918  20.392  67.359  0.00  0.00    +0.275 C 
ATOM      2  O   UNL     1      -8.275  20.596  67.484  0.00  0.00    -0.330 OA
ATOM      3  C   UNL     1      -8.930  19.722  66.412  0.00  0.00    +0.126 C 
ATOM      4  C   UNL     1     -10.340  19.592  67.281  0.00  0.00    +0.094 C 
ATOM      5  C   UNL     1     -10.595  18.142  67.252  0.00  0.00    +0.153 C 
ATOM      6  C   UNL     1      -9.497  17.499  66.261  0.00  0.00    +0.060 C 
ATOM      7  O   UNL     1     -11.010  17.611  68.249  0.00  0.00    -0.296 OA
ATOM      8  C   UNL     1      -8.311  18.308  67.173  0.00  0.00    +0.035 C 
ATOM      9  C   UNL     1      -7.152  18.206  66.066  0.00  0.00    +0.008 C 
ATOM     10  C   UNL     1      -6.441  19.499  66.298  0.00  0.00    +0.065 C 
ATOM     11  O   UNL     1      -6.395  21.655  67.009  0.00  0.00    -0.189 OA
ENDROOT
BRANCH   1  12
ATOM     12  C   UNL     1      -6.389  20.114  68.754  0.00  0.00    +0.312 C 
ATOM     13  F   UNL     1      -5.788  21.244  69.306  0.00  0.00    -0.199 F 
ATOM     14  F   UNL     1      -7.342  19.643  69.610  0.00  0.00    -0.199 F 
BRANCH  12  15
ATOM     15  C   UNL     1      -5.267  19.084  68.747  0.00  0.00    +0.072 C 
BRANCH  15  16
ATOM     16  C   UNL     1      -5.570  17.907  69.635  0.00  0.00    +0.006 C 
BRANCH  16  18
ATOM     17  C   UNL     1      -6.524  15.637  69.545  0.00  0.00    +0.000 C 
ATOM     18  C   UNL     1      -5.547  16.587  68.933  0.00  0.00    +0.000 C 
ENDBRANCH  16  18
ENDBRANCH  15  16
ENDBRANCH  12  15
ENDBRANCH   1  12
BRANCH   6  19
ATOM     19  C   UNL     1      -9.279  16.097  67.101  0.00  0.00    +0.007 C 
BRANCH  19  20
ATOM     20  C   UNL     1      -9.524  14.977  66.140  0.00  0.00    +0.000 C 
BRANCH  20  21
ATOM     21  C   UNL     1      -9.421  13.603  66.723  0.00  0.00    +0.000 C 
BRANCH  21  22
ATOM     22  C   UNL     1     -10.485  13.492  67.806  0.00  0.00    +0.001 C 
BRANCH  22  23
ATOM     23  C   UNL     1     -11.710  12.761  67.347  0.00  0.00    +0.012 C 
BRANCH  23  24
ATOM     24  C   UNL     1     -11.657  12.248  65.945  0.00  0.00    +0.114 C 
BRANCH  24  25
ATOM     25  C   UNL     1     -12.624  12.850  65.018  0.00  0.00    +0.365 C 
ATOM     26  O   UNL     1     -13.033  12.212  63.844  0.00  0.00    -0.246 OA
ATOM     27  O   UNL     1     -13.072  14.016  65.252  0.00  0.00    -0.246 OA
ENDBRANCH  24  25
ENDBRANCH  23  24
ENDBRANCH  22  23
ENDBRANCH  21  22
ENDBRANCH  20  21
ENDBRANCH  19  20
ENDBRANCH   6  19
TORSDOF 11
ENDMDL
MODEL 8
REMARK VINA RESULT:      -6.0      2.997      4.654
REMARK  Name = 
REMARK  11 active torsions:
REMARK  status: ('A' for Active; 'I' for Inactive)
REMARK    1  A    between atoms: C_2  and  C_3
REMARK    2  A    between atoms: C_3  and  C_4
REMARK    3  A    between atoms: C_4  and  C_5
REMARK    4  A    between atoms: C_5  and  C_8
REMARK    5  A    between atoms: C_17  and  C_18
REMARK    6  A    between atoms: C_18  and  C_19
REMARK    7  A    between atoms: C_19  and  C_20
REMARK    8  A    between atoms: C_20  and  C_21
REMARK    9  A    between atoms: C_21  and  C_22
REMARK   10  A    between atoms: C_22  and  C_23
REMARK   11  A    between atoms: C_23  and  C_24
REMARK                            x       y       z     vdW  Elec       q    Type
REMARK                         _______ _______ _______ _____ _____    ______ ____
ROOT
ATOM      1  C   UNL     1      -9.581  16.138  68.041  0.00  0.00    +0.275 C 
ATOM      2  O   UNL     1     -10.103  16.310  66.778  0.00  0.00    -0.330 OA
ATOM      3  C   UNL     1      -9.680  15.074  65.979  0.00  0.00    +0.126 C 
ATOM      4  C   UNL     1     -10.982  15.206  64.956  0.00  0.00    +0.094 C 
ATOM      5  C   UNL     1     -11.522  13.836  64.954  0.00  0.00    +0.153 C 
ATOM      6  C   UNL     1     -10.476  12.927  65.780  0.00  0.00    +0.060 C 
ATOM      7  O   UNL     1     -12.716  13.687  64.969  0.00  0.00    -0.296 OA
ATOM      8  C   UNL     1     -10.591  14.068  67.036  0.00  0.00    +0.035 C 
ATOM      9  C   UNL     1      -9.245  13.622  67.790  0.00  0.00    +0.008 C 
ATOM     10  C   UNL     1      -8.775  14.942  68.307  0.00  0.00    +0.065 C 
ATOM     11  O   UNL     1      -8.676  17.208  68.205  0.00  0.00    -0.189 OA
ENDROOT
BRANCH   1  12
ATOM     12  C   UNL     1     -10.707  16.415  69.019  0.00  0.00    +0.312 C 
ATOM     13  F   UNL     1     -10.588  17.680  69.591  0.00  0.00    -0.199 F 
ATOM     14  F   UNL     1     -11.948  16.282  68.467  0.00  0.00    -0.199 F 
BRANCH  12  15
ATOM     15  C   UNL     1     -10.666  15.479  70.220  0.00  0.00    +0.072 C 
BRANCH  15  16
ATOM     16  C   UNL     1     -11.946  14.703  70.382  0.00  0.00    +0.006 C 
BRANCH  16  18
ATOM     17  C   UNL     1     -12.055  15.975  72.489  0.00  0.00    +0.000 C 
ATOM     18  C   UNL     1     -12.836  15.208  71.473  0.00  0.00    +0.000 C 
ENDBRANCH  16  18
ENDBRANCH  15  16
ENDBRANCH  12  15
ENDBRANCH   1  12
BRANCH   6  19
ATOM     19  C   UNL     1     -11.594  11.941  66.485  0.00  0.00    +0.007 C 
BRANCH  19  20
ATOM     20  C   UNL     1     -10.894  10.660  66.810  0.00  0.00    +0.000 C 
BRANCH  20  21
ATOM     21  C   UNL     1     -11.256  10.052  68.128  0.00  0.00    +0.000 C 
BRANCH  21  22
ATOM     22  C   UNL     1     -11.868  11.155  68.980  0.00  0.00    +0.001 C 
BRANCH  22  23
ATOM     23  C   UNL     1     -11.668  10.935  70.449  0.00  0.00    +0.012 C 
BRANCH  23  24
ATOM     24  C   UNL     1     -12.921  10.745  71.240  0.00  0.00    +0.114 C 
BRANCH  24  25
ATOM     25  C   UNL     1     -13.141   9.386  71.751  0.00  0.00    +0.365 C 
ATOM     26  O   UNL     1     -14.246   9.053  72.540  0.00  0.00    -0.246 OA
ATOM     27  O   UNL     1     -12.277   8.483  71.521  0.00  0.00    -0.246 OA
ENDBRANCH  24  25
ENDBRANCH  23  24
ENDBRANCH  22  23
ENDBRANCH  21  22
ENDBRANCH  20  21
ENDBRANCH  19  20
ENDBRANCH   6  19
TORSDOF 11
ENDMDL
MODEL 9
REMARK VINA RESULT:      -6.0      3.041      3.633
REMARK  Name = 
REMARK  11 active torsions:
REMARK  status: ('A' for Active; 'I' for Inactive)
REMARK    1  A    between atoms: C_2  and  C_3
REMARK    2  A    between atoms: C_3  and  C_4
REMARK    3  A    between atoms: C_4  and  C_5
REMARK    4  A    between atoms: C_5  and  C_8
REMARK    5  A    between atoms: C_17  and  C_18
REMARK    6  A    between atoms: C_18  and  C_19
REMARK    7  A    between atoms: C_19  and  C_20
REMARK    8  A    between atoms: C_20  and  C_21
REMARK    9  A    between atoms: C_21  and  C_22
REMARK   10  A    between atoms: C_22  and  C_23
REMARK   11  A    between atoms: C_23  and  C_24
REMARK                            x       y       z     vdW  Elec       q    Type
REMARK                         _______ _______ _______ _____ _____    ______ ____
ROOT
ATOM      1  C   UNL     1      -9.172  16.651  66.352  0.00  0.00    +0.275 C 
ATOM      2  O   UNL     1     -10.165  16.516  65.407  0.00  0.00    -0.330 OA
ATOM      3  C   UNL     1     -10.138  15.047  64.979  0.00  0.00    +0.126 C 
ATOM      4  C   UNL     1     -11.743  15.070  64.551  0.00  0.00    +0.094 C 
ATOM      5  C   UNL     1     -12.266  13.868  65.222  0.00  0.00    +0.153 C 
ATOM      6  C   UNL     1     -10.993  13.095  65.841  0.00  0.00    +0.060 C 
ATOM      7  O   UNL     1     -13.350  13.923  65.740  0.00  0.00    -0.296 OA
ATOM      8  C   UNL     1     -10.554  14.564  66.577  0.00  0.00    +0.035 C 
ATOM      9  C   UNL     1      -9.027  14.156  66.864  0.00  0.00    +0.008 C 
ATOM     10  C   UNL     1      -8.356  15.478  66.680  0.00  0.00    +0.065 C 
ATOM     11  O   UNL     1      -8.256  17.562  65.785  0.00  0.00    -0.189 OA
ENDROOT
BRANCH   1  12
ATOM     12  C   UNL     1      -9.788  17.385  67.529  0.00  0.00    +0.312 C 
ATOM     13  F   UNL     1     -11.180  17.319  67.499  0.00  0.00    -0.199 F 
ATOM     14  F   UNL     1      -9.338  16.942  68.738  0.00  0.00    -0.199 F 
BRANCH  12  15
ATOM     15  C   UNL     1      -9.504  18.881  67.484  0.00  0.00    +0.072 C 
BRANCH  15  16
ATOM     16  C   UNL     1      -8.801  19.364  68.724  0.00  0.00    +0.006 C 
BRANCH  16  18
ATOM     17  C   UNL     1      -7.105  20.587  67.421  0.00  0.00    +0.000 C 
ATOM     18  C   UNL     1      -7.340  19.625  68.539  0.00  0.00    +0.000 C 
ENDBRANCH  16  18
ENDBRANCH  15  16
ENDBRANCH  12  15
ENDBRANCH   1  12
BRANCH   6  19
ATOM     19  C   UNL     1     -11.742  12.558  67.209  0.00  0.00    +0.007 C 
BRANCH  19  20
ATOM     20  C   UNL     1     -11.301  11.144  67.415  0.00  0.00    +0.000 C 
BRANCH  20  21
ATOM     21  C   UNL     1     -11.096  10.742  68.841  0.00  0.00    +0.000 C 
BRANCH  21  22
ATOM     22  C   UNL     1     -11.933  11.680  69.699  0.00  0.00    +0.001 C 
BRANCH  22  23
ATOM     23  C   UNL     1     -12.406  11.041  70.969  0.00  0.00    +0.012 C 
BRANCH  23  24
ATOM     24  C   UNL     1     -11.919   9.649  71.201  0.00  0.00    +0.114 C 
BRANCH  24  25
ATOM     25  C   UNL     1     -12.913   8.718  71.752  0.00  0.00    +0.365 C 
ATOM     26  O   UNL     1     -12.880   7.346  71.490  0.00  0.00    -0.246 OA
ATOM     27  O   UNL     1     -13.875   9.170  72.449  0.00  0.00    -0.246 OA
ENDBRANCH  24  25
ENDBRANCH  23  24
ENDBRANCH  22  23
ENDBRANCH  21  22
ENDBRANCH  20  21
ENDBRANCH  19  20
ENDBRANCH   6  19
TORSDOF 11
ENDMDL
