MODEL 1
REMARK VINA RESULT:      -4.5      0.000      0.000
REMARK  Name = 
REMARK  2 active torsions:
REMARK  status: ('A' for Active; 'I' for Inactive)
REMARK    1  A    between atoms: O_2  and  C_3
REMARK    2  A    between atoms: C_3  and  C_5
REMARK                            x       y       z     vdW  Elec       q    Type
REMARK                         _______ _______ _______ _____ _____    ______ ____
ROOT
ATOM      1  C   UNL     1     -11.182  14.531  65.139  0.00  0.00    +0.095 A 
ATOM      2  C   UNL     1     -12.533  14.222  65.154  0.00  0.00    +0.105 A 
ATOM      3  N   UNL     1     -13.015  13.061  64.661  0.00  0.00    -0.242 NA
ATOM      4  C   UNL     1     -12.212  12.161  64.046  0.00  0.00    +0.099 A 
ATOM      5  C   UNL     1     -10.904  12.535  63.776  0.00  0.00    +0.021 A 
ATOM      6  C   UNL     1     -10.376  13.579  64.525  0.00  0.00    +0.010 A 
ENDROOT
BRANCH   1   7
ATOM      7  C   UNL     1     -10.784  15.942  65.031  0.00  0.00    +0.343 C 
ATOM      8  O   UNL     1     -11.392  16.587  64.123  0.00  0.00    -0.245 OA
BRANCH   7  10
ATOM      9  C   UNL     1     -10.359  18.092  66.171  0.00  0.00    +0.256 C 
ATOM     10  O   UNL     1     -10.294  16.668  66.101  0.00  0.00    -0.441 OA
ENDBRANCH   7  10
ENDBRANCH   1   7
TORSDOF 2
ENDMDL
MODEL 2
REMARK VINA RESULT:      -4.2      6.381      7.045
REMARK  Name = 
REMARK  2 active torsions:
REMARK  status: ('A' for Active; 'I' for Inactive)
REMARK    1  A    between atoms: O_2  and  C_3
REMARK    2  A    between atoms: C_3  and  C_5
REMARK                            x       y       z     vdW  Elec       q    Type
REMARK                         _______ _______ _______ _____ _____    ______ ____
ROOT
ATOM      1  C   UNL     1     -12.398  14.584  71.310  0.00  0.00    +0.095 A 
ATOM      2  C   UNL     1     -12.325  13.428  70.547  0.00  0.00    +0.105 A 
ATOM      3  N   UNL     1     -11.887  13.431  69.270  0.00  0.00    -0.242 NA
ATOM      4  C   UNL     1     -11.568  14.579  68.629  0.00  0.00    +0.099 A 
ATOM      5  C   UNL     1     -11.867  15.779  69.259  0.00  0.00    +0.021 A 
ATOM      6  C   UNL     1     -12.040  15.746  70.637  0.00  0.00    +0.010 A 
ENDROOT
BRANCH   1   7
ATOM      7  C   UNL     1     -13.438  14.681  72.344  0.00  0.00    +0.343 C 
ATOM      8  O   UNL     1     -13.991  13.576  72.633  0.00  0.00    -0.245 OA
BRANCH   7  10
ATOM      9  C   UNL     1     -12.474  15.710  74.372  0.00  0.00    +0.256 C 
ATOM     10  O   UNL     1     -13.437  15.660  73.320  0.00  0.00    -0.441 OA
ENDBRANCH   7  10
ENDBRANCH   1   7
TORSDOF 2
ENDMDL
MODEL 3
REMARK VINA RESULT:      -4.1      5.922      6.792
REMARK  Name = 
REMARK  2 active torsions:
REMARK  status: ('A' for Active; 'I' for Inactive)
REMARK    1  A    between atoms: O_2  and  C_3
REMARK    2  A    between atoms: C_3  and  C_5
REMARK                            x       y       z     vdW  Elec       q    Type
REMARK                         _______ _______ _______ _____ _____    ______ ____
ROOT
ATOM      1  C   UNL     1     -11.898  14.928  70.771  0.00  0.00    +0.095 A 
ATOM      2  C   UNL     1     -11.783  16.045  71.583  0.00  0.00    +0.105 A 
ATOM      3  N   UNL     1     -12.298  16.088  72.831  0.00  0.00    -0.242 NA
ATOM      4  C   UNL     1     -13.030  15.067  73.335  0.00  0.00    +0.099 A 
ATOM      5  C   UNL     1     -13.391  14.040  72.474  0.00  0.00    +0.021 A 
ATOM      6  C   UNL     1     -12.633  13.883  71.321  0.00  0.00    +0.010 A 
ENDROOT
BRANCH   1   7
ATOM      7  C   UNL     1     -11.961  15.120  69.315  0.00  0.00    +0.343 C 
ATOM      8  O   UNL     1     -11.934  16.334  68.947  0.00  0.00    -0.245 OA
BRANCH   7  10
ATOM      9  C   UNL     1     -11.960  14.103  67.063  0.00  0.00    +0.256 C 
ATOM     10  O   UNL     1     -11.502  14.177  68.413  0.00  0.00    -0.441 OA
ENDBRANCH   7  10
ENDBRANCH   1   7
TORSDOF 2
ENDMDL
MODEL 4
REMARK VINA RESULT:      -4.1      2.579      4.266
REMARK  Name = 
REMARK  2 active torsions:
REMARK  status: ('A' for Active; 'I' for Inactive)
REMARK    1  A    between atoms: O_2  and  C_3
REMARK    2  A    between atoms: C_3  and  C_5
REMARK                            x       y       z     vdW  Elec       q    Type
REMARK                         _______ _______ _______ _____ _____    ______ ____
ROOT
ATOM      1  C   UNL     1     -11.511  14.510  65.905  0.00  0.00    +0.095 A 
ATOM      2  C   UNL     1     -10.647  15.556  65.621  0.00  0.00    +0.105 A 
ATOM      3  N   UNL     1     -10.130  16.350  66.583  0.00  0.00    -0.242 NA
ATOM      4  C   UNL     1     -10.492  16.222  67.881  0.00  0.00    +0.099 A 
ATOM      5  C   UNL     1     -11.542  15.367  68.182  0.00  0.00    +0.021 A 
ATOM      6  C   UNL     1     -11.847  14.384  67.249  0.00  0.00    +0.010 A 
ENDROOT
BRANCH   1   7
ATOM      7  C   UNL     1     -12.526  14.144  64.906  0.00  0.00    +0.343 C 
ATOM      8  O   UNL     1     -12.663  14.988  63.969  0.00  0.00    -0.245 OA
BRANCH   7  10
ATOM      9  C   UNL     1     -12.322  12.100  63.533  0.00  0.00    +0.256 C 
ATOM     10  O   UNL     1     -12.868  12.832  64.630  0.00  0.00    -0.441 OA
ENDBRANCH   7  10
ENDBRANCH   1   7
TORSDOF 2
ENDMDL
MODEL 5
REMARK VINA RESULT:      -4.1      5.864      6.945
REMARK  Name = 
REMARK  2 active torsions:
REMARK  status: ('A' for Active; 'I' for Inactive)
REMARK    1  A    between atoms: O_2  and  C_3
REMARK    2  A    between atoms: C_3  and  C_5
REMARK                            x       y       z     vdW  Elec       q    Type
REMARK                         _______ _______ _______ _____ _____    ______ ____
ROOT
ATOM      1  C   UNL     1     -12.554  15.459  70.567  0.00  0.00    +0.095 A 
ATOM      2  C   UNL     1     -13.843  15.177  70.993  0.00  0.00    +0.105 A 
ATOM      3  N   UNL     1     -14.275  15.481  72.236  0.00  0.00    -0.242 NA
ATOM      4  C   UNL     1     -13.448  16.007  73.169  0.00  0.00    +0.099 A 
ATOM      5  C   UNL     1     -12.094  16.068  72.876  0.00  0.00    +0.021 A 
ATOM      6  C   UNL     1     -11.732  16.023  71.536  0.00  0.00    +0.010 A 
ENDROOT
BRANCH   1   7
ATOM      7  C   UNL     1     -11.934  14.575  69.569  0.00  0.00    +0.343 C 
ATOM      8  O   UNL     1     -12.138  13.338  69.769  0.00  0.00    -0.245 OA
BRANCH   7  10
ATOM      9  C   UNL     1     -11.992  14.159  67.134  0.00  0.00    +0.256 C 
ATOM     10  O   UNL     1     -11.684  14.970  68.267  0.00  0.00    -0.441 OA
ENDBRANCH   7  10
ENDBRANCH   1   7
TORSDOF 2
ENDMDL
MODEL 6
REMARK VINA RESULT:      -4.0      4.320      5.404
REMARK  Name = 
REMARK  2 active torsions:
REMARK  status: ('A' for Active; 'I' for Inactive)
REMARK    1  A    between atoms: O_2  and  C_3
REMARK    2  A    between atoms: C_3  and  C_5
REMARK                            x       y       z     vdW  Elec       q    Type
REMARK                         _______ _______ _______ _____ _____    ______ ____
ROOT
ATOM      1  C   UNL     1     -11.543  13.881  68.481  0.00  0.00    +0.095 A 
ATOM      2  C   UNL     1     -11.614  15.253  68.292  0.00  0.00    +0.105 A 
ATOM      3  N   UNL     1     -11.983  16.100  69.277  0.00  0.00    -0.242 NA
ATOM      4  C   UNL     1     -12.383  15.651  70.489  0.00  0.00    +0.099 A 
ATOM      5  C   UNL     1     -12.576  14.287  70.645  0.00  0.00    +0.021 A 
ATOM      6  C   UNL     1     -11.935  13.448  69.742  0.00  0.00    +0.010 A 
ENDROOT
BRANCH   1   7
ATOM      7  C   UNL     1     -11.811  12.998  67.337  0.00  0.00    +0.343 C 
ATOM      8  O   UNL     1     -12.028  11.788  67.651  0.00  0.00    -0.245 OA
BRANCH   7  10
ATOM      9  C   UNL     1     -12.387  12.673  64.956  0.00  0.00    +0.256 C 
ATOM     10  O   UNL     1     -12.364  13.451  66.152  0.00  0.00    -0.441 OA
ENDBRANCH   7  10
ENDBRANCH   1   7
TORSDOF 2
ENDMDL
MODEL 7
REMARK VINA RESULT:      -4.0      2.024      2.304
REMARK  Name = 
REMARK  2 active torsions:
REMARK  status: ('A' for Active; 'I' for Inactive)
REMARK    1  A    between atoms: O_2  and  C_3
REMARK    2  A    between atoms: C_3  and  C_5
REMARK                            x       y       z     vdW  Elec       q    Type
REMARK                         _______ _______ _______ _____ _____    ______ ____
ROOT
ATOM      1  C   UNL     1     -12.155  13.783  65.903  0.00  0.00    +0.095 A 
ATOM      2  C   UNL     1     -12.457  14.434  64.717  0.00  0.00    +0.105 A 
ATOM      3  N   UNL     1     -12.482  13.794  63.527  0.00  0.00    -0.242 NA
ATOM      4  C   UNL     1     -12.131  12.492  63.412  0.00  0.00    +0.099 A 
ATOM      5  C   UNL     1     -11.576  11.868  64.519  0.00  0.00    +0.021 A 
ATOM      6  C   UNL     1     -11.824  12.440  65.760  0.00  0.00    +0.010 A 
ENDROOT
BRANCH   1   7
ATOM      7  C   UNL     1     -11.495  14.543  66.974  0.00  0.00    +0.343 C 
ATOM      8  O   UNL     1     -10.805  15.527  66.567  0.00  0.00    -0.245 OA
BRANCH   7  10
ATOM      9  C   UNL     1     -11.770  15.728  69.125  0.00  0.00    +0.256 C 
ATOM     10  O   UNL     1     -11.995  14.614  68.262  0.00  0.00    -0.441 OA
ENDBRANCH   7  10
ENDBRANCH   1   7
TORSDOF 2
ENDMDL
MODEL 8
REMARK VINA RESULT:      -3.9      2.574      4.107
REMARK  Name = 
REMARK  2 active torsions:
REMARK  status: ('A' for Active; 'I' for Inactive)
REMARK    1  A    between atoms: O_2  and  C_3
REMARK    2  A    between atoms: C_3  and  C_5
REMARK                            x       y       z     vdW  Elec       q    Type
REMARK                         _______ _______ _______ _____ _____    ______ ____
ROOT
ATOM      1  C   UNL     1     -11.972  14.218  65.339  0.00  0.00    +0.095 A 
ATOM      2  C   UNL     1     -12.085  14.160  66.719  0.00  0.00    +0.105 A 
ATOM      3  N   UNL     1     -11.435  15.018  67.535  0.00  0.00    -0.242 NA
ATOM      4  C   UNL     1     -10.567  15.938  67.053  0.00  0.00    +0.099 A 
ATOM      5  C   UNL     1     -10.224  15.867  65.711  0.00  0.00    +0.021 A 
ATOM      6  C   UNL     1     -11.095  15.188  64.868  0.00  0.00    +0.010 A 
ENDROOT
BRANCH   1   7
ATOM      7  C   UNL     1     -12.094  12.970  64.570  0.00  0.00    +0.343 C 
ATOM      8  O   UNL     1     -13.249  12.445  64.607  0.00  0.00    -0.245 OA
BRANCH   7  10
ATOM      9  C   UNL     1     -10.465  11.540  63.384  0.00  0.00    +0.256 C 
ATOM     10  O   UNL     1     -11.308  12.689  63.467  0.00  0.00    -0.441 OA
ENDBRANCH   7  10
ENDBRANCH   1   7
TORSDOF 2
ENDMDL
MODEL 9
REMARK VINA RESULT:      -3.9      2.750      3.396
REMARK  Name = 
REMARK  2 active torsions:
REMARK  status: ('A' for Active; 'I' for Inactive)
REMARK    1  A    between atoms: O_2  and  C_3
REMARK    2  A    between atoms: C_3  and  C_5
REMARK                            x       y       z     vdW  Elec       q    Type
REMARK                         _______ _______ _______ _____ _____    ______ ____
ROOT
ATOM      1  C   UNL     1     -10.948  15.433  67.434  0.00  0.00    +0.095 A 
ATOM      2  C   UNL     1     -11.876  14.430  67.201  0.00  0.00    +0.105 A 
ATOM      3  N   UNL     1     -12.111  13.934  65.967  0.00  0.00    -0.242 NA
ATOM      4  C   UNL     1     -11.508  14.446  64.868  0.00  0.00    +0.099 A 
ATOM      5  C   UNL     1     -10.772  15.613  65.015  0.00  0.00    +0.021 A 
ATOM      6  C   UNL     1     -10.325  15.924  66.293  0.00  0.00    +0.010 A 
ENDROOT
BRANCH   1   7
ATOM      7  C   UNL     1     -11.187  16.368  68.544  0.00  0.00    +0.343 C 
ATOM      8  O   UNL     1     -10.972  17.585  68.256  0.00  0.00    -0.245 OA
BRANCH   7  10
ATOM      9  C   UNL     1     -11.704  16.028  70.936  0.00  0.00    +0.256 C 
ATOM     10  O   UNL     1     -12.085  16.109  69.563  0.00  0.00    -0.441 OA
ENDBRANCH   7  10
ENDBRANCH   1   7
TORSDOF 2
ENDMDL
