MODEL 1
REMARK VINA RESULT:      -6.2      0.000      0.000
REMARK  Name = 
REMARK  6 active torsions:
REMARK  status: ('A' for Active; 'I' for Inactive)
REMARK    1  A    between atoms: N_2  and  S_3
REMARK    2  A    between atoms: S_3  and  C_6
REMARK    3  A    between atoms: C_6  and  C_7
REMARK    4  A    between atoms: C_13  and  C_14
REMARK    5  A    between atoms: C_14  and  C_15
REMARK    6  A    between atoms: C_15  and  N_16
REMARK                            x       y       z     vdW  Elec       q    Type
REMARK                         _______ _______ _______ _____ _____    ______ ____
ROOT
ATOM      1  C   UNL     1     -12.053  15.123  69.954  0.00  0.00    +0.003 A 
ATOM      2  C   UNL     1     -11.339  16.207  69.457  0.00  0.00    -0.001 A 
ATOM      3  C   UNL     1     -10.928  16.250  68.141  0.00  0.00    +0.015 A 
ATOM      4  C   UNL     1     -11.105  15.144  67.325  0.00  0.00    +0.081 A 
ATOM      5  N   UNL     1     -10.530  15.473  66.161  0.00  0.00    -0.244 NA
ATOM      6  C   UNL     1     -10.255  16.800  66.128  0.00  0.00    +0.095 A 
ATOM      7  C   UNL     1     -11.630  13.989  67.871  0.00  0.00    +0.019 A 
ATOM      8  C   UNL     1     -10.299  17.265  67.429  0.00  0.00    -0.000 A 
ATOM      9  C   UNL     1     -12.131  13.981  69.166  0.00  0.00    -0.001 A 
ENDROOT
BRANCH   1  10
ATOM     10  C   UNL     1     -11.967  14.915  71.429  0.00  0.00    +0.197 C 
BRANCH  10  11
ATOM     11  S   UNL     1     -13.549  15.011  72.210  0.00  0.00    +0.062 S 
ATOM     12  O   UNL     1     -14.600  15.525  71.274  0.00  0.00    -0.156 OA
ATOM     13  O   UNL     1     -13.932  13.662  72.716  0.00  0.00    -0.156 OA
BRANCH  11  15
ATOM     14  C   UNL     1     -12.391  15.596  74.449  0.00  0.00    +0.136 C 
ATOM     15  N   UNL     1     -13.426  16.082  73.551  0.00  0.00    -0.080 NA
ENDBRANCH  11  15
ENDBRANCH  10  11
ENDBRANCH   1  10
BRANCH   8  16
ATOM     16  C   UNL     1     -10.246  18.682  67.904  0.00  0.00    +0.045 C 
BRANCH  16  17
ATOM     17  C   UNL     1      -9.732  19.544  66.785  0.00  0.00    +0.077 C 
BRANCH  17  18
ATOM     18  N   UNL     1      -8.364  19.958  66.963  0.00  0.00    -0.270 NA
ATOM     19  C   UNL     1      -7.831  19.639  68.262  0.00  0.00    +0.090 C 
ATOM     20  C   UNL     1      -7.500  19.550  65.878  0.00  0.00    +0.090 C 
ENDBRANCH  17  18
ENDBRANCH  16  17
ENDBRANCH   8  16
TORSDOF 6
ENDMDL
MODEL 2
REMARK VINA RESULT:      -6.1      1.943      3.178
REMARK  Name = 
REMARK  6 active torsions:
REMARK  status: ('A' for Active; 'I' for Inactive)
REMARK    1  A    between atoms: N_2  and  S_3
REMARK    2  A    between atoms: S_3  and  C_6
REMARK    3  A    between atoms: C_6  and  C_7
REMARK    4  A    between atoms: C_13  and  C_14
REMARK    5  A    between atoms: C_14  and  C_15
REMARK    6  A    between atoms: C_15  and  N_16
REMARK                            x       y       z     vdW  Elec       q    Type
REMARK                         _______ _______ _______ _____ _____    ______ ____
ROOT
ATOM      1  C   UNL     1     -12.432  13.771  70.099  0.00  0.00    +0.003 A 
ATOM      2  C   UNL     1     -12.051  14.119  68.808  0.00  0.00    -0.001 A 
ATOM      3  C   UNL     1     -11.751  13.156  67.867  0.00  0.00    +0.015 A 
ATOM      4  C   UNL     1     -11.693  11.822  68.238  0.00  0.00    +0.081 A 
ATOM      5  N   UNL     1     -11.297  11.171  67.136  0.00  0.00    -0.244 NA
ATOM      6  C   UNL     1     -11.373  11.983  66.054  0.00  0.00    +0.095 A 
ATOM      7  C   UNL     1     -11.870  11.489  69.567  0.00  0.00    +0.019 A 
ATOM      8  C   UNL     1     -11.449  13.283  66.517  0.00  0.00    -0.000 A 
ATOM      9  C   UNL     1     -12.267  12.448  70.491  0.00  0.00    -0.001 A 
ENDROOT
BRANCH   1  10
ATOM     10  C   UNL     1     -12.201  14.812  71.143  0.00  0.00    +0.197 C 
BRANCH  10  11
ATOM     11  S   UNL     1     -13.614  15.046  72.177  0.00  0.00    +0.062 S 
ATOM     12  O   UNL     1     -14.777  15.597  71.410  0.00  0.00    -0.156 OA
ATOM     13  O   UNL     1     -13.987  13.746  72.805  0.00  0.00    -0.156 OA
BRANCH  11  15
ATOM     14  C   UNL     1     -12.412  15.456  74.432  0.00  0.00    +0.136 C 
ATOM     15  N   UNL     1     -13.194  16.155  73.424  0.00  0.00    -0.080 NA
ENDBRANCH  11  15
ENDBRANCH  10  11
ENDBRANCH   1  10
BRANCH   8  16
ATOM     16  C   UNL     1     -11.727  14.526  65.733  0.00  0.00    +0.045 C 
BRANCH  16  17
ATOM     17  C   UNL     1     -10.417  15.131  65.311  0.00  0.00    +0.077 C 
BRANCH  17  18
ATOM     18  N   UNL     1      -9.816  15.960  66.324  0.00  0.00    -0.270 NA
ATOM     19  C   UNL     1      -8.377  15.917  66.324  0.00  0.00    +0.090 C 
ATOM     20  C   UNL     1     -10.345  17.306  66.345  0.00  0.00    +0.090 C 
ENDBRANCH  17  18
ENDBRANCH  16  17
ENDBRANCH   8  16
TORSDOF 6
ENDMDL
MODEL 3
REMARK VINA RESULT:      -5.8      3.877      4.927
REMARK  Name = 
REMARK  6 active torsions:
REMARK  status: ('A' for Active; 'I' for Inactive)
REMARK    1  A    between atoms: N_2  and  S_3
REMARK    2  A    between atoms: S_3  and  C_6
REMARK    3  A    between atoms: C_6  and  C_7
REMARK    4  A    between atoms: C_13  and  C_14
REMARK    5  A    between atoms: C_14  and  C_15
REMARK    6  A    between atoms: C_15  and  N_16
REMARK                            x       y       z     vdW  Elec       q    Type
REMARK                         _______ _______ _______ _____ _____    ______ ____
ROOT
ATOM      1  C   UNL     1     -12.849  12.753  71.141  0.00  0.00    +0.003 A 
ATOM      2  C   UNL     1     -12.081  13.050  70.021  0.00  0.00    -0.001 A 
ATOM      3  C   UNL     1     -11.624  12.055  69.183  0.00  0.00    +0.015 A 
ATOM      4  C   UNL     1     -11.810  10.724  69.524  0.00  0.00    +0.081 A 
ATOM      5  N   UNL     1     -11.184  10.028  68.566  0.00  0.00    -0.244 NA
ATOM      6  C   UNL     1     -10.863  10.836  67.527  0.00  0.00    +0.095 A 
ATOM      7  C   UNL     1     -12.394  10.422  70.738  0.00  0.00    +0.019 A 
ATOM      8  C   UNL     1     -10.935  12.141  67.979  0.00  0.00    -0.000 A 
ATOM      9  C   UNL     1     -12.939  11.422  71.532  0.00  0.00    -0.001 A 
ENDROOT
BRANCH   1  10
ATOM     10  C   UNL     1     -12.822  13.771  72.232  0.00  0.00    +0.197 C 
BRANCH  10  11
ATOM     11  S   UNL     1     -13.765  15.209  71.826  0.00  0.00    +0.062 S 
ATOM     12  O   UNL     1     -13.151  15.975  70.695  0.00  0.00    -0.156 OA
ATOM     13  O   UNL     1     -15.155  14.803  71.473  0.00  0.00    -0.156 OA
BRANCH  11  15
ATOM     14  C   UNL     1     -12.596  16.066  73.972  0.00  0.00    +0.136 C 
ATOM     15  N   UNL     1     -13.829  16.223  73.216  0.00  0.00    -0.080 NA
ENDBRANCH  11  15
ENDBRANCH  10  11
ENDBRANCH   1  10
BRANCH   8  16
ATOM     16  C   UNL     1     -10.849  13.401  67.177  0.00  0.00    +0.045 C 
BRANCH  16  17
ATOM     17  C   UNL     1     -10.441  13.049  65.773  0.00  0.00    +0.077 C 
BRANCH  17  18
ATOM     18  N   UNL     1     -11.452  13.351  64.792  0.00  0.00    -0.270 NA
ATOM     19  C   UNL     1     -11.743  12.252  63.909  0.00  0.00    +0.090 C 
ATOM     20  C   UNL     1     -12.637  13.952  65.363  0.00  0.00    +0.090 C 
ENDBRANCH  17  18
ENDBRANCH  16  17
ENDBRANCH   8  16
TORSDOF 6
ENDMDL
MODEL 4
REMARK VINA RESULT:      -5.8      4.678      8.389
REMARK  Name = 
REMARK  6 active torsions:
REMARK  status: ('A' for Active; 'I' for Inactive)
REMARK    1  A    between atoms: N_2  and  S_3
REMARK    2  A    between atoms: S_3  and  C_6
REMARK    3  A    between atoms: C_6  and  C_7
REMARK    4  A    between atoms: C_13  and  C_14
REMARK    5  A    between atoms: C_14  and  C_15
REMARK    6  A    between atoms: C_15  and  N_16
REMARK                            x       y       z     vdW  Elec       q    Type
REMARK                         _______ _______ _______ _____ _____    ______ ____
ROOT
ATOM      1  C   UNL     1     -11.727  13.734  66.995  0.00  0.00    +0.003 A 
ATOM      2  C   UNL     1     -11.787  12.734  67.959  0.00  0.00    -0.001 A 
ATOM      3  C   UNL     1     -12.005  13.034  69.287  0.00  0.00    +0.015 A 
ATOM      4  C   UNL     1     -12.032  14.356  69.703  0.00  0.00    +0.081 A 
ATOM      5  N   UNL     1     -12.170  14.300  71.033  0.00  0.00    -0.244 NA
ATOM      6  C   UNL     1     -12.500  13.045  71.423  0.00  0.00    +0.095 A 
ATOM      7  C   UNL     1     -11.769  15.350  68.781  0.00  0.00    +0.019 A 
ATOM      8  C   UNL     1     -12.194  12.193  70.378  0.00  0.00    -0.000 A 
ATOM      9  C   UNL     1     -11.647  15.052  67.430  0.00  0.00    -0.001 A 
ENDROOT
BRANCH   1  10
ATOM     10  C   UNL     1     -10.971  13.391  65.755  0.00  0.00    +0.197 C 
BRANCH  10  11
ATOM     11  S   UNL     1     -12.038  13.154  64.367  0.00  0.00    +0.062 S 
ATOM     12  O   UNL     1     -13.263  12.375  64.735  0.00  0.00    -0.156 OA
ATOM     13  O   UNL     1     -12.426  14.482  63.810  0.00  0.00    -0.156 OA
BRANCH  11  15
ATOM     14  C   UNL     1     -10.062  11.586  63.786  0.00  0.00    +0.136 C 
ATOM     15  N   UNL     1     -11.170  12.289  63.159  0.00  0.00    -0.080 NA
ENDBRANCH  11  15
ENDBRANCH  10  11
ENDBRANCH   1  10
BRANCH   8  16
ATOM     16  C   UNL     1     -12.534  10.743  70.241  0.00  0.00    +0.045 C 
BRANCH  16  17
ATOM     17  C   UNL     1     -12.859  10.195  71.603  0.00  0.00    +0.077 C 
BRANCH  17  18
ATOM     18  N   UNL     1     -13.001   8.762  71.624  0.00  0.00    -0.270 NA
ATOM     19  C   UNL     1     -11.982   8.094  72.391  0.00  0.00    +0.090 C 
ATOM     20  C   UNL     1     -14.340   8.328  71.957  0.00  0.00    +0.090 C 
ENDBRANCH  17  18
ENDBRANCH  16  17
ENDBRANCH   8  16
TORSDOF 6
ENDMDL
MODEL 5
REMARK VINA RESULT:      -5.7      4.268      8.019
REMARK  Name = 
REMARK  6 active torsions:
REMARK  status: ('A' for Active; 'I' for Inactive)
REMARK    1  A    between atoms: N_2  and  S_3
REMARK    2  A    between atoms: S_3  and  C_6
REMARK    3  A    between atoms: C_6  and  C_7
REMARK    4  A    between atoms: C_13  and  C_14
REMARK    5  A    between atoms: C_14  and  C_15
REMARK    6  A    between atoms: C_15  and  N_16
REMARK                            x       y       z     vdW  Elec       q    Type
REMARK                         _______ _______ _______ _____ _____    ______ ____
ROOT
ATOM      1  C   UNL     1     -11.469  14.306  68.308  0.00  0.00    +0.003 A 
ATOM      2  C   UNL     1     -11.658  13.130  69.025  0.00  0.00    -0.001 A 
ATOM      3  C   UNL     1     -12.288  13.134  70.251  0.00  0.00    +0.015 A 
ATOM      4  C   UNL     1     -12.623  14.336  70.854  0.00  0.00    +0.081 A 
ATOM      5  N   UNL     1     -13.127  14.000  72.048  0.00  0.00    -0.244 NA
ATOM      6  C   UNL     1     -13.370  12.668  72.101  0.00  0.00    +0.095 A 
ATOM      7  C   UNL     1     -12.253  15.517  70.238  0.00  0.00    +0.019 A 
ATOM      8  C   UNL     1     -12.659  12.076  71.074  0.00  0.00    -0.000 A 
ATOM      9  C   UNL     1     -11.707  15.510  68.961  0.00  0.00    -0.001 A 
ENDROOT
BRANCH   1  10
ATOM     10  C   UNL     1     -10.349  14.289  67.323  0.00  0.00    +0.197 C 
BRANCH  10  11
ATOM     11  S   UNL     1     -10.910  14.553  65.669  0.00  0.00    +0.062 S 
ATOM     12  O   UNL     1     -10.225  13.642  64.698  0.00  0.00    -0.156 OA
ATOM     13  O   UNL     1     -12.386  14.346  65.610  0.00  0.00    -0.156 OA
BRANCH  11  15
ATOM     14  C   UNL     1      -9.475  16.672  66.058  0.00  0.00    +0.136 C 
ATOM     15  N   UNL     1     -10.571  16.184  65.237  0.00  0.00    -0.080 NA
ENDBRANCH  11  15
ENDBRANCH  10  11
ENDBRANCH   1  10
BRANCH   8  16
ATOM     16  C   UNL     1     -12.732  10.660  70.598  0.00  0.00    +0.045 C 
BRANCH  16  17
ATOM     17  C   UNL     1     -11.761   9.835  71.396  0.00  0.00    +0.077 C 
BRANCH  17  18
ATOM     18  N   UNL     1     -12.379   8.735  72.090  0.00  0.00    -0.270 NA
ATOM     19  C   UNL     1     -13.802   8.884  72.253  0.00  0.00    +0.090 C 
ATOM     20  C   UNL     1     -12.000   7.443  71.561  0.00  0.00    +0.090 C 
ENDBRANCH  17  18
ENDBRANCH  16  17
ENDBRANCH   8  16
TORSDOF 6
ENDMDL
MODEL 6
REMARK VINA RESULT:      -5.7      4.098      6.003
REMARK  Name = 
REMARK  6 active torsions:
REMARK  status: ('A' for Active; 'I' for Inactive)
REMARK    1  A    between atoms: N_2  and  S_3
REMARK    2  A    between atoms: S_3  and  C_6
REMARK    3  A    between atoms: C_6  and  C_7
REMARK    4  A    between atoms: C_13  and  C_14
REMARK    5  A    between atoms: C_14  and  C_15
REMARK    6  A    between atoms: C_15  and  N_16
REMARK                            x       y       z     vdW  Elec       q    Type
REMARK                         _______ _______ _______ _____ _____    ______ ____
ROOT
ATOM      1  C   UNL     1     -12.562  11.417  71.072  0.00  0.00    +0.003 A 
ATOM      2  C   UNL     1     -12.039  12.237  70.080  0.00  0.00    -0.001 A 
ATOM      3  C   UNL     1     -12.113  13.611  70.175  0.00  0.00    +0.015 A 
ATOM      4  C   UNL     1     -12.837  14.195  71.203  0.00  0.00    +0.081 A 
ATOM      5  N   UNL     1     -12.785  15.511  70.961  0.00  0.00    -0.244 NA
ATOM      6  C   UNL     1     -11.858  15.782  70.011  0.00  0.00    +0.095 A 
ATOM      7  C   UNL     1     -13.530  13.381  72.078  0.00  0.00    +0.019 A 
ATOM      8  C   UNL     1     -11.578  14.598  69.356  0.00  0.00    -0.000 A 
ATOM      9  C   UNL     1     -13.374  12.002  72.037  0.00  0.00    -0.001 A 
ENDROOT
BRANCH   1  10
ATOM     10  C   UNL     1     -12.922  10.033  70.644  0.00  0.00    +0.197 C 
BRANCH  10  11
ATOM     11  S   UNL     1     -12.132   8.801  71.634  0.00  0.00    +0.062 S 
ATOM     12  O   UNL     1     -10.689   9.124  71.875  0.00  0.00    -0.156 OA
ATOM     13  O   UNL     1     -12.851   8.678  72.935  0.00  0.00    -0.156 OA
BRANCH  11  15
ATOM     14  C   UNL     1     -11.432   6.312  71.516  0.00  0.00    +0.136 C 
ATOM     15  N   UNL     1     -12.236   7.295  70.809  0.00  0.00    -0.080 NA
ENDBRANCH  11  15
ENDBRANCH  10  11
ENDBRANCH   1  10
BRANCH   8  16
ATOM     16  C   UNL     1     -10.499  14.330  68.355  0.00  0.00    +0.045 C 
BRANCH  16  17
ATOM     17  C   UNL     1     -11.044  14.594  66.979  0.00  0.00    +0.077 C 
BRANCH  17  18
ATOM     18  N   UNL     1     -11.983  13.596  66.534  0.00  0.00    -0.270 NA
ATOM     19  C   UNL     1     -12.725  13.984  65.363  0.00  0.00    +0.090 C 
ATOM     20  C   UNL     1     -11.402  12.276  66.428  0.00  0.00    +0.090 C 
ENDBRANCH  17  18
ENDBRANCH  16  17
ENDBRANCH   8  16
TORSDOF 6
ENDMDL
MODEL 7
REMARK VINA RESULT:      -5.6      2.274      4.527
REMARK  Name = 
REMARK  6 active torsions:
REMARK  status: ('A' for Active; 'I' for Inactive)
REMARK    1  A    between atoms: N_2  and  S_3
REMARK    2  A    between atoms: S_3  and  C_6
REMARK    3  A    between atoms: C_6  and  C_7
REMARK    4  A    between atoms: C_13  and  C_14
REMARK    5  A    between atoms: C_14  and  C_15
REMARK    6  A    between atoms: C_15  and  N_16
REMARK                            x       y       z     vdW  Elec       q    Type
REMARK                         _______ _______ _______ _____ _____    ______ ____
ROOT
ATOM      1  C   UNL     1     -12.010  15.204  69.997  0.00  0.00    +0.003 A 
ATOM      2  C   UNL     1     -12.208  14.616  68.754  0.00  0.00    -0.001 A 
ATOM      3  C   UNL     1     -11.361  14.877  67.697  0.00  0.00    +0.015 A 
ATOM      4  C   UNL     1     -10.374  15.841  67.823  0.00  0.00    +0.081 A 
ATOM      5  N   UNL     1      -9.799  15.912  66.616  0.00  0.00    -0.244 NA
ATOM      6  C   UNL     1     -10.188  14.868  65.844  0.00  0.00    +0.095 A 
ATOM      7  C   UNL     1     -10.303  16.575  68.991  0.00  0.00    +0.019 A 
ATOM      8  C   UNL     1     -11.323  14.328  66.420  0.00  0.00    -0.000 A 
ATOM      9  C   UNL     1     -11.092  16.244  70.086  0.00  0.00    -0.001 A 
ENDROOT
BRANCH   1  10
ATOM     10  C   UNL     1     -13.221  15.304  70.864  0.00  0.00    +0.197 C 
BRANCH  10  11
ATOM     11  S   UNL     1     -13.321  13.978  72.028  0.00  0.00    +0.062 S 
ATOM     12  O   UNL     1     -14.741  13.639  72.362  0.00  0.00    -0.156 OA
ATOM     13  O   UNL     1     -12.627  12.781  71.472  0.00  0.00    -0.156 OA
BRANCH  11  15
ATOM     14  C   UNL     1     -12.737  15.879  73.685  0.00  0.00    +0.136 C 
ATOM     15  N   UNL     1     -12.509  14.460  73.467  0.00  0.00    -0.080 NA
ENDBRANCH  11  15
ENDBRANCH  10  11
ENDBRANCH   1  10
BRANCH   8  16
ATOM     16  C   UNL     1     -12.029  13.061  66.056  0.00  0.00    +0.045 C 
BRANCH  16  17
ATOM     17  C   UNL     1     -11.010  12.069  65.565  0.00  0.00    +0.077 C 
BRANCH  17  18
ATOM     18  N   UNL     1     -11.243  11.633  64.212  0.00  0.00    -0.270 NA
ATOM     19  C   UNL     1     -12.402  12.233  63.605  0.00  0.00    +0.090 C 
ATOM     20  C   UNL     1     -10.063  11.707  63.379  0.00  0.00    +0.090 C 
ENDBRANCH  17  18
ENDBRANCH  16  17
ENDBRANCH   8  16
TORSDOF 6
ENDMDL
MODEL 8
REMARK VINA RESULT:      -5.6      3.939      7.068
REMARK  Name = 
REMARK  6 active torsions:
REMARK  status: ('A' for Active; 'I' for Inactive)
REMARK    1  A    between atoms: N_2  and  S_3
REMARK    2  A    between atoms: S_3  and  C_6
REMARK    3  A    between atoms: C_6  and  C_7
REMARK    4  A    between atoms: C_13  and  C_14
REMARK    5  A    between atoms: C_14  and  C_15
REMARK    6  A    between atoms: C_15  and  N_16
REMARK                            x       y       z     vdW  Elec       q    Type
REMARK                         _______ _______ _______ _____ _____    ______ ____
ROOT
ATOM      1  C   UNL     1     -11.990  14.347  70.282  0.00  0.00    +0.003 A 
ATOM      2  C   UNL     1     -12.294  13.004  70.468  0.00  0.00    -0.001 A 
ATOM      3  C   UNL     1     -11.651  12.019  69.748  0.00  0.00    +0.015 A 
ATOM      4  C   UNL     1     -10.783  12.365  68.724  0.00  0.00    +0.081 A 
ATOM      5  N   UNL     1     -10.405  11.202  68.180  0.00  0.00    -0.244 NA
ATOM      6  C   UNL     1     -10.772  10.166  68.973  0.00  0.00    +0.095 A 
ATOM      7  C   UNL     1     -10.633  13.699  68.399  0.00  0.00    +0.019 A 
ATOM      8  C   UNL     1     -11.734  10.635  69.847  0.00  0.00    -0.000 A 
ATOM      9  C   UNL     1     -11.205  14.690  69.187  0.00  0.00    -0.001 A 
ENDROOT
BRANCH   1  10
ATOM     10  C   UNL     1     -13.063  15.311  70.664  0.00  0.00    +0.197 C 
BRANCH  10  11
ATOM     11  S   UNL     1     -13.617  15.069  72.324  0.00  0.00    +0.062 S 
ATOM     12  O   UNL     1     -14.455  16.215  72.802  0.00  0.00    -0.156 OA
ATOM     13  O   UNL     1     -14.396  13.800  72.404  0.00  0.00    -0.156 OA
BRANCH  11  15
ATOM     14  C   UNL     1     -12.409  15.791  74.497  0.00  0.00    +0.136 C 
ATOM     15  N   UNL     1     -12.236  14.926  73.340  0.00  0.00    -0.080 NA
ENDBRANCH  11  15
ENDBRANCH  10  11
ENDBRANCH   1  10
BRANCH   8  16
ATOM     16  C   UNL     1     -12.323   9.936  71.031  0.00  0.00    +0.045 C 
BRANCH  16  17
ATOM     17  C   UNL     1     -11.260   9.078  71.660  0.00  0.00    +0.077 C 
BRANCH  17  18
ATOM     18  N   UNL     1     -11.790   7.961  72.400  0.00  0.00    -0.270 NA
ATOM     19  C   UNL     1     -12.566   7.054  71.595  0.00  0.00    +0.090 C 
ATOM     20  C   UNL     1     -10.796   7.294  73.211  0.00  0.00    +0.090 C 
ENDBRANCH  17  18
ENDBRANCH  16  17
ENDBRANCH   8  16
TORSDOF 6
ENDMDL
MODEL 9
REMARK VINA RESULT:      -5.6      3.476      6.392
REMARK  Name = 
REMARK  6 active torsions:
REMARK  status: ('A' for Active; 'I' for Inactive)
REMARK    1  A    between atoms: N_2  and  S_3
REMARK    2  A    between atoms: S_3  and  C_6
REMARK    3  A    between atoms: C_6  and  C_7
REMARK    4  A    between atoms: C_13  and  C_14
REMARK    5  A    between atoms: C_14  and  C_15
REMARK    6  A    between atoms: C_15  and  N_16
REMARK                            x       y       z     vdW  Elec       q    Type
REMARK                         _______ _______ _______ _____ _____    ______ ____
ROOT
ATOM      1  C   UNL     1     -11.788  14.118  65.907  0.00  0.00    +0.003 A 
ATOM      2  C   UNL     1     -11.886  14.381  67.268  0.00  0.00    -0.001 A 
ATOM      3  C   UNL     1     -11.230  15.451  67.839  0.00  0.00    +0.015 A 
ATOM      4  C   UNL     1     -10.347  16.205  67.081  0.00  0.00    +0.081 A 
ATOM      5  N   UNL     1      -9.822  17.090  67.937  0.00  0.00    -0.244 NA
ATOM      6  C   UNL     1     -10.522  17.101  69.097  0.00  0.00    +0.095 A 
ATOM      7  C   UNL     1     -10.090  15.822  65.779  0.00  0.00    +0.019 A 
ATOM      8  C   UNL     1     -11.271  15.940  69.139  0.00  0.00    -0.000 A 
ATOM      9  C   UNL     1     -10.824  14.806  65.180  0.00  0.00    -0.001 A 
ENDROOT
BRANCH   1  10
ATOM     10  C   UNL     1     -12.051  12.706  65.501  0.00  0.00    +0.197 C 
BRANCH  10  11
ATOM     11  S   UNL     1     -10.912  11.576  66.240  0.00  0.00    +0.062 S 
ATOM     12  O   UNL     1      -9.694  12.276  66.759  0.00  0.00    -0.156 OA
ATOM     13  O   UNL     1     -11.591  10.844  67.348  0.00  0.00    -0.156 OA
BRANCH  11  15
ATOM     14  C   UNL     1     -10.392  11.093  63.751  0.00  0.00    +0.136 C 
ATOM     15  N   UNL     1     -10.432  10.433  65.046  0.00  0.00    -0.080 NA
ENDBRANCH  11  15
ENDBRANCH  10  11
ENDBRANCH   1  10
BRANCH   8  16
ATOM     16  C   UNL     1     -12.339  15.566  70.117  0.00  0.00    +0.045 C 
BRANCH  16  17
ATOM     17  C   UNL     1     -11.882  15.951  71.497  0.00  0.00    +0.077 C 
BRANCH  17  18
ATOM     18  N   UNL     1     -12.724  15.433  72.544  0.00  0.00    -0.270 NA
ATOM     19  C   UNL     1     -12.516  16.069  73.819  0.00  0.00    +0.090 C 
ATOM     20  C   UNL     1     -14.118  15.356  72.167  0.00  0.00    +0.090 C 
ENDBRANCH  17  18
ENDBRANCH  16  17
ENDBRANCH   8  16
TORSDOF 6
ENDMDL
