MODEL 1
REMARK VINA RESULT:      -7.4      0.000      0.000
REMARK  Name = 
REMARK  3 active torsions:
REMARK  status: ('A' for Active; 'I' for Inactive)
REMARK    1  A    between atoms: N_2  and  C_3
REMARK    2  A    between atoms: C_3  and  C_4
REMARK    3  A    between atoms: C_7  and  C_8
REMARK                            x       y       z     vdW  Elec       q    Type
REMARK                         _______ _______ _______ _____ _____    ______ ____
ROOT
ATOM      1  C   UNL     1     -10.489  12.721  67.701  0.00  0.00    +0.077 A 
ATOM      2  C   UNL     1     -10.802  13.072  66.395  0.00  0.00    -0.001 A 
ATOM      3  C   UNL     1     -11.952  12.388  65.726  0.00  0.00    +0.051 C 
ATOM      4  C   UNL     1     -12.002  12.681  64.246  0.00  0.00    +0.120 C 
ATOM      5  N   UNL     1     -12.481  14.035  63.975  0.00  0.00    -0.201 NA
ATOM      6  C   UNL     1     -11.722  15.209  64.290  0.00  0.00    +0.265 C 
ATOM      7  C   UNL     1     -10.647  15.338  65.283  0.00  0.00    +0.058 A 
ATOM      8  C   UNL     1     -10.188  16.613  65.452  0.00  0.00    +0.034 A 
ATOM      9  C   UNL     1      -9.138  16.784  66.345  0.00  0.00    +0.142 A 
ATOM     10  F   UNL     1      -8.416  17.934  66.247  0.00  0.00    -0.204 F 
ATOM     11  C   UNL     1      -8.763  15.781  67.221  0.00  0.00    +0.049 A 
ATOM     12  C   UNL     1      -9.300  14.502  67.124  0.00  0.00    +0.083 A 
ATOM     13  O   UNL     1     -12.220  16.321  63.963  0.00  0.00    -0.268 OA
ATOM     14  C   UNL     1     -10.240  14.316  66.133  0.00  0.00    +0.020 A 
ATOM     15  N   UNL     1      -9.483  13.535  68.043  0.00  0.00    -0.246 NA
ENDROOT
BRANCH   1  19
ATOM     16  C   UNL     1     -12.279  10.760  70.987  0.00  0.00    -0.005 A 
ATOM     17  C   UNL     1     -12.378  12.132  70.795  0.00  0.00    -0.003 A 
ATOM     18  C   UNL     1     -11.882  12.753  69.667  0.00  0.00    +0.001 A 
ATOM     19  C   UNL     1     -11.318  11.977  68.662  0.00  0.00    +0.017 A 
ATOM     20  C   UNL     1     -11.098  10.628  68.916  0.00  0.00    +0.001 A 
ATOM     21  C   UNL     1     -11.595  10.004  70.045  0.00  0.00    -0.003 A 
BRANCH  16  22
ATOM     22  C   UNL     1     -13.382  10.130  71.777  0.00  0.00    +0.115 C 
BRANCH  22  24
ATOM     23  C   UNL     1     -14.545   8.081  71.773  0.00  0.00    +0.108 C 
ATOM     24  N   UNL     1     -13.232   8.684  71.676  0.00  0.00    -0.212 NA
ENDBRANCH  22  24
ENDBRANCH  16  22
ENDBRANCH   1  19
TORSDOF 3
ENDMDL
MODEL 2
REMARK VINA RESULT:      -7.4      2.733      3.980
REMARK  Name = 
REMARK  3 active torsions:
REMARK  status: ('A' for Active; 'I' for Inactive)
REMARK    1  A    between atoms: N_2  and  C_3
REMARK    2  A    between atoms: C_3  and  C_4
REMARK    3  A    between atoms: C_7  and  C_8
REMARK                            x       y       z     vdW  Elec       q    Type
REMARK                         _______ _______ _______ _____ _____    ______ ____
ROOT
ATOM      1  C   UNL     1     -12.037  12.023  69.222  0.00  0.00    +0.077 A 
ATOM      2  C   UNL     1     -12.206  13.394  69.362  0.00  0.00    -0.001 A 
ATOM      3  C   UNL     1     -12.287  13.968  70.742  0.00  0.00    +0.051 C 
ATOM      4  C   UNL     1     -12.729  15.411  70.729  0.00  0.00    +0.120 C 
ATOM      5  N   UNL     1     -11.661  16.303  70.281  0.00  0.00    -0.201 NA
ATOM      6  C   UNL     1     -11.181  16.328  68.930  0.00  0.00    +0.265 C 
ATOM      7  C   UNL     1     -11.281  15.260  67.927  0.00  0.00    +0.058 A 
ATOM      8  C   UNL     1     -10.622  15.521  66.760  0.00  0.00    +0.034 A 
ATOM      9  C   UNL     1     -10.725  14.565  65.758  0.00  0.00    +0.142 A 
ATOM     10  F   UNL     1     -10.425  14.954  64.489  0.00  0.00    -0.204 F 
ATOM     11  C   UNL     1     -11.223  13.299  66.015  0.00  0.00    +0.049 A 
ATOM     12  C   UNL     1     -11.806  12.990  67.239  0.00  0.00    +0.083 A 
ATOM     13  O   UNL     1     -10.290  17.177  68.652  0.00  0.00    -0.268 OA
ATOM     14  C   UNL     1     -11.823  14.003  68.173  0.00  0.00    +0.020 A 
ATOM     15  N   UNL     1     -11.931  11.825  67.902  0.00  0.00    -0.246 NA
ENDROOT
BRANCH   1  19
ATOM     16  C   UNL     1     -11.024   8.685  71.604  0.00  0.00    -0.005 A 
ATOM     17  C   UNL     1     -10.171   9.192  70.631  0.00  0.00    -0.003 A 
ATOM     18  C   UNL     1     -10.461  10.343  69.929  0.00  0.00    +0.001 A 
ATOM     19  C   UNL     1     -11.613  11.054  70.244  0.00  0.00    +0.017 A 
ATOM     20  C   UNL     1     -12.527  10.475  71.116  0.00  0.00    +0.001 A 
ATOM     21  C   UNL     1     -12.238   9.321  71.821  0.00  0.00    -0.003 A 
BRANCH  16  22
ATOM     22  C   UNL     1     -10.368   7.946  72.727  0.00  0.00    +0.115 C 
BRANCH  22  24
ATOM     23  C   UNL     1      -8.405   7.851  74.027  0.00  0.00    +0.108 C 
ATOM     24  N   UNL     1      -9.006   8.448  72.852  0.00  0.00    -0.212 NA
ENDBRANCH  22  24
ENDBRANCH  16  22
ENDBRANCH   1  19
TORSDOF 3
ENDMDL
MODEL 3
REMARK VINA RESULT:      -7.2      1.709      1.992
REMARK  Name = 
REMARK  3 active torsions:
REMARK  status: ('A' for Active; 'I' for Inactive)
REMARK    1  A    between atoms: N_2  and  C_3
REMARK    2  A    between atoms: C_3  and  C_4
REMARK    3  A    between atoms: C_7  and  C_8
REMARK                            x       y       z     vdW  Elec       q    Type
REMARK                         _______ _______ _______ _____ _____    ______ ____
ROOT
ATOM      1  C   UNL     1     -10.125  11.763  68.166  0.00  0.00    +0.077 A 
ATOM      2  C   UNL     1     -10.057  11.658  66.783  0.00  0.00    -0.001 A 
ATOM      3  C   UNL     1     -10.337  10.331  66.150  0.00  0.00    +0.051 C 
ATOM      4  C   UNL     1      -9.971  10.313  64.687  0.00  0.00    +0.120 C 
ATOM      5  N   UNL     1     -10.937  11.050  63.875  0.00  0.00    -0.201 NA
ATOM      6  C   UNL     1     -11.079  12.475  63.931  0.00  0.00    +0.265 C 
ATOM      7  C   UNL     1     -10.692  13.368  65.031  0.00  0.00    +0.058 A 
ATOM      8  C   UNL     1     -11.062  14.671  64.854  0.00  0.00    +0.034 A 
ATOM      9  C   UNL     1     -10.678  15.567  65.843  0.00  0.00    +0.142 A 
ATOM     10  F   UNL     1     -10.680  16.890  65.522  0.00  0.00    -0.204 F 
ATOM     11  C   UNL     1     -10.200  15.133  67.067  0.00  0.00    +0.049 A 
ATOM     12  C   UNL     1      -9.915  13.792  67.294  0.00  0.00    +0.083 A 
ATOM     13  O   UNL     1     -11.914  13.002  63.146  0.00  0.00    -0.268 OA
ATOM     14  C   UNL     1     -10.170  12.934  66.245  0.00  0.00    +0.020 A 
ATOM     15  N   UNL     1      -9.901  13.057  68.423  0.00  0.00    -0.246 NA
ENDROOT
BRANCH   1  19
ATOM     16  C   UNL     1     -11.684   9.613  71.451  0.00  0.00    -0.005 A 
ATOM     17  C   UNL     1     -12.385  10.642  70.835  0.00  0.00    -0.003 A 
ATOM     18  C   UNL     1     -11.918  11.271  69.699  0.00  0.00    +0.001 A 
ATOM     19  C   UNL     1     -10.739  10.822  69.115  0.00  0.00    +0.017 A 
ATOM     20  C   UNL     1      -9.975   9.890  69.806  0.00  0.00    +0.001 A 
ATOM     21  C   UNL     1     -10.442   9.258  70.945  0.00  0.00    -0.003 A 
BRANCH  16  22
ATOM     22  C   UNL     1     -12.516   8.585  72.151  0.00  0.00    +0.115 C 
BRANCH  22  24
ATOM     23  C   UNL     1     -14.759   7.924  71.865  0.00  0.00    +0.108 C 
ATOM     24  N   UNL     1     -13.896   9.052  72.146  0.00  0.00    -0.212 NA
ENDBRANCH  22  24
ENDBRANCH  16  22
ENDBRANCH   1  19
TORSDOF 3
ENDMDL
MODEL 4
REMARK VINA RESULT:      -7.1      3.629      7.445
REMARK  Name = 
REMARK  3 active torsions:
REMARK  status: ('A' for Active; 'I' for Inactive)
REMARK    1  A    between atoms: N_2  and  C_3
REMARK    2  A    between atoms: C_3  and  C_4
REMARK    3  A    between atoms: C_7  and  C_8
REMARK                            x       y       z     vdW  Elec       q    Type
REMARK                         _______ _______ _______ _____ _____    ______ ____
ROOT
ATOM      1  C   UNL     1     -11.158  16.409  67.976  0.00  0.00    +0.077 A 
ATOM      2  C   UNL     1     -11.432  15.276  67.222  0.00  0.00    -0.001 A 
ATOM      3  C   UNL     1     -10.903  15.199  65.825  0.00  0.00    +0.051 C 
ATOM      4  C   UNL     1     -11.497  14.043  65.058  0.00  0.00    +0.120 C 
ATOM      5  N   UNL     1     -10.933  12.763  65.479  0.00  0.00    -0.201 NA
ATOM      6  C   UNL     1     -11.191  12.181  66.764  0.00  0.00    +0.265 C 
ATOM      7  C   UNL     1     -11.618  12.872  67.987  0.00  0.00    +0.058 A 
ATOM      8  C   UNL     1     -11.667  12.075  69.096  0.00  0.00    +0.034 A 
ATOM      9  C   UNL     1     -12.111  12.667  70.270  0.00  0.00    +0.142 A 
ATOM     10  F   UNL     1     -12.538  11.841  71.264  0.00  0.00    -0.204 F 
ATOM     11  C   UNL     1     -12.228  14.041  70.388  0.00  0.00    +0.049 A 
ATOM     12  C   UNL     1     -12.079  14.874  69.285  0.00  0.00    +0.083 A 
ATOM     13  O   UNL     1     -10.688  11.048  66.993  0.00  0.00    -0.268 OA
ATOM     14  C   UNL     1     -11.779  14.249  68.093  0.00  0.00    +0.020 A 
ATOM     15  N   UNL     1     -11.690  16.159  69.178  0.00  0.00    -0.246 NA
ENDROOT
BRANCH   1  19
ATOM     16  C   UNL     1      -8.414  19.621  67.987  0.00  0.00    -0.005 A 
ATOM     17  C   UNL     1      -8.108  18.378  68.529  0.00  0.00    -0.003 A 
ATOM     18  C   UNL     1      -8.967  17.303  68.430  0.00  0.00    +0.001 A 
ATOM     19  C   UNL     1     -10.150  17.447  67.714  0.00  0.00    +0.017 A 
ATOM     20  C   UNL     1     -10.514  18.721  67.293  0.00  0.00    +0.001 A 
ATOM     21  C   UNL     1      -9.654  19.800  67.391  0.00  0.00    -0.003 A 
BRANCH  16  22
ATOM     22  C   UNL     1      -7.248  20.434  67.521  0.00  0.00    +0.115 C 
BRANCH  22  24
ATOM     23  C   UNL     1      -5.409  20.876  68.926  0.00  0.00    +0.108 C 
ATOM     24  N   UNL     1      -6.044  19.862  68.110  0.00  0.00    -0.212 NA
ENDBRANCH  22  24
ENDBRANCH  16  22
ENDBRANCH   1  19
TORSDOF 3
ENDMDL
MODEL 5
REMARK VINA RESULT:      -7.1      3.669      5.035
REMARK  Name = 
REMARK  3 active torsions:
REMARK  status: ('A' for Active; 'I' for Inactive)
REMARK    1  A    between atoms: N_2  and  C_3
REMARK    2  A    between atoms: C_3  and  C_4
REMARK    3  A    between atoms: C_7  and  C_8
REMARK                            x       y       z     vdW  Elec       q    Type
REMARK                         _______ _______ _______ _____ _____    ______ ____
ROOT
ATOM      1  C   UNL     1     -11.128  14.379  67.923  0.00  0.00    +0.077 A 
ATOM      2  C   UNL     1     -10.073  13.708  67.318  0.00  0.00    -0.001 A 
ATOM      3  C   UNL     1      -8.888  13.336  68.153  0.00  0.00    +0.051 C 
ATOM      4  C   UNL     1      -7.732  12.856  67.311  0.00  0.00    +0.120 C 
ATOM      5  N   UNL     1      -7.956  11.506  66.797  0.00  0.00    -0.201 NA
ATOM      6  C   UNL     1      -8.944  11.203  65.803  0.00  0.00    +0.265 C 
ATOM      7  C   UNL     1     -10.145  11.981  65.472  0.00  0.00    +0.058 A 
ATOM      8  C   UNL     1     -10.970  11.382  64.563  0.00  0.00    +0.034 A 
ATOM      9  C   UNL     1     -12.096  12.097  64.178  0.00  0.00    +0.142 A 
ATOM     10  F   UNL     1     -12.709  11.722  63.021  0.00  0.00    -0.204 F 
ATOM     11  C   UNL     1     -12.515  13.217  64.874  0.00  0.00    +0.049 A 
ATOM     12  C   UNL     1     -11.730  13.778  65.875  0.00  0.00    +0.083 A 
ATOM     13  O   UNL     1      -9.010  10.009  65.403  0.00  0.00    -0.268 OA
ATOM     14  C   UNL     1     -10.542  13.132  66.144  0.00  0.00    +0.020 A 
ATOM     15  N   UNL     1     -12.049  14.508  66.961  0.00  0.00    -0.246 NA
ENDROOT
BRANCH   1  19
ATOM     16  C   UNL     1     -12.692  14.857  71.818  0.00  0.00    -0.005 A 
ATOM     17  C   UNL     1     -12.699  13.634  71.158  0.00  0.00    -0.003 A 
ATOM     18  C   UNL     1     -12.094  13.460  69.930  0.00  0.00    +0.001 A 
ATOM     19  C   UNL     1     -11.403  14.523  69.361  0.00  0.00    +0.017 A 
ATOM     20  C   UNL     1     -11.513  15.775  69.955  0.00  0.00    +0.001 A 
ATOM     21  C   UNL     1     -12.119  15.951  71.186  0.00  0.00    -0.003 A 
BRANCH  16  22
ATOM     22  C   UNL     1     -12.703  14.791  73.312  0.00  0.00    +0.115 C 
BRANCH  22  24
ATOM     23  C   UNL     1     -12.467  16.194  75.191  0.00  0.00    +0.108 C 
ATOM     24  N   UNL     1     -12.917  16.142  73.815  0.00  0.00    -0.212 NA
ENDBRANCH  22  24
ENDBRANCH  16  22
ENDBRANCH   1  19
TORSDOF 3
ENDMDL
MODEL 6
REMARK VINA RESULT:      -7.0      3.777      7.758
REMARK  Name = 
REMARK  3 active torsions:
REMARK  status: ('A' for Active; 'I' for Inactive)
REMARK    1  A    between atoms: N_2  and  C_3
REMARK    2  A    between atoms: C_3  and  C_4
REMARK    3  A    between atoms: C_7  and  C_8
REMARK                            x       y       z     vdW  Elec       q    Type
REMARK                         _______ _______ _______ _____ _____    ______ ____
ROOT
ATOM      1  C   UNL     1     -10.569  17.044  68.422  0.00  0.00    +0.077 A 
ATOM      2  C   UNL     1     -10.865  16.135  67.415  0.00  0.00    -0.001 A 
ATOM      3  C   UNL     1     -10.234  16.325  66.071  0.00  0.00    +0.051 C 
ATOM      4  C   UNL     1     -10.848  15.427  65.026  0.00  0.00    +0.120 C 
ATOM      5  N   UNL     1     -10.413  14.039  65.177  0.00  0.00    -0.201 NA
ATOM      6  C   UNL     1     -10.813  13.211  66.276  0.00  0.00    +0.265 C 
ATOM      7  C   UNL     1     -11.284  13.647  67.598  0.00  0.00    +0.058 A 
ATOM      8  C   UNL     1     -11.478  12.631  68.489  0.00  0.00    +0.034 A 
ATOM      9  C   UNL     1     -11.969  12.984  69.739  0.00  0.00    +0.142 A 
ATOM     10  F   UNL     1     -12.531  11.998  70.491  0.00  0.00    -0.204 F 
ATOM     11  C   UNL     1     -11.995  14.302  70.161  0.00  0.00    +0.049 A 
ATOM     12  C   UNL     1     -11.699  15.343  69.288  0.00  0.00    +0.083 A 
ATOM     13  O   UNL     1     -10.413  12.015  66.271  0.00  0.00    -0.268 OA
ATOM     14  C   UNL     1     -11.352  14.975  68.005  0.00  0.00    +0.020 A 
ATOM     15  N   UNL     1     -11.211  16.579  69.501  0.00  0.00    -0.246 NA
ENDROOT
BRANCH   1  19
ATOM     16  C   UNL     1      -7.349  19.696  67.756  0.00  0.00    -0.005 A 
ATOM     17  C   UNL     1      -8.667  20.040  67.481  0.00  0.00    -0.003 A 
ATOM     18  C   UNL     1      -9.724  19.211  67.797  0.00  0.00    +0.001 A 
ATOM     19  C   UNL     1      -9.470  18.020  68.467  0.00  0.00    +0.017 A 
ATOM     20  C   UNL     1      -8.149  17.617  68.618  0.00  0.00    +0.001 A 
ATOM     21  C   UNL     1      -7.088  18.447  68.302  0.00  0.00    -0.003 A 
BRANCH  16  22
ATOM     22  C   UNL     1      -6.424  20.835  68.047  0.00  0.00    +0.115 C 
BRANCH  22  24
ATOM     23  C   UNL     1      -4.955  21.159  66.233  0.00  0.00    +0.108 C 
ATOM     24  N   UNL     1      -6.221  21.570  66.805  0.00  0.00    -0.212 NA
ENDBRANCH  22  24
ENDBRANCH  16  22
ENDBRANCH   1  19
TORSDOF 3
ENDMDL
MODEL 7
REMARK VINA RESULT:      -6.8      3.460      7.721
REMARK  Name = 
REMARK  3 active torsions:
REMARK  status: ('A' for Active; 'I' for Inactive)
REMARK    1  A    between atoms: N_2  and  C_3
REMARK    2  A    between atoms: C_3  and  C_4
REMARK    3  A    between atoms: C_7  and  C_8
REMARK                            x       y       z     vdW  Elec       q    Type
REMARK                         _______ _______ _______ _____ _____    ______ ____
ROOT
ATOM      1  C   UNL     1     -10.414  16.835  66.986  0.00  0.00    +0.077 A 
ATOM      2  C   UNL     1     -11.099  15.725  66.507  0.00  0.00    -0.001 A 
ATOM      3  C   UNL     1     -10.839  15.273  65.105  0.00  0.00    +0.051 C 
ATOM      4  C   UNL     1     -11.835  14.235  64.651  0.00  0.00    +0.120 C 
ATOM      5  N   UNL     1     -11.577  12.930  65.257  0.00  0.00    -0.201 NA
ATOM      6  C   UNL     1     -11.775  12.665  66.652  0.00  0.00    +0.265 C 
ATOM      7  C   UNL     1     -11.801  13.638  67.752  0.00  0.00    +0.058 A 
ATOM      8  C   UNL     1     -11.886  13.080  68.995  0.00  0.00    +0.034 A 
ATOM      9  C   UNL     1     -11.963  13.957  70.068  0.00  0.00    +0.142 A 
ATOM     10  F   UNL     1     -12.433  13.464  71.247  0.00  0.00    -0.204 F 
ATOM     11  C   UNL     1     -11.686  15.305  69.922  0.00  0.00    +0.049 A 
ATOM     12  C   UNL     1     -11.495  15.869  68.665  0.00  0.00    +0.083 A 
ATOM     13  O   UNL     1     -11.565  11.486  67.048  0.00  0.00    -0.268 OA
ATOM     14  C   UNL     1     -11.566  15.000  67.597  0.00  0.00    +0.020 A 
ATOM     15  N   UNL     1     -10.797  16.948  68.264  0.00  0.00    -0.246 NA
ENDROOT
BRANCH   1  19
ATOM     16  C   UNL     1      -6.729  18.710  66.123  0.00  0.00    -0.005 A 
ATOM     17  C   UNL     1      -6.837  17.340  66.329  0.00  0.00    -0.003 A 
ATOM     18  C   UNL     1      -8.056  16.718  66.507  0.00  0.00    +0.001 A 
ATOM     19  C   UNL     1      -9.219  17.475  66.418  0.00  0.00    +0.017 A 
ATOM     20  C   UNL     1      -9.101  18.858  66.349  0.00  0.00    +0.001 A 
ATOM     21  C   UNL     1      -7.880  19.482  66.170  0.00  0.00    -0.003 A 
BRANCH  16  22
ATOM     22  C   UNL     1      -5.577  19.153  65.278  0.00  0.00    +0.115 C 
BRANCH  22  24
ATOM     23  C   UNL     1      -4.809  19.222  63.051  0.00  0.00    +0.108 C 
ATOM     24  N   UNL     1      -5.982  19.043  63.882  0.00  0.00    -0.212 NA
ENDBRANCH  22  24
ENDBRANCH  16  22
ENDBRANCH   1  19
TORSDOF 3
ENDMDL
MODEL 8
REMARK VINA RESULT:      -6.5      2.719      3.912
REMARK  Name = 
REMARK  3 active torsions:
REMARK  status: ('A' for Active; 'I' for Inactive)
REMARK    1  A    between atoms: N_2  and  C_3
REMARK    2  A    between atoms: C_3  and  C_4
REMARK    3  A    between atoms: C_7  and  C_8
REMARK                            x       y       z     vdW  Elec       q    Type
REMARK                         _______ _______ _______ _____ _____    ______ ____
ROOT
ATOM      1  C   UNL     1     -11.410  12.014  68.333  0.00  0.00    +0.077 A 
ATOM      2  C   UNL     1     -11.395  13.391  68.152  0.00  0.00    -0.001 A 
ATOM      3  C   UNL     1     -10.725  14.242  69.184  0.00  0.00    +0.051 C 
ATOM      4  C   UNL     1     -11.018  15.708  68.985  0.00  0.00    +0.120 C 
ATOM      5  N   UNL     1     -10.274  16.264  67.856  0.00  0.00    -0.201 NA
ATOM      6  C   UNL     1     -10.548  15.916  66.493  0.00  0.00    +0.265 C 
ATOM      7  C   UNL     1     -11.213  14.704  65.997  0.00  0.00    +0.058 A 
ATOM      8  C   UNL     1     -11.226  14.584  64.637  0.00  0.00    +0.034 A 
ATOM      9  C   UNL     1     -11.885  13.480  64.114  0.00  0.00    +0.142 A 
ATOM     10  F   UNL     1     -12.250  13.533  62.804  0.00  0.00    -0.204 F 
ATOM     11  C   UNL     1     -12.263  12.417  64.915  0.00  0.00    +0.049 A 
ATOM     12  C   UNL     1     -12.159  12.486  66.299  0.00  0.00    +0.083 A 
ATOM     13  O   UNL     1      -9.871  16.499  65.603  0.00  0.00    -0.268 OA
ATOM     14  C   UNL     1     -11.633  13.654  66.808  0.00  0.00    +0.020 A 
ATOM     15  N   UNL     1     -12.003  11.530  67.235  0.00  0.00    -0.246 NA
ENDROOT
BRANCH   1  19
ATOM     16  C   UNL     1      -9.169   9.118  70.440  0.00  0.00    -0.005 A 
ATOM     17  C   UNL     1      -8.643   9.833  69.371  0.00  0.00    -0.003 A 
ATOM     18  C   UNL     1      -9.342  10.850  68.753  0.00  0.00    +0.001 A 
ATOM     19  C   UNL     1     -10.587  11.213  69.252  0.00  0.00    +0.017 A 
ATOM     20  C   UNL     1     -11.165  10.412  70.229  0.00  0.00    +0.001 A 
ATOM     21  C   UNL     1     -10.466   9.392  70.850  0.00  0.00    -0.003 A 
BRANCH  16  22
ATOM     22  C   UNL     1      -8.175   8.605  71.433  0.00  0.00    +0.115 C 
BRANCH  22  24
ATOM     23  C   UNL     1      -8.484   7.381  73.423  0.00  0.00    +0.108 C 
ATOM     24  N   UNL     1      -8.810   8.619  72.745  0.00  0.00    -0.212 NA
ENDBRANCH  22  24
ENDBRANCH  16  22
ENDBRANCH   1  19
TORSDOF 3
ENDMDL
MODEL 9
REMARK VINA RESULT:      -6.4      3.341      7.032
REMARK  Name = 
REMARK  3 active torsions:
REMARK  status: ('A' for Active; 'I' for Inactive)
REMARK    1  A    between atoms: N_2  and  C_3
REMARK    2  A    between atoms: C_3  and  C_4
REMARK    3  A    between atoms: C_7  and  C_8
REMARK                            x       y       z     vdW  Elec       q    Type
REMARK                         _______ _______ _______ _____ _____    ______ ____
ROOT
ATOM      1  C   UNL     1     -10.921  15.161  67.897  0.00  0.00    +0.077 A 
ATOM      2  C   UNL     1     -11.334  14.369  66.833  0.00  0.00    -0.001 A 
ATOM      3  C   UNL     1     -11.081  14.852  65.440  0.00  0.00    +0.051 C 
ATOM      4  C   UNL     1     -11.811  14.022  64.412  0.00  0.00    +0.120 C 
ATOM      5  N   UNL     1     -11.178  12.719  64.215  0.00  0.00    -0.201 NA
ATOM      6  C   UNL     1     -11.188  11.688  65.210  0.00  0.00    +0.265 C 
ATOM      7  C   UNL     1     -11.373  11.846  66.658  0.00  0.00    +0.058 A 
ATOM      8  C   UNL     1     -11.211  10.695  67.375  0.00  0.00    +0.034 A 
ATOM      9  C   UNL     1     -11.423  10.778  68.745  0.00  0.00    +0.142 A 
ATOM     10  F   UNL     1     -11.653   9.616  69.414  0.00  0.00    -0.204 F 
ATOM     11  C   UNL     1     -11.514  12.000  69.389  0.00  0.00    +0.049 A 
ATOM     12  C   UNL     1     -11.577  13.189  68.673  0.00  0.00    +0.083 A 
ATOM     13  O   UNL     1     -10.651  10.589  64.904  0.00  0.00    -0.268 OA
ATOM     14  C   UNL     1     -11.509  13.072  67.301  0.00  0.00    +0.020 A 
ATOM     15  N   UNL     1     -11.214  14.447  68.990  0.00  0.00    -0.246 NA
ENDROOT
BRANCH   1  19
ATOM     16  C   UNL     1      -8.314  18.404  68.627  0.00  0.00    -0.005 A 
ATOM     17  C   UNL     1      -7.915  17.080  68.773  0.00  0.00    -0.003 A 
ATOM     18  C   UNL     1      -8.737  16.025  68.433  0.00  0.00    +0.001 A 
ATOM     19  C   UNL     1      -9.979  16.290  67.871  0.00  0.00    +0.017 A 
ATOM     20  C   UNL     1     -10.428  17.606  67.854  0.00  0.00    +0.001 A 
ATOM     21  C   UNL     1      -9.605  18.665  68.194  0.00  0.00    -0.003 A 
BRANCH  16  22
ATOM     22  C   UNL     1      -7.224  19.384  68.331  0.00  0.00    +0.115 C 
BRANCH  22  24
ATOM     23  C   UNL     1      -6.632  21.067  66.792  0.00  0.00    +0.108 C 
ATOM     24  N   UNL     1      -7.748  20.358  67.382  0.00  0.00    -0.212 NA
ENDBRANCH  22  24
ENDBRANCH  16  22
ENDBRANCH   1  19
TORSDOF 3
ENDMDL
