MODEL 1
REMARK VINA RESULT:      -6.7      0.000      0.000
REMARK  Name = 
REMARK  0 active torsions:
REMARK  status: ('A' for Active; 'I' for Inactive)
REMARK                            x       y       z     vdW  Elec       q    Type
REMARK                         _______ _______ _______ _____ _____    ______ ____
ROOT
ATOM      1  C   UNL     1      -8.889  10.129  64.526  0.00  0.00    +0.090 C 
ATOM      2  N   UNL     1      -9.722  10.758  64.753  0.00  0.00    -0.272 NA
ATOM      3  C   UNL     1      -9.449  11.339  66.183  0.00  0.00    +0.066 C 
ATOM      4  C   UNL     1      -9.789  12.880  65.545  0.00  0.00    +0.044 C 
ATOM      5  C   UNL     1     -11.353  12.988  65.845  0.00  0.00    +0.067 C 
ATOM      6  C   UNL     1     -11.754  14.539  65.614  0.00  0.00    +0.204 C 
ATOM      7  O   UNL     1     -11.601  15.013  67.059  0.00  0.00    -0.473 OA
ATOM      8  C   UNL     1     -11.906  14.001  67.898  0.00  0.00    +0.173 A 
ATOM      9  C   UNL     1     -11.709  13.858  69.272  0.00  0.00    +0.229 A 
ATOM     10  C   UNL     1     -11.934  12.586  69.805  0.00  0.00    +0.045 A 
ATOM     11  C   UNL     1     -11.823  11.443  69.009  0.00  0.00    -0.001 A 
ATOM     12  C   UNL     1     -11.339  11.643  67.766  0.00  0.00    -0.022 A 
ATOM     13  O   UNL     1     -11.001  14.821  70.009  0.00  0.00    -0.283 OA
ATOM     14  C   UNL     1     -10.209  15.091  65.051  0.00  0.00    +0.214 C 
ATOM     15  O   UNL     1     -10.597  16.523  65.321  0.00  0.00    -0.214 OA
ATOM     16  C   UNL     1      -9.415  14.942  66.451  0.00  0.00    +0.005 C 
ATOM     17  C   UNL     1     -11.725  12.843  67.167  0.00  0.00    +0.014 A 
ATOM     18  C   UNL     1     -11.819  12.174  64.727  0.00  0.00    +0.025 C 
ATOM     19  C   UNL     1      -9.385  13.667  66.886  0.00  0.00    -0.027 C 
ATOM     20  C   UNL     1     -10.890  10.794  66.700  0.00  0.00    +0.042 C 
ATOM     21  C   UNL     1     -10.942  11.078  64.259  0.00  0.00    +0.073 C 
ENDROOT
TORSDOF 0
ENDMDL
MODEL 2
REMARK VINA RESULT:      -6.7      1.705      3.721
REMARK  Name = 
REMARK  0 active torsions:
REMARK  status: ('A' for Active; 'I' for Inactive)
REMARK                            x       y       z     vdW  Elec       q    Type
REMARK                         _______ _______ _______ _____ _____    ______ ____
ROOT
ATOM      1  C   UNL     1     -10.588  10.174  69.498  0.00  0.00    +0.090 C 
ATOM      2  N   UNL     1     -10.124  10.819  68.783  0.00  0.00    -0.272 NA
ATOM      3  C   UNL     1     -11.281  11.367  67.880  0.00  0.00    +0.066 C 
ATOM      4  C   UNL     1     -10.654  12.927  68.144  0.00  0.00    +0.044 C 
ATOM      5  C   UNL     1      -9.669  13.066  66.896  0.00  0.00    +0.067 C 
ATOM      6  C   UNL     1      -9.260  14.630  66.812  0.00  0.00    +0.204 C 
ATOM      7  O   UNL     1     -10.333  15.075  65.819  0.00  0.00    -0.473 OA
ATOM      8  C   UNL     1     -10.620  14.056  64.982  0.00  0.00    +0.173 A 
ATOM      9  C   UNL     1     -11.662  13.883  64.069  0.00  0.00    +0.229 A 
ATOM     10  C   UNL     1     -11.801  12.608  63.516  0.00  0.00    +0.045 A 
ATOM     11  C   UNL     1     -11.332  11.476  64.189  0.00  0.00    -0.001 A 
ATOM     12  C   UNL     1     -10.893  11.688  65.447  0.00  0.00    -0.022 A 
ATOM     13  O   UNL     1     -12.707  14.816  63.975  0.00  0.00    -0.283 OA
ATOM     14  C   UNL     1     -10.079  15.156  68.248  0.00  0.00    +0.214 C 
ATOM     15  O   UNL     1     -10.005  16.591  67.793  0.00  0.00    -0.214 OA
ATOM     16  C   UNL     1     -11.590  14.962  67.705  0.00  0.00    +0.005 C 
ATOM     17  C   UNL     1     -10.245  12.907  65.651  0.00  0.00    +0.014 A 
ATOM     18  C   UNL     1      -8.561  12.284  67.437  0.00  0.00    +0.025 C 
ATOM     19  C   UNL     1     -11.858  13.680  67.393  0.00  0.00    -0.027 C 
ATOM     20  C   UNL     1     -10.512  10.847  66.546  0.00  0.00    +0.042 C 
ATOM     21  C   UNL     1      -8.888  11.177  68.362  0.00  0.00    +0.073 C 
ENDROOT
TORSDOF 0
ENDMDL
MODEL 3
REMARK VINA RESULT:      -6.5      2.574      4.394
REMARK  Name = 
REMARK  0 active torsions:
REMARK  status: ('A' for Active; 'I' for Inactive)
REMARK                            x       y       z     vdW  Elec       q    Type
REMARK                         _______ _______ _______ _____ _____    ______ ____
ROOT
ATOM      1  C   UNL     1     -11.964  15.927  69.625  0.00  0.00    +0.090 C 
ATOM      2  N   UNL     1     -11.375  15.724  68.758  0.00  0.00    -0.272 NA
ATOM      3  C   UNL     1     -11.401  14.168  68.571  0.00  0.00    +0.066 C 
ATOM      4  C   UNL     1     -11.822  14.441  66.945  0.00  0.00    +0.044 C 
ATOM      5  C   UNL     1     -10.379  14.457  66.263  0.00  0.00    +0.067 C 
ATOM      6  C   UNL     1     -10.630  14.358  64.666  0.00  0.00    +0.204 C 
ATOM      7  O   UNL     1     -10.508  12.840  64.529  0.00  0.00    -0.473 OA
ATOM      8  C   UNL     1      -9.638  12.375  65.450  0.00  0.00    +0.173 A 
ATOM      9  C   UNL     1      -9.361  11.075  65.875  0.00  0.00    +0.229 A 
ATOM     10  C   UNL     1      -8.561  10.949  67.014  0.00  0.00    +0.045 A 
ATOM     11  C   UNL     1      -8.495  11.973  67.964  0.00  0.00    -0.001 A 
ATOM     12  C   UNL     1      -9.360  12.991  67.782  0.00  0.00    -0.022 A 
ATOM     13  O   UNL     1     -10.110   9.982  65.410  0.00  0.00    -0.283 OA
ATOM     14  C   UNL     1     -12.363  14.422  64.705  0.00  0.00    +0.214 C 
ATOM     15  O   UNL     1     -12.438  13.878  63.301  0.00  0.00    -0.214 OA
ATOM     16  C   UNL     1     -12.608  12.974  65.382  0.00  0.00    +0.005 C 
ATOM     17  C   UNL     1      -9.610  13.327  66.451  0.00  0.00    +0.014 A 
ATOM     18  C   UNL     1     -10.008  15.821  66.630  0.00  0.00    +0.025 C 
ATOM     19  C   UNL     1     -12.063  12.888  66.610  0.00  0.00    -0.027 C 
ATOM     20  C   UNL     1      -9.777  14.123  68.561  0.00  0.00    +0.042 C 
ATOM     21  C   UNL     1     -10.545  16.361  67.899  0.00  0.00    +0.073 C 
ENDROOT
TORSDOF 0
ENDMDL
MODEL 4
REMARK VINA RESULT:      -6.4      2.532      4.865
REMARK  Name = 
REMARK  0 active torsions:
REMARK  status: ('A' for Active; 'I' for Inactive)
REMARK                            x       y       z     vdW  Elec       q    Type
REMARK                         _______ _______ _______ _____ _____    ______ ____
ROOT
ATOM      1  C   UNL     1      -8.454  16.111  68.990  0.00  0.00    +0.090 C 
ATOM      2  N   UNL     1      -9.354  15.555  68.843  0.00  0.00    -0.272 NA
ATOM      3  C   UNL     1      -9.216  14.874  67.438  0.00  0.00    +0.066 C 
ATOM      4  C   UNL     1      -9.665  13.411  68.182  0.00  0.00    +0.044 C 
ATOM      5  C   UNL     1     -11.245  13.440  67.967  0.00  0.00    +0.067 C 
ATOM      6  C   UNL     1     -11.779  11.950  68.310  0.00  0.00    +0.204 C 
ATOM      7  O   UNL     1     -11.751  11.386  66.889  0.00  0.00    -0.473 OA
ATOM      8  C   UNL     1     -12.004  12.375  66.008  0.00  0.00    +0.173 A 
ATOM      9  C   UNL     1     -11.871  12.424  64.619  0.00  0.00    +0.229 A 
ATOM     10  C   UNL     1     -12.004  13.680  64.024  0.00  0.00    +0.045 A 
ATOM     11  C   UNL     1     -11.741  14.849  64.744  0.00  0.00    -0.001 A 
ATOM     12  C   UNL     1     -11.211  14.670  65.971  0.00  0.00    -0.022 A 
ATOM     13  O   UNL     1     -11.299  11.358  63.907  0.00  0.00    -0.283 OA
ATOM     14  C   UNL     1     -10.264  11.281  68.827  0.00  0.00    +0.214 C 
ATOM     15  O   UNL     1     -10.800   9.881  68.662  0.00  0.00    -0.214 OA
ATOM     16  C   UNL     1      -9.538  11.276  67.382  0.00  0.00    +0.005 C 
ATOM     17  C   UNL     1     -11.675  13.549  66.659  0.00  0.00    +0.014 A 
ATOM     18  C   UNL     1     -11.571  14.355  69.057  0.00  0.00    +0.025 C 
ATOM     19  C   UNL     1      -9.412  12.516  66.872  0.00  0.00    -0.027 C 
ATOM     20  C   UNL     1     -10.625  15.528  66.961  0.00  0.00    +0.042 C 
ATOM     21  C   UNL     1     -10.569  15.383  69.414  0.00  0.00    +0.073 C 
ENDROOT
TORSDOF 0
ENDMDL
MODEL 5
REMARK VINA RESULT:      -6.3      1.845      2.567
REMARK  Name = 
REMARK  0 active torsions:
REMARK  status: ('A' for Active; 'I' for Inactive)
REMARK                            x       y       z     vdW  Elec       q    Type
REMARK                         _______ _______ _______ _____ _____    ______ ____
ROOT
ATOM      1  C   UNL     1      -8.899  11.816  66.464  0.00  0.00    +0.090 C 
ATOM      2  N   UNL     1      -9.748  12.428  66.678  0.00  0.00    -0.272 NA
ATOM      3  C   UNL     1      -9.671  12.753  68.209  0.00  0.00    +0.066 C 
ATOM      4  C   UNL     1      -9.900  14.390  67.801  0.00  0.00    +0.044 C 
ATOM      5  C   UNL     1     -11.489  14.501  67.899  0.00  0.00    +0.067 C 
ATOM      6  C   UNL     1     -11.836  16.082  67.880  0.00  0.00    +0.204 C 
ATOM      7  O   UNL     1     -11.881  16.304  69.392  0.00  0.00    -0.473 OA
ATOM      8  C   UNL     1     -12.313  15.179  69.998  0.00  0.00    +0.173 A 
ATOM      9  C   UNL     1     -12.313  14.803  71.342  0.00  0.00    +0.229 A 
ATOM     10  C   UNL     1     -12.626  13.469  71.617  0.00  0.00    +0.045 A 
ATOM     11  C   UNL     1     -12.418  12.470  70.661  0.00  0.00    -0.001 A 
ATOM     12  C   UNL     1     -11.762  12.857  69.548  0.00  0.00    -0.022 A 
ATOM     13  O   UNL     1     -11.705  15.605  72.321  0.00  0.00    -0.283 OA
ATOM     14  C   UNL     1     -10.220  16.665  67.636  0.00  0.00    +0.214 C 
ATOM     15  O   UNL     1     -10.625  18.046  68.089  0.00  0.00    -0.214 OA
ATOM     16  C   UNL     1      -9.633  16.258  69.086  0.00  0.00    +0.005 C 
ATOM     17  C   UNL     1     -12.045  14.152  69.113  0.00  0.00    +0.014 A 
ATOM     18  C   UNL     1     -11.804  13.901  66.606  0.00  0.00    +0.025 C 
ATOM     19  C   UNL     1      -9.680  14.929  69.298  0.00  0.00    -0.027 C 
ATOM     20  C   UNL     1     -11.177  12.181  68.425  0.00  0.00    +0.042 C 
ATOM     21  C   UNL     1     -10.882  12.868  66.084  0.00  0.00    +0.073 C 
ENDROOT
TORSDOF 0
ENDMDL
MODEL 6
REMARK VINA RESULT:      -6.3      1.700      3.787
REMARK  Name = 
REMARK  0 active torsions:
REMARK  status: ('A' for Active; 'I' for Inactive)
REMARK                            x       y       z     vdW  Elec       q    Type
REMARK                         _______ _______ _______ _____ _____    ______ ____
ROOT
ATOM      1  C   UNL     1     -12.704  12.080  63.420  0.00  0.00    +0.090 C 
ATOM      2  N   UNL     1     -11.813  12.004  64.005  0.00  0.00    -0.272 NA
ATOM      3  C   UNL     1     -11.915  13.125  65.096  0.00  0.00    +0.066 C 
ATOM      4  C   UNL     1     -11.531  11.937  66.252  0.00  0.00    +0.044 C 
ATOM      5  C   UNL     1      -9.943  12.081  66.311  0.00  0.00    +0.067 C 
ATOM      6  C   UNL     1      -9.459  11.261  67.620  0.00  0.00    +0.204 C 
ATOM      7  O   UNL     1      -9.448  12.428  68.606  0.00  0.00    -0.473 OA
ATOM      8  C   UNL     1      -9.137  13.566  67.951  0.00  0.00    +0.173 A 
ATOM      9  C   UNL     1      -9.217  14.903  68.345  0.00  0.00    +0.229 A 
ATOM     10  C   UNL     1      -9.031  15.860  67.344  0.00  0.00    +0.045 A 
ATOM     11  C   UNL     1      -9.292  15.560  66.004  0.00  0.00    -0.001 A 
ATOM     12  C   UNL     1      -9.872  14.363  65.778  0.00  0.00    -0.022 A 
ATOM     13  O   UNL     1      -9.788  15.265  69.576  0.00  0.00    -0.283 OA
ATOM     14  C   UNL     1     -11.009  10.625  68.073  0.00  0.00    +0.214 C 
ATOM     15  O   UNL     1     -10.502  10.314  69.458  0.00  0.00    -0.214 OA
ATOM     16  C   UNL     1     -11.680  12.023  68.528  0.00  0.00    +0.005 C 
ATOM     17  C   UNL     1      -9.462  13.336  66.628  0.00  0.00    +0.014 A 
ATOM     18  C   UNL     1      -9.636  11.324  65.100  0.00  0.00    +0.025 C 
ATOM     19  C   UNL     1     -11.756  12.905  67.513  0.00  0.00    -0.027 C 
ATOM     20  C   UNL     1     -10.473  13.723  64.643  0.00  0.00    +0.042 C 
ATOM     21  C   UNL     1     -10.625  11.355  64.000  0.00  0.00    +0.073 C 
ENDROOT
TORSDOF 0
ENDMDL
MODEL 7
REMARK VINA RESULT:      -6.2      1.648      3.063
REMARK  Name = 
REMARK  0 active torsions:
REMARK  status: ('A' for Active; 'I' for Inactive)
REMARK                            x       y       z     vdW  Elec       q    Type
REMARK                         _______ _______ _______ _____ _____    ______ ____
ROOT
ATOM      1  C   UNL     1      -9.205   8.795  65.264  0.00  0.00    +0.090 C 
ATOM      2  N   UNL     1      -9.616   9.563  65.883  0.00  0.00    -0.272 NA
ATOM      3  C   UNL     1      -8.977  10.906  65.387  0.00  0.00    +0.066 C 
ATOM      4  C   UNL     1     -10.551  11.552  65.330  0.00  0.00    +0.044 C 
ATOM      5  C   UNL     1     -10.663  12.191  66.788  0.00  0.00    +0.067 C 
ATOM      6  C   UNL     1     -11.970  13.146  66.766  0.00  0.00    +0.204 C 
ATOM      7  O   UNL     1     -11.265  14.456  66.414  0.00  0.00    -0.473 OA
ATOM      8  C   UNL     1     -10.022  14.452  66.936  0.00  0.00    +0.173 A 
ATOM      9  C   UNL     1      -8.929  15.292  66.713  0.00  0.00    +0.229 A 
ATOM     10  C   UNL     1      -7.705  14.879  67.245  0.00  0.00    +0.045 A 
ATOM     11  C   UNL     1      -7.447  13.527  67.491  0.00  0.00    -0.001 A 
ATOM     12  C   UNL     1      -8.380  12.665  67.037  0.00  0.00    -0.022 A 
ATOM     13  O   UNL     1      -8.974  16.296  65.733  0.00  0.00    -0.283 OA
ATOM     14  C   UNL     1     -12.504  12.762  65.161  0.00  0.00    +0.214 C 
ATOM     15  O   UNL     1     -13.375  13.993  65.132  0.00  0.00    -0.214 OA
ATOM     16  C   UNL     1     -11.295  13.481  64.364  0.00  0.00    +0.005 C 
ATOM     17  C   UNL     1      -9.697  13.121  67.115  0.00  0.00    +0.014 A 
ATOM     18  C   UNL     1     -10.952  10.959  67.516  0.00  0.00    +0.025 C 
ATOM     19  C   UNL     1     -10.099  12.938  64.658  0.00  0.00    -0.027 C 
ATOM     20  C   UNL     1      -8.463  11.239  66.892  0.00  0.00    +0.042 C 
ATOM     21  C   UNL     1     -10.377   9.700  66.994  0.00  0.00    +0.073 C 
ENDROOT
TORSDOF 0
ENDMDL
MODEL 8
REMARK VINA RESULT:      -6.2      6.844      8.324
REMARK  Name = 
REMARK  0 active torsions:
REMARK  status: ('A' for Active; 'I' for Inactive)
REMARK                            x       y       z     vdW  Elec       q    Type
REMARK                         _______ _______ _______ _____ _____    ______ ____
ROOT
ATOM      1  C   UNL     1      -4.074  20.816  69.827  0.00  0.00    +0.090 C 
ATOM      2  N   UNL     1      -4.583  20.037  69.303  0.00  0.00    -0.272 NA
ATOM      3  C   UNL     1      -5.906  20.677  68.757  0.00  0.00    +0.066 C 
ATOM      4  C   UNL     1      -5.513  20.019  67.237  0.00  0.00    +0.044 C 
ATOM      5  C   UNL     1      -6.272  18.617  67.315  0.00  0.00    +0.067 C 
ATOM      6  C   UNL     1      -6.284  18.023  65.808  0.00  0.00    +0.204 C 
ATOM      7  O   UNL     1      -7.648  18.564  65.382  0.00  0.00    -0.473 OA
ATOM      8  C   UNL     1      -8.464  18.622  66.455  0.00  0.00    +0.173 A 
ATOM      9  C   UNL     1      -9.703  19.239  66.633  0.00  0.00    +0.229 A 
ATOM     10  C   UNL     1     -10.185  19.305  67.943  0.00  0.00    +0.045 A 
ATOM     11  C   UNL     1      -9.310  19.273  69.033  0.00  0.00    -0.001 A 
ATOM     12  C   UNL     1      -7.998  19.336  68.729  0.00  0.00    -0.022 A 
ATOM     13  O   UNL     1     -10.265  20.045  65.630  0.00  0.00    -0.283 OA
ATOM     14  C   UNL     1      -5.329  19.267  65.067  0.00  0.00    +0.214 C 
ATOM     15  O   UNL     1      -5.806  18.850  63.699  0.00  0.00    -0.214 OA
ATOM     16  C   UNL     1      -6.415  20.459  65.187  0.00  0.00    +0.005 C 
ATOM     17  C   UNL     1      -7.630  18.678  67.555  0.00  0.00    +0.014 A 
ATOM     18  C   UNL     1      -5.286  17.910  68.127  0.00  0.00    +0.025 C 
ATOM     19  C   UNL     1      -6.726  20.736  66.467  0.00  0.00    -0.027 C 
ATOM     20  C   UNL     1      -6.787  19.518  69.478  0.00  0.00    +0.042 C 
ATOM     21  C   UNL     1      -4.500  18.701  69.099  0.00  0.00    +0.073 C 
ENDROOT
TORSDOF 0
ENDMDL
MODEL 9
REMARK VINA RESULT:      -6.0      1.732      3.713
REMARK  Name = 
REMARK  0 active torsions:
REMARK  status: ('A' for Active; 'I' for Inactive)
REMARK                            x       y       z     vdW  Elec       q    Type
REMARK                         _______ _______ _______ _____ _____    ______ ____
ROOT
ATOM      1  C   UNL     1      -8.348  10.258  68.977  0.00  0.00    +0.090 C 
ATOM      2  N   UNL     1      -8.380  11.175  68.430  0.00  0.00    -0.272 NA
ATOM      3  C   UNL     1      -9.804  11.242  67.781  0.00  0.00    +0.066 C 
ATOM      4  C   UNL     1      -9.939  12.819  68.406  0.00  0.00    +0.044 C 
ATOM      5  C   UNL     1      -9.384  13.674  67.179  0.00  0.00    +0.067 C 
ATOM      6  C   UNL     1      -9.774  15.215  67.485  0.00  0.00    +0.204 C 
ATOM      7  O   UNL     1     -11.095  15.254  66.716  0.00  0.00    -0.473 OA
ATOM      8  C   UNL     1     -11.024  14.417  65.661  0.00  0.00    +0.173 A 
ATOM      9  C   UNL     1     -12.015  13.934  64.804  0.00  0.00    +0.229 A 
ATOM     10  C   UNL     1     -11.645  12.898  63.943  0.00  0.00    +0.045 A 
ATOM     11  C   UNL     1     -10.586  12.042  64.261  0.00  0.00    -0.001 A 
ATOM     12  C   UNL     1     -10.071  12.189  65.499  0.00  0.00    -0.022 A 
ATOM     13  O   UNL     1     -13.371  14.221  65.027  0.00  0.00    -0.283 OA
ATOM     14  C   UNL     1     -10.460  14.966  69.059  0.00  0.00    +0.214 C 
ATOM     15  O   UNL     1     -11.149  16.306  68.996  0.00  0.00    -0.214 OA
ATOM     16  C   UNL     1     -11.778  14.159  68.584  0.00  0.00    +0.005 C 
ATOM     17  C   UNL     1     -10.040  13.500  65.976  0.00  0.00    +0.014 A 
ATOM     18  C   UNL     1      -7.961  13.457  67.421  0.00  0.00    +0.025 C 
ATOM     19  C   UNL     1     -11.471  13.005  67.961  0.00  0.00    -0.027 C 
ATOM     20  C   UNL     1      -9.145  11.450  66.310  0.00  0.00    +0.042 C 
ATOM     21  C   UNL     1      -7.556  12.175  68.039  0.00  0.00    +0.073 C 
ENDROOT
TORSDOF 0
ENDMDL
