MODEL 1
REMARK VINA RESULT:      -8.5      0.000      0.000
REMARK  Name = 
REMARK  4 active torsions:
REMARK  status: ('A' for Active; 'I' for Inactive)
REMARK    1  A    between atoms: C_8  and  C_9
REMARK    2  A    between atoms: C_9  and  C_10
REMARK    3  A    between atoms: C_10  and  N_11
REMARK    4  A    between atoms: C_14  and  C_15
REMARK                            x       y       z     vdW  Elec       q    Type
REMARK                         _______ _______ _______ _____ _____    ______ ____
ROOT
ATOM      1  N   UNL     1     -10.664  16.953  67.919  0.00  0.00    -0.272 NA
ATOM      2  C   UNL     1     -11.372  16.163  68.869  0.00  0.00    +0.072 C 
ATOM      3  C   UNL     1     -11.561  14.737  68.544  0.00  0.00    +0.023 C 
ATOM      4  C   UNL     1     -10.617  14.122  67.584  0.00  0.00    +0.046 C 
ATOM      5  C   UNL     1      -9.615  15.023  66.964  0.00  0.00    +0.023 C 
ATOM      6  C   UNL     1     -10.376  16.315  66.672  0.00  0.00    +0.072 C 
ENDROOT
BRANCH   4   7
ATOM      7  C   UNL     1     -11.423  13.649  66.415  0.00  0.00    +0.100 A 
ATOM      8  C   UNL     1     -11.079  12.519  65.727  0.00  0.00    +0.054 A 
ATOM      9  C   UNL     1     -11.934  12.507  64.631  0.00  0.00    +0.179 A 
ATOM     10  C   UNL     1     -11.458  11.900  63.476  0.00  0.00    +0.070 A 
ATOM     11  C   UNL     1     -10.533  10.879  63.666  0.00  0.00    +0.143 A 
ATOM     12  C   UNL     1      -9.727  10.822  64.786  0.00  0.00    +0.030 A 
ATOM     13  F   UNL     1     -10.050  10.315  62.535  0.00  0.00    -0.204 F 
ATOM     14  O   UNL     1     -12.832  13.438  64.890  0.00  0.00    -0.354 OA
ATOM     15  C   UNL     1     -10.038  11.634  65.842  0.00  0.00    +0.007 A 
ATOM     16  N   UNL     1     -12.720  13.847  66.130  0.00  0.00    -0.081 NA
ENDBRANCH   4   7
BRANCH   1  17
ATOM     17  C   UNL     1      -9.466  17.526  68.467  0.00  0.00    +0.077 C 
BRANCH  17  18
ATOM     18  C   UNL     1      -9.690  18.999  68.676  0.00  0.00    +0.050 C 
BRANCH  18  21
ATOM     19  C   UNL     1     -10.310  19.951  66.090  0.00  0.00    +0.052 C 
ATOM     20  C   UNL     1      -9.049  19.672  66.457  0.00  0.00    +0.061 A 
ATOM     21  C   UNL     1      -8.777  19.797  67.818  0.00  0.00    +0.049 A 
ATOM     22  C   UNL     1      -7.468  19.895  68.274  0.00  0.00    +0.259 A 
ATOM     23  O   UNL     1      -7.173  19.580  69.460  0.00  0.00    -0.267 OA
ATOM     24  N   UNL     1      -6.538  20.113  67.307  0.00  0.00    -0.282 N 
ATOM     25  C   UNL     1      -5.135  20.144  67.663  0.00  0.00    +0.110 C 
ATOM     26  C   UNL     1      -4.346  20.767  66.551  0.00  0.00    +0.028 C 
ATOM     27  C   UNL     1      -4.592  20.174  65.206  0.00  0.00    +0.043 C 
ATOM     28  C   UNL     1      -5.565  18.857  65.451  0.00  0.00    +0.208 C 
ATOM     29  O   UNL     1      -6.082  18.903  64.018  0.00  0.00    -0.215 OA
ATOM     30  C   UNL     1      -6.764  19.809  66.000  0.00  0.00    +0.153 A 
ATOM     31  N   UNL     1      -8.000  19.467  65.618  0.00  0.00    -0.234 NA
ENDBRANCH  18  21
ENDBRANCH  17  18
ENDBRANCH   1  17
TORSDOF 4
ENDMDL
MODEL 2
REMARK VINA RESULT:      -8.3      5.143      9.807
REMARK  Name = 
REMARK  4 active torsions:
REMARK  status: ('A' for Active; 'I' for Inactive)
REMARK    1  A    between atoms: C_8  and  C_9
REMARK    2  A    between atoms: C_9  and  C_10
REMARK    3  A    between atoms: C_10  and  N_11
REMARK    4  A    between atoms: C_14  and  C_15
REMARK                            x       y       z     vdW  Elec       q    Type
REMARK                         _______ _______ _______ _____ _____    ______ ____
ROOT
ATOM      1  N   UNL     1     -11.649  13.265  67.664  0.00  0.00    -0.272 NA
ATOM      2  C   UNL     1     -10.785  12.853  66.610  0.00  0.00    +0.072 C 
ATOM      3  C   UNL     1      -9.894  13.879  66.037  0.00  0.00    +0.023 C 
ATOM      4  C   UNL     1      -9.576  15.056  66.876  0.00  0.00    +0.046 C 
ATOM      5  C   UNL     1     -10.257  15.142  68.191  0.00  0.00    +0.023 C 
ATOM      6  C   UNL     1     -11.685  14.671  67.924  0.00  0.00    +0.072 C 
ENDROOT
BRANCH   4   7
ATOM      7  C   UNL     1     -10.078  16.264  66.150  0.00  0.00    +0.100 A 
ATOM      8  C   UNL     1      -9.624  17.516  66.455  0.00  0.00    +0.054 A 
ATOM      9  C   UNL     1     -10.433  18.369  65.714  0.00  0.00    +0.179 A 
ATOM     10  C   UNL     1     -10.654  19.634  66.244  0.00  0.00    +0.070 A 
ATOM     11  C   UNL     1      -9.640  20.139  67.049  0.00  0.00    +0.143 A 
ATOM     12  C   UNL     1      -8.768  19.314  67.733  0.00  0.00    +0.030 A 
ATOM     13  F   UNL     1      -9.877  21.358  67.588  0.00  0.00    -0.204 F 
ATOM     14  O   UNL     1     -11.089  17.581  64.884  0.00  0.00    -0.354 OA
ATOM     15  C   UNL     1      -8.743  17.988  67.394  0.00  0.00    +0.007 A 
ATOM     16  N   UNL     1     -10.584  16.371  64.911  0.00  0.00    -0.081 NA
ENDBRANCH   4   7
BRANCH   1  17
ATOM     17  C   UNL     1     -11.408  12.545  68.883  0.00  0.00    +0.077 C 
BRANCH  17  18
ATOM     18  C   UNL     1     -11.905  11.135  68.716  0.00  0.00    +0.050 C 
BRANCH  18  21
ATOM     19  C   UNL     1      -9.725   9.648  67.709  0.00  0.00    +0.052 C 
ATOM     20  C   UNL     1     -10.471   9.202  68.733  0.00  0.00    +0.061 A 
ATOM     21  C   UNL     1     -11.077  10.189  69.508  0.00  0.00    +0.049 A 
ATOM     22  C   UNL     1     -11.561   9.897  70.778  0.00  0.00    +0.259 A 
ATOM     23  O   UNL     1     -12.460  10.607  71.305  0.00  0.00    -0.267 OA
ATOM     24  N   UNL     1     -11.174   8.693  71.276  0.00  0.00    -0.282 N 
ATOM     25  C   UNL     1     -11.692   8.252  72.554  0.00  0.00    +0.110 C 
ATOM     26  C   UNL     1     -10.859   7.119  73.073  0.00  0.00    +0.028 C 
ATOM     27  C   UNL     1     -10.661   6.000  72.108  0.00  0.00    +0.043 C 
ATOM     28  C   UNL     1     -11.622   6.338  70.803  0.00  0.00    +0.208 C 
ATOM     29  O   UNL     1     -10.773   5.471  69.882  0.00  0.00    -0.215 OA
ATOM     30  C   UNL     1     -10.757   7.676  70.475  0.00  0.00    +0.153 A 
ATOM     31  N   UNL     1     -10.532   7.921  69.179  0.00  0.00    -0.234 NA
ENDBRANCH  18  21
ENDBRANCH  17  18
ENDBRANCH   1  17
TORSDOF 4
ENDMDL
MODEL 3
REMARK VINA RESULT:      -8.0      3.370      4.215
REMARK  Name = 
REMARK  4 active torsions:
REMARK  status: ('A' for Active; 'I' for Inactive)
REMARK    1  A    between atoms: C_8  and  C_9
REMARK    2  A    between atoms: C_9  and  C_10
REMARK    3  A    between atoms: C_10  and  N_11
REMARK    4  A    between atoms: C_14  and  C_15
REMARK                            x       y       z     vdW  Elec       q    Type
REMARK                         _______ _______ _______ _____ _____    ______ ____
ROOT
ATOM      1  N   UNL     1     -10.292  14.664  66.294  0.00  0.00    -0.272 NA
ATOM      2  C   UNL     1     -11.378  14.078  65.584  0.00  0.00    +0.072 C 
ATOM      3  C   UNL     1     -12.041  12.921  66.213  0.00  0.00    +0.023 C 
ATOM      4  C   UNL     1     -11.912  12.771  67.680  0.00  0.00    +0.046 C 
ATOM      5  C   UNL     1     -11.048  13.754  68.378  0.00  0.00    +0.023 C 
ATOM      6  C   UNL     1      -9.849  13.950  67.451  0.00  0.00    +0.072 C 
ENDROOT
BRANCH   4   7
ATOM      7  C   UNL     1     -11.220  11.468  67.931  0.00  0.00    +0.100 A 
ATOM      8  C   UNL     1     -11.510  10.710  69.030  0.00  0.00    +0.054 A 
ATOM      9  C   UNL     1     -10.562   9.694  69.011  0.00  0.00    +0.179 A 
ATOM     10  C   UNL     1     -10.191   9.165  70.241  0.00  0.00    +0.070 A 
ATOM     11  C   UNL     1     -11.159   9.215  71.239  0.00  0.00    +0.143 A 
ATOM     12  C   UNL     1     -12.162  10.165  71.238  0.00  0.00    +0.030 A 
ATOM     13  F   UNL     1     -10.778   8.728  72.442  0.00  0.00    -0.204 F 
ATOM     14  O   UNL     1      -9.988   9.786  67.827  0.00  0.00    -0.354 OA
ATOM     15  C   UNL     1     -12.355  10.892  70.095  0.00  0.00    +0.007 A 
ATOM     16  N   UNL     1     -10.654  10.615  67.062  0.00  0.00    -0.081 NA
ENDBRANCH   4   7
BRANCH   1  17
ATOM     17  C   UNL     1     -10.534  16.040  66.628  0.00  0.00    +0.077 C 
BRANCH  17  18
ATOM     18  C   UNL     1      -9.363  16.862  66.162  0.00  0.00    +0.050 C 
BRANCH  18  21
ATOM     19  C   UNL     1     -10.348  19.508  66.180  0.00  0.00    +0.052 C 
ATOM     20  C   UNL     1      -9.146  19.199  66.691  0.00  0.00    +0.061 A 
ATOM     21  C   UNL     1      -9.013  17.897  67.168  0.00  0.00    +0.049 A 
ATOM     22  C   UNL     1      -7.977  17.560  68.032  0.00  0.00    +0.259 A 
ATOM     23  O   UNL     1      -7.583  16.366  68.130  0.00  0.00    -0.267 OA
ATOM     24  N   UNL     1      -7.296  18.615  68.551  0.00  0.00    -0.282 N 
ATOM     25  C   UNL     1      -6.143  18.374  69.392  0.00  0.00    +0.110 C 
ATOM     26  C   UNL     1      -5.797  19.623  70.145  0.00  0.00    +0.028 C 
ATOM     27  C   UNL     1      -5.654  20.840  69.298  0.00  0.00    +0.043 C 
ATOM     28  C   UNL     1      -5.760  20.327  67.727  0.00  0.00    +0.208 C 
ATOM     29  O   UNL     1      -6.190  21.707  67.246  0.00  0.00    -0.215 OA
ATOM     30  C   UNL     1      -7.294  19.840  67.958  0.00  0.00    +0.153 A 
ATOM     31  N   UNL     1      -8.138  20.073  66.946  0.00  0.00    -0.234 NA
ENDBRANCH  18  21
ENDBRANCH  17  18
ENDBRANCH   1  17
TORSDOF 4
ENDMDL
MODEL 4
REMARK VINA RESULT:      -7.9      5.412     10.086
REMARK  Name = 
REMARK  4 active torsions:
REMARK  status: ('A' for Active; 'I' for Inactive)
REMARK    1  A    between atoms: C_8  and  C_9
REMARK    2  A    between atoms: C_9  and  C_10
REMARK    3  A    between atoms: C_10  and  N_11
REMARK    4  A    between atoms: C_14  and  C_15
REMARK                            x       y       z     vdW  Elec       q    Type
REMARK                         _______ _______ _______ _____ _____    ______ ____
ROOT
ATOM      1  N   UNL     1     -10.866  12.337  67.405  0.00  0.00    -0.272 NA
ATOM      2  C   UNL     1      -9.666  12.722  68.067  0.00  0.00    +0.072 C 
ATOM      3  C   UNL     1      -9.461  14.166  68.290  0.00  0.00    +0.023 C 
ATOM      4  C   UNL     1     -10.658  15.035  68.301  0.00  0.00    +0.046 C 
ATOM      5  C   UNL     1     -11.957  14.386  67.996  0.00  0.00    +0.023 C 
ATOM      6  C   UNL     1     -11.650  13.405  66.867  0.00  0.00    +0.072 C 
ENDROOT
BRANCH   4   7
ATOM      7  C   UNL     1     -10.498  16.020  67.186  0.00  0.00    +0.100 A 
ATOM      8  C   UNL     1     -10.014  17.278  67.413  0.00  0.00    +0.054 A 
ATOM      9  C   UNL     1     -10.179  17.937  66.201  0.00  0.00    +0.179 A 
ATOM     10  C   UNL     1     -10.377  19.311  66.262  0.00  0.00    +0.070 A 
ATOM     11  C   UNL     1      -9.804  19.959  67.351  0.00  0.00    +0.143 A 
ATOM     12  C   UNL     1      -9.554  19.306  68.542  0.00  0.00    +0.030 A 
ATOM     13  F   UNL     1     -10.030  21.291  67.419  0.00  0.00    -0.204 F 
ATOM     14  O   UNL     1     -10.489  16.990  65.337  0.00  0.00    -0.354 OA
ATOM     15  C   UNL     1      -9.626  17.939  68.551  0.00  0.00    +0.007 A 
ATOM     16  N   UNL     1     -10.308  15.808  65.874  0.00  0.00    -0.081 NA
ENDBRANCH   4   7
BRANCH   1  17
ATOM     17  C   UNL     1     -11.690  11.483  68.215  0.00  0.00    +0.077 C 
BRANCH  17  18
ATOM     18  C   UNL     1     -10.894  11.044  69.415  0.00  0.00    +0.050 C 
BRANCH  18  21
ATOM     19  C   UNL     1     -12.842  10.627  71.417  0.00  0.00    +0.052 C 
ATOM     20  C   UNL     1     -11.858   9.741  71.194  0.00  0.00    +0.061 A 
ATOM     21  C   UNL     1     -11.356   9.716  69.894  0.00  0.00    +0.049 A 
ATOM     22  C   UNL     1     -10.616   8.630  69.440  0.00  0.00    +0.259 A 
ATOM     23  O   UNL     1      -9.815   8.755  68.474  0.00  0.00    -0.267 OA
ATOM     24  N   UNL     1     -10.647   7.537  70.246  0.00  0.00    -0.282 N 
ATOM     25  C   UNL     1      -9.841   6.382  69.912  0.00  0.00    +0.110 C 
ATOM     26  C   UNL     1     -10.313   5.192  70.692  0.00  0.00    +0.028 C 
ATOM     27  C   UNL     1     -10.425   5.418  72.161  0.00  0.00    +0.043 C 
ATOM     28  C   UNL     1      -9.791   6.919  72.450  0.00  0.00    +0.208 C 
ATOM     29  O   UNL     1     -10.576   7.063  73.747  0.00  0.00    -0.215 OA
ATOM     30  C   UNL     1     -10.965   7.617  71.567  0.00  0.00    +0.153 A 
ATOM     31  N   UNL     1     -11.450   8.768  72.048  0.00  0.00    -0.234 NA
ENDBRANCH  18  21
ENDBRANCH  17  18
ENDBRANCH   1  17
TORSDOF 4
ENDMDL
MODEL 5
REMARK VINA RESULT:      -7.5      3.607      4.915
REMARK  Name = 
REMARK  4 active torsions:
REMARK  status: ('A' for Active; 'I' for Inactive)
REMARK    1  A    between atoms: C_8  and  C_9
REMARK    2  A    between atoms: C_9  and  C_10
REMARK    3  A    between atoms: C_10  and  N_11
REMARK    4  A    between atoms: C_14  and  C_15
REMARK                            x       y       z     vdW  Elec       q    Type
REMARK                         _______ _______ _______ _____ _____    ______ ____
ROOT
ATOM      1  N   UNL     1      -8.563  17.287  66.106  0.00  0.00    -0.272 NA
ATOM      2  C   UNL     1      -9.635  18.194  66.337  0.00  0.00    +0.072 C 
ATOM      3  C   UNL     1     -10.536  17.890  67.465  0.00  0.00    +0.023 C 
ATOM      4  C   UNL     1     -10.013  17.027  68.547  0.00  0.00    +0.046 C 
ATOM      5  C   UNL     1      -8.652  16.469  68.356  0.00  0.00    +0.023 C 
ATOM      6  C   UNL     1      -8.589  16.084  66.879  0.00  0.00    +0.072 C 
ENDROOT
BRANCH   4   7
ATOM      7  C   UNL     1     -10.879  15.807  68.596  0.00  0.00    +0.100 A 
ATOM      8  C   UNL     1     -11.651  15.529  69.689  0.00  0.00    +0.054 A 
ATOM      9  C   UNL     1     -12.157  14.259  69.441  0.00  0.00    +0.179 A 
ATOM     10  C   UNL     1     -12.433  13.470  70.552  0.00  0.00    +0.070 A 
ATOM     11  C   UNL     1     -12.773  14.156  71.712  0.00  0.00    +0.143 A 
ATOM     12  C   UNL     1     -12.352  15.451  71.947  0.00  0.00    +0.030 A 
ATOM     13  F   UNL     1     -13.008  13.383  72.797  0.00  0.00    -0.204 F 
ATOM     14  O   UNL     1     -11.865  14.016  68.178  0.00  0.00    -0.354 OA
ATOM     15  C   UNL     1     -11.818  16.151  70.900  0.00  0.00    +0.007 A 
ATOM     16  N   UNL     1     -11.431  15.106  67.594  0.00  0.00    -0.081 NA
ENDBRANCH   4   7
BRANCH   1  17
ATOM     17  C   UNL     1      -7.277  17.917  66.220  0.00  0.00    +0.077 C 
BRANCH  17  18
ATOM     18  C   UNL     1      -7.462  19.407  66.128  0.00  0.00    +0.050 C 
BRANCH  18  21
ATOM     19  C   UNL     1      -4.956  20.325  65.203  0.00  0.00    +0.052 C 
ATOM     20  C   UNL     1      -5.149  19.968  66.483  0.00  0.00    +0.061 A 
ATOM     21  C   UNL     1      -6.451  20.113  66.957  0.00  0.00    +0.049 A 
ATOM     22  C   UNL     1      -6.711  20.132  68.322  0.00  0.00    +0.259 A 
ATOM     23  O   UNL     1      -7.854  19.833  68.765  0.00  0.00    -0.267 OA
ATOM     24  N   UNL     1      -5.614  20.257  69.114  0.00  0.00    -0.282 N 
ATOM     25  C   UNL     1      -5.765  20.199  70.553  0.00  0.00    +0.110 C 
ATOM     26  C   UNL     1      -4.528  20.733  71.212  0.00  0.00    +0.028 C 
ATOM     27  C   UNL     1      -3.256  20.120  70.735  0.00  0.00    +0.043 C 
ATOM     28  C   UNL     1      -3.688  18.882  69.723  0.00  0.00    +0.208 C 
ATOM     29  O   UNL     1      -2.344  18.923  69.008  0.00  0.00    -0.215 OA
ATOM     30  C   UNL     1      -4.366  19.931  68.681  0.00  0.00    +0.153 A 
ATOM     31  N   UNL     1      -4.178  19.666  67.383  0.00  0.00    -0.234 NA
ENDBRANCH  18  21
ENDBRANCH  17  18
ENDBRANCH   1  17
TORSDOF 4
ENDMDL
MODEL 6
REMARK VINA RESULT:      -7.3      3.758      8.655
REMARK  Name = 
REMARK  4 active torsions:
REMARK  status: ('A' for Active; 'I' for Inactive)
REMARK    1  A    between atoms: C_8  and  C_9
REMARK    2  A    between atoms: C_9  and  C_10
REMARK    3  A    between atoms: C_10  and  N_11
REMARK    4  A    between atoms: C_14  and  C_15
REMARK                            x       y       z     vdW  Elec       q    Type
REMARK                         _______ _______ _______ _____ _____    ______ ____
ROOT
ATOM      1  N   UNL     1     -10.058  12.775  67.558  0.00  0.00    -0.272 NA
ATOM      2  C   UNL     1     -11.457  12.996  67.416  0.00  0.00    +0.072 C 
ATOM      3  C   UNL     1     -11.897  14.391  67.227  0.00  0.00    +0.023 C 
ATOM      4  C   UNL     1     -10.909  15.355  66.695  0.00  0.00    +0.046 C 
ATOM      5  C   UNL     1      -9.531  14.849  66.482  0.00  0.00    +0.023 C 
ATOM      6  C   UNL     1      -9.253  13.950  67.685  0.00  0.00    +0.072 C 
ENDROOT
BRANCH   4   7
ATOM      7  C   UNL     1     -10.727  16.419  67.732  0.00  0.00    +0.100 A 
ATOM      8  C   UNL     1     -10.376  17.694  67.387  0.00  0.00    +0.054 A 
ATOM      9  C   UNL     1     -10.132  18.326  68.601  0.00  0.00    +0.179 A 
ATOM     10  C   UNL     1      -9.201  19.357  68.590  0.00  0.00    +0.070 A 
ATOM     11  C   UNL     1      -9.079  20.050  67.391  0.00  0.00    +0.143 A 
ATOM     12  C   UNL     1      -9.392  19.472  66.176  0.00  0.00    +0.030 A 
ATOM     13  F   UNL     1      -8.147  21.031  67.379  0.00  0.00    -0.204 F 
ATOM     14  O   UNL     1     -10.585  17.492  69.517  0.00  0.00    -0.354 OA
ATOM     15  C   UNL     1     -10.086  18.293  66.188  0.00  0.00    +0.007 A 
ATOM     16  N   UNL     1     -11.272  16.527  68.954  0.00  0.00    -0.081 NA
ENDBRANCH   4   7
BRANCH   1  17
ATOM     17  C   UNL     1      -9.530  11.926  66.527  0.00  0.00    +0.077 C 
BRANCH  17  18
ATOM     18  C   UNL     1     -10.678  11.278  65.801  0.00  0.00    +0.050 C 
BRANCH  18  21
ATOM     19  C   UNL     1     -10.003   8.597  66.376  0.00  0.00    +0.052 C 
ATOM     20  C   UNL     1      -9.416   9.274  65.376  0.00  0.00    +0.061 A 
ATOM     21  C   UNL     1     -10.182  10.290  64.809  0.00  0.00    +0.049 A 
ATOM     22  C   UNL     1      -9.856  10.813  63.562  0.00  0.00    +0.259 A 
ATOM     23  O   UNL     1     -10.235  11.969  63.230  0.00  0.00    -0.267 OA
ATOM     24  N   UNL     1      -8.932  10.101  62.866  0.00  0.00    -0.282 N 
ATOM     25  C   UNL     1      -8.456  10.605  61.595  0.00  0.00    +0.110 C 
ATOM     26  C   UNL     1      -7.762   9.508  60.844  0.00  0.00    +0.028 C 
ATOM     27  C   UNL     1      -6.707   8.796  61.620  0.00  0.00    +0.043 C 
ATOM     28  C   UNL     1      -6.542   9.621  63.046  0.00  0.00    +0.208 C 
ATOM     29  O   UNL     1      -5.962   8.401  63.750  0.00  0.00    -0.215 OA
ATOM     30  C   UNL     1      -8.066   9.245  63.473  0.00  0.00    +0.153 A 
ATOM     31  N   UNL     1      -8.251   8.942  64.763  0.00  0.00    -0.234 NA
ENDBRANCH  18  21
ENDBRANCH  17  18
ENDBRANCH   1  17
TORSDOF 4
ENDMDL
MODEL 7
REMARK VINA RESULT:      -7.3      5.705      7.196
REMARK  Name = 
REMARK  4 active torsions:
REMARK  status: ('A' for Active; 'I' for Inactive)
REMARK    1  A    between atoms: C_8  and  C_9
REMARK    2  A    between atoms: C_9  and  C_10
REMARK    3  A    between atoms: C_10  and  N_11
REMARK    4  A    between atoms: C_14  and  C_15
REMARK                            x       y       z     vdW  Elec       q    Type
REMARK                         _______ _______ _______ _____ _____    ______ ____
ROOT
ATOM      1  N   UNL     1     -11.603  10.936  68.746  0.00  0.00    -0.272 NA
ATOM      2  C   UNL     1     -12.471  11.389  69.780  0.00  0.00    +0.072 C 
ATOM      3  C   UNL     1     -12.457  10.629  71.044  0.00  0.00    +0.023 C 
ATOM      4  C   UNL     1     -11.252   9.827  71.349  0.00  0.00    +0.046 C 
ATOM      5  C   UNL     1     -10.195   9.788  70.308  0.00  0.00    +0.023 C 
ATOM      6  C   UNL     1     -10.952   9.686  68.985  0.00  0.00    +0.072 C 
ENDROOT
BRANCH   4   7
ATOM      7  C   UNL     1     -11.686   8.399  71.450  0.00  0.00    +0.100 A 
ATOM      8  C   UNL     1     -11.114   7.544  72.350  0.00  0.00    +0.054 A 
ATOM      9  C   UNL     1     -11.638   6.298  72.027  0.00  0.00    +0.179 A 
ATOM     10  C   UNL     1     -10.837   5.196  72.301  0.00  0.00    +0.070 A 
ATOM     11  C   UNL     1      -9.950   5.340  73.361  0.00  0.00    +0.143 A 
ATOM     12  C   UNL     1      -9.476   6.576  73.756  0.00  0.00    +0.030 A 
ATOM     13  F   UNL     1      -9.151   4.274  73.599  0.00  0.00    -0.204 F 
ATOM     14  O   UNL     1     -12.616   6.550  71.179  0.00  0.00    -0.354 OA
ATOM     15  C   UNL     1     -10.102   7.689  73.264  0.00  0.00    +0.007 A 
ATOM     16  N   UNL     1     -12.865   7.836  71.139  0.00  0.00    -0.081 NA
ENDBRANCH   4   7
BRANCH   1  17
ATOM     17  C   UNL     1     -10.637  11.929  68.366  0.00  0.00    +0.077 C 
BRANCH  17  18
ATOM     18  C   UNL     1     -11.369  13.168  67.925  0.00  0.00    +0.050 C 
BRANCH  18  21
ATOM     19  C   UNL     1     -11.915  14.999  70.005  0.00  0.00    +0.052 C 
ATOM     20  C   UNL     1     -11.299  15.378  68.874  0.00  0.00    +0.061 A 
ATOM     21  C   UNL     1     -10.570  14.384  68.225  0.00  0.00    +0.049 A 
ATOM     22  C   UNL     1      -9.611  14.714  67.273  0.00  0.00    +0.259 A 
ATOM     23  O   UNL     1      -9.263  13.880  66.393  0.00  0.00    -0.267 OA
ATOM     24  N   UNL     1      -9.279  16.030  67.226  0.00  0.00    -0.282 N 
ATOM     25  C   UNL     1      -8.355  16.495  66.213  0.00  0.00    +0.110 C 
ATOM     26  C   UNL     1      -7.846  17.857  66.580  0.00  0.00    +0.028 C 
ATOM     27  C   UNL     1      -8.909  18.852  66.899  0.00  0.00    +0.043 C 
ATOM     28  C   UNL     1     -10.351  18.119  66.550  0.00  0.00    +0.208 C 
ATOM     29  O   UNL     1     -11.112  19.039  67.496  0.00  0.00    -0.215 OA
ATOM     30  C   UNL     1     -10.099  17.004  67.706  0.00  0.00    +0.153 A 
ATOM     31  N   UNL     1     -11.174  16.652  68.421  0.00  0.00    -0.234 NA
ENDBRANCH  18  21
ENDBRANCH  17  18
ENDBRANCH   1  17
TORSDOF 4
ENDMDL
MODEL 8
REMARK VINA RESULT:      -7.3      1.470      2.219
REMARK  Name = 
REMARK  4 active torsions:
REMARK  status: ('A' for Active; 'I' for Inactive)
REMARK    1  A    between atoms: C_8  and  C_9
REMARK    2  A    between atoms: C_9  and  C_10
REMARK    3  A    between atoms: C_10  and  N_11
REMARK    4  A    between atoms: C_14  and  C_15
REMARK                            x       y       z     vdW  Elec       q    Type
REMARK                         _______ _______ _______ _____ _____    ______ ____
ROOT
ATOM      1  N   UNL     1      -9.957  16.654  67.831  0.00  0.00    -0.272 NA
ATOM      2  C   UNL     1     -11.097  16.318  68.616  0.00  0.00    +0.072 C 
ATOM      3  C   UNL     1     -11.744  15.023  68.331  0.00  0.00    +0.023 C 
ATOM      4  C   UNL     1     -10.929  13.979  67.672  0.00  0.00    +0.046 C 
ATOM      5  C   UNL     1      -9.552  14.360  67.273  0.00  0.00    +0.023 C 
ATOM      6  C   UNL     1      -9.679  15.783  66.732  0.00  0.00    +0.072 C 
ENDROOT
BRANCH   4   7
ATOM      7  C   UNL     1     -11.588  13.664  66.366  0.00  0.00    +0.100 A 
ATOM      8  C   UNL     1     -11.287  12.524  65.675  0.00  0.00    +0.054 A 
ATOM      9  C   UNL     1     -11.946  12.669  64.461  0.00  0.00    +0.179 A 
ATOM     10  C   UNL     1     -11.371  12.044  63.361  0.00  0.00    +0.070 A 
ATOM     11  C   UNL     1     -10.630  10.900  63.634  0.00  0.00    +0.143 A 
ATOM     12  C   UNL     1     -10.031  10.691  64.861  0.00  0.00    +0.030 A 
ATOM     13  F   UNL     1     -10.047  10.316  62.561  0.00  0.00    -0.204 F 
ATOM     14  O   UNL     1     -12.746  13.705  64.629  0.00  0.00    -0.354 OA
ATOM     15  C   UNL     1     -10.402  11.500  65.901  0.00  0.00    +0.007 A 
ATOM     16  N   UNL     1     -12.785  14.049  65.893  0.00  0.00    -0.081 NA
ENDBRANCH   4   7
BRANCH   1  17
ATOM     17  C   UNL     1      -8.776  16.832  68.629  0.00  0.00    +0.077 C 
BRANCH  17  18
ATOM     18  C   UNL     1      -8.292  18.247  68.465  0.00  0.00    +0.050 C 
BRANCH  18  21
ATOM     19  C   UNL     1      -5.680  17.732  69.405  0.00  0.00    +0.052 C 
ATOM     20  C   UNL     1      -5.908  18.555  68.369  0.00  0.00    +0.061 A 
ATOM     21  C   UNL     1      -7.062  18.289  67.634  0.00  0.00    +0.049 A 
ATOM     22  C   UNL     1      -7.225  18.812  66.356  0.00  0.00    +0.259 A 
ATOM     23  O   UNL     1      -8.377  18.955  65.861  0.00  0.00    -0.267 OA
ATOM     24  N   UNL     1      -6.106  19.357  65.811  0.00  0.00    -0.282 N 
ATOM     25  C   UNL     1      -6.187  20.007  64.521  0.00  0.00    +0.110 C 
ATOM     26  C   UNL     1      -4.810  20.182  63.956  0.00  0.00    +0.028 C 
ATOM     27  C   UNL     1      -3.838  20.837  64.877  0.00  0.00    +0.043 C 
ATOM     28  C   UNL     1      -4.708  21.323  66.199  0.00  0.00    +0.208 C 
ATOM     29  O   UNL     1      -3.467  21.334  67.082  0.00  0.00    -0.215 OA
ATOM     30  C   UNL     1      -5.060  19.780  66.572  0.00  0.00    +0.153 A 
ATOM     31  N   UNL     1      -5.042  19.477  67.876  0.00  0.00    -0.234 NA
ENDBRANCH  18  21
ENDBRANCH  17  18
ENDBRANCH   1  17
TORSDOF 4
ENDMDL
MODEL 9
REMARK VINA RESULT:      -7.2      4.519      9.587
REMARK  Name = 
REMARK  4 active torsions:
REMARK  status: ('A' for Active; 'I' for Inactive)
REMARK    1  A    between atoms: C_8  and  C_9
REMARK    2  A    between atoms: C_9  and  C_10
REMARK    3  A    between atoms: C_10  and  N_11
REMARK    4  A    between atoms: C_14  and  C_15
REMARK                            x       y       z     vdW  Elec       q    Type
REMARK                         _______ _______ _______ _____ _____    ______ ____
ROOT
ATOM      1  N   UNL     1     -10.971  13.484  66.847  0.00  0.00    -0.272 NA
ATOM      2  C   UNL     1     -11.490  14.205  65.735  0.00  0.00    +0.072 C 
ATOM      3  C   UNL     1     -10.932  15.548  65.491  0.00  0.00    +0.023 C 
ATOM      4  C   UNL     1      -9.590  15.843  66.039  0.00  0.00    +0.046 C 
ATOM      5  C   UNL     1      -8.960  14.785  66.866  0.00  0.00    +0.023 C 
ATOM      6  C   UNL     1     -10.098  14.217  67.711  0.00  0.00    +0.072 C 
ENDROOT
BRANCH   4   7
ATOM      7  C   UNL     1      -9.745  16.980  66.999  0.00  0.00    +0.100 A 
ATOM      8  C   UNL     1      -8.857  18.019  67.019  0.00  0.00    +0.054 A 
ATOM      9  C   UNL     1      -9.221  18.765  68.133  0.00  0.00    +0.179 A 
ATOM     10  C   UNL     1      -8.206  19.469  68.770  0.00  0.00    +0.070 A 
ATOM     11  C   UNL     1      -7.148  19.870  67.962  0.00  0.00    +0.143 A 
ATOM     12  C   UNL     1      -6.815  19.194  66.804  0.00  0.00    +0.030 A 
ATOM     13  F   UNL     1      -6.149  20.527  68.596  0.00  0.00    -0.204 F 
ATOM     14  O   UNL     1     -10.387  18.274  68.506  0.00  0.00    -0.354 OA
ATOM     15  C   UNL     1      -7.710  18.283  66.314  0.00  0.00    +0.007 A 
ATOM     16  N   UNL     1     -10.851  17.459  67.590  0.00  0.00    -0.081 NA
ENDBRANCH   4   7
BRANCH   1  17
ATOM     17  C   UNL     1     -10.353  12.246  66.459  0.00  0.00    +0.077 C 
BRANCH  17  18
ATOM     18  C   UNL     1     -11.224  11.108  66.918  0.00  0.00    +0.050 C 
BRANCH  18  21
ATOM     19  C   UNL     1      -9.622   8.910  66.157  0.00  0.00    +0.052 C 
ATOM     20  C   UNL     1     -10.247   8.951  67.344  0.00  0.00    +0.061 A 
ATOM     21  C   UNL     1     -10.483  10.226  67.855  0.00  0.00    +0.049 A 
ATOM     22  C   UNL     1     -10.781  10.407  69.202  0.00  0.00    +0.259 A 
ATOM     23  O   UNL     1     -11.401  11.433  69.592  0.00  0.00    -0.267 OA
ATOM     24  N   UNL     1     -10.571   9.318  69.987  0.00  0.00    -0.282 N 
ATOM     25  C   UNL     1     -10.931   9.371  71.388  0.00  0.00    +0.110 C 
ATOM     26  C   UNL     1     -10.274   8.241  72.122  0.00  0.00    +0.028 C 
ATOM     27  C   UNL     1     -10.493   6.897  71.516  0.00  0.00    +0.043 C 
ATOM     28  C   UNL     1     -11.580   7.113  70.287  0.00  0.00    +0.208 C 
ATOM     29  O   UNL     1     -11.111   5.850  69.575  0.00  0.00    -0.215 OA
ATOM     30  C   UNL     1     -10.528   8.055  69.481  0.00  0.00    +0.153 A 
ATOM     31  N   UNL     1     -10.494   7.889  68.154  0.00  0.00    -0.234 NA
ENDBRANCH  18  21
ENDBRANCH  17  18
ENDBRANCH   1  17
TORSDOF 4
ENDMDL
