MODEL 1
REMARK VINA RESULT:      -7.5      0.000      0.000
REMARK  Name = 
REMARK  3 active torsions:
REMARK  status: ('A' for Active; 'I' for Inactive)
REMARK    1  A    between atoms: N_2  and  C_4
REMARK    2  A    between atoms: C_4  and  C_5
REMARK    3  A    between atoms: C_5  and  C_6
REMARK                            x       y       z     vdW  Elec       q    Type
REMARK                         _______ _______ _______ _____ _____    ______ ____
ROOT
ATOM      1  C   UNL     1     -12.127  11.081  69.835  0.00  0.00    -0.025 C 
ATOM      2  C   UNL     1     -11.830  12.327  69.495  0.00  0.00    -0.001 C 
ATOM      3  C   UNL     1     -11.667  12.530  68.048  0.00  0.00    +0.034 A 
ATOM      4  C   UNL     1     -11.870  13.715  67.349  0.00  0.00    +0.139 A 
ATOM      5  C   UNL     1     -11.929  13.708  65.977  0.00  0.00    +0.037 A 
ATOM      6  C   UNL     1     -11.479  12.568  65.327  0.00  0.00    +0.003 A 
ATOM      7  C   UNL     1     -10.943  11.524  66.059  0.00  0.00    +0.000 A 
ATOM      8  O   UNL     1     -12.010  14.985  67.919  0.00  0.00    -0.471 OA
ATOM      9  C   UNL     1     -11.652  15.464  69.213  0.00  0.00    +0.232 C 
ATOM     10  C   UNL     1     -12.315  14.661  70.288  0.00  0.00    +0.021 A 
ATOM     11  C   UNL     1     -12.953  15.446  71.232  0.00  0.00    -0.001 A 
ATOM     12  C   UNL     1     -14.008  14.857  71.917  0.00  0.00    -0.000 A 
ATOM     13  C   UNL     1     -13.778  13.547  72.324  0.00  0.00    -0.000 A 
ATOM     14  C   UNL     1     -13.016  12.697  71.530  0.00  0.00    -0.000 A 
ATOM     15  C   UNL     1     -11.279  11.374  67.399  0.00  0.00    +0.003 A 
ATOM     16  C   UNL     1     -12.282  13.288  70.510  0.00  0.00    -0.001 A 
ENDROOT
BRANCH   1  17
ATOM     17  C   UNL     1     -12.427  10.676  71.243  0.00  0.00    +0.043 C 
BRANCH  17  18
ATOM     18  C   UNL     1     -11.705   9.353  71.441  0.00  0.00    +0.077 C 
BRANCH  18  20
ATOM     19  C   UNL     1     -13.823   8.919  72.290  0.00  0.00    +0.090 C 
ATOM     20  N   UNL     1     -12.443   8.432  72.265  0.00  0.00    -0.270 NA
ATOM     21  C   UNL     1     -12.508   7.099  71.679  0.00  0.00    +0.090 C 
ENDBRANCH  18  20
ENDBRANCH  17  18
ENDBRANCH   1  17
TORSDOF 3
ENDMDL
MODEL 2
REMARK VINA RESULT:      -7.3      3.124      5.713
REMARK  Name = 
REMARK  3 active torsions:
REMARK  status: ('A' for Active; 'I' for Inactive)
REMARK    1  A    between atoms: N_2  and  C_4
REMARK    2  A    between atoms: C_4  and  C_5
REMARK    3  A    between atoms: C_5  and  C_6
REMARK                            x       y       z     vdW  Elec       q    Type
REMARK                         _______ _______ _______ _____ _____    ______ ____
ROOT
ATOM      1  C   UNL     1     -11.357  14.742  68.826  0.00  0.00    -0.025 C 
ATOM      2  C   UNL     1     -12.051  13.908  69.586  0.00  0.00    -0.001 C 
ATOM      3  C   UNL     1     -11.786  12.488  69.313  0.00  0.00    +0.034 A 
ATOM      4  C   UNL     1     -11.919  11.432  70.208  0.00  0.00    +0.139 A 
ATOM      5  C   UNL     1     -11.402  10.197  69.903  0.00  0.00    +0.037 A 
ATOM      6  C   UNL     1     -11.036   9.968  68.585  0.00  0.00    +0.003 A 
ATOM      7  C   UNL     1     -11.253  10.945  67.631  0.00  0.00    +0.000 A 
ATOM      8  O   UNL     1     -12.571  11.487  71.444  0.00  0.00    -0.471 OA
ATOM      9  C   UNL     1     -13.522  12.423  71.948  0.00  0.00    +0.232 C 
ATOM     10  C   UNL     1     -12.976  13.816  71.920  0.00  0.00    +0.021 A 
ATOM     11  C   UNL     1     -13.126  14.478  73.125  0.00  0.00    -0.001 A 
ATOM     12  C   UNL     1     -12.222  15.500  73.387  0.00  0.00    -0.000 A 
ATOM     13  C   UNL     1     -11.956  16.333  72.306  0.00  0.00    -0.000 A 
ATOM     14  C   UNL     1     -11.930  15.811  71.018  0.00  0.00    -0.000 A 
ATOM     15  C   UNL     1     -11.363  12.276  68.015  0.00  0.00    +0.003 A 
ATOM     16  C   UNL     1     -12.457  14.537  70.849  0.00  0.00    -0.001 A 
ENDROOT
BRANCH   1  17
ATOM     17  C   UNL     1     -11.404  16.226  69.001  0.00  0.00    +0.043 C 
BRANCH  17  18
ATOM     18  C   UNL     1     -10.748  16.798  67.754  0.00  0.00    +0.077 C 
BRANCH  18  20
ATOM     19  C   UNL     1      -9.744  18.685  68.664  0.00  0.00    +0.090 C 
ATOM     20  N   UNL     1     -10.770  18.236  67.722  0.00  0.00    -0.270 NA
ATOM     21  C   UNL     1     -10.368  18.765  66.424  0.00  0.00    +0.090 C 
ENDBRANCH  18  20
ENDBRANCH  17  18
ENDBRANCH   1  17
TORSDOF 3
ENDMDL
MODEL 3
REMARK VINA RESULT:      -7.3      3.419      7.254
REMARK  Name = 
REMARK  3 active torsions:
REMARK  status: ('A' for Active; 'I' for Inactive)
REMARK    1  A    between atoms: N_2  and  C_4
REMARK    2  A    between atoms: C_4  and  C_5
REMARK    3  A    between atoms: C_5  and  C_6
REMARK                            x       y       z     vdW  Elec       q    Type
REMARK                         _______ _______ _______ _____ _____    ______ ____
ROOT
ATOM      1  C   UNL     1     -11.127  16.380  69.220  0.00  0.00    -0.025 C 
ATOM      2  C   UNL     1     -11.222  15.101  69.551  0.00  0.00    -0.001 C 
ATOM      3  C   UNL     1     -11.887  14.863  70.840  0.00  0.00    +0.034 A 
ATOM      4  C   UNL     1     -12.584  13.720  71.215  0.00  0.00    +0.139 A 
ATOM      5  C   UNL     1     -13.367  13.725  72.344  0.00  0.00    +0.037 A 
ATOM      6  C   UNL     1     -13.193  14.774  73.233  0.00  0.00    +0.003 A 
ATOM      7  C   UNL     1     -12.218  15.726  72.993  0.00  0.00    +0.000 A 
ATOM      8  O   UNL     1     -12.560  12.492  70.544  0.00  0.00    -0.471 OA
ATOM      9  C   UNL     1     -11.630  11.973  69.597  0.00  0.00    +0.232 C 
ATOM     10  C   UNL     1     -11.504  12.879  68.412  0.00  0.00    +0.021 A 
ATOM     11  C   UNL     1     -11.633  12.212  67.207  0.00  0.00    -0.001 A 
ATOM     12  C   UNL     1     -12.069  12.966  66.125  0.00  0.00    -0.000 A 
ATOM     13  C   UNL     1     -11.491  14.226  66.022  0.00  0.00    -0.000 A 
ATOM     14  C   UNL     1     -11.170  14.938  67.172  0.00  0.00    -0.000 A 
ATOM     15  C   UNL     1     -11.761  15.938  71.698  0.00  0.00    +0.003 A 
ATOM     16  C   UNL     1     -11.180  14.231  68.368  0.00  0.00    -0.001 A 
ENDROOT
BRANCH   1  17
ATOM     17  C   UNL     1     -10.571  16.839  67.910  0.00  0.00    +0.043 C 
BRANCH  17  18
ATOM     18  C   UNL     1     -10.027  18.234  68.172  0.00  0.00    +0.077 C 
BRANCH  18  20
ATOM     19  C   UNL     1      -9.910  20.476  67.577  0.00  0.00    +0.090 C 
ATOM     20  N   UNL     1     -10.673  19.244  67.376  0.00  0.00    -0.270 NA
ATOM     21  C   UNL     1     -10.589  18.958  65.949  0.00  0.00    +0.090 C 
ENDBRANCH  18  20
ENDBRANCH  17  18
ENDBRANCH   1  17
TORSDOF 3
ENDMDL
MODEL 4
REMARK VINA RESULT:      -6.9      3.212      5.711
REMARK  Name = 
REMARK  3 active torsions:
REMARK  status: ('A' for Active; 'I' for Inactive)
REMARK    1  A    between atoms: N_2  and  C_4
REMARK    2  A    between atoms: C_4  and  C_5
REMARK    3  A    between atoms: C_5  and  C_6
REMARK                            x       y       z     vdW  Elec       q    Type
REMARK                         _______ _______ _______ _____ _____    ______ ____
ROOT
ATOM      1  C   UNL     1     -11.286  15.732  69.461  0.00  0.00    -0.025 C 
ATOM      2  C   UNL     1     -11.185  15.921  68.154  0.00  0.00    -0.001 C 
ATOM      3  C   UNL     1     -10.264  17.002  67.774  0.00  0.00    +0.034 A 
ATOM      4  C   UNL     1      -9.560  17.110  66.580  0.00  0.00    +0.139 A 
ATOM      5  C   UNL     1      -8.548  18.031  66.454  0.00  0.00    +0.037 A 
ATOM      6  C   UNL     1      -8.469  19.025  67.418  0.00  0.00    +0.003 A 
ATOM      7  C   UNL     1      -9.424  19.093  68.417  0.00  0.00    +0.000 A 
ATOM      8  O   UNL     1      -9.793  16.358  65.424  0.00  0.00    -0.471 OA
ATOM      9  C   UNL     1     -10.934  15.601  65.026  0.00  0.00    +0.232 C 
ATOM     10  C   UNL     1     -11.272  14.559  66.045  0.00  0.00    +0.021 A 
ATOM     11  C   UNL     1     -11.447  13.302  65.493  0.00  0.00    -0.001 A 
ATOM     12  C   UNL     1     -11.222  12.219  66.334  0.00  0.00    -0.000 A 
ATOM     13  C   UNL     1     -11.745  12.359  67.614  0.00  0.00    -0.000 A 
ATOM     14  C   UNL     1     -11.768  13.609  68.222  0.00  0.00    -0.000 A 
ATOM     15  C   UNL     1     -10.144  17.956  68.765  0.00  0.00    +0.003 A 
ATOM     16  C   UNL     1     -11.530  14.706  67.404  0.00  0.00    -0.001 A 
ENDROOT
BRANCH   1  17
ATOM     17  C   UNL     1     -12.094  14.625  70.060  0.00  0.00    +0.043 C 
BRANCH  17  18
ATOM     18  C   UNL     1     -12.022  14.844  71.563  0.00  0.00    +0.077 C 
BRANCH  18  20
ATOM     19  C   UNL     1     -14.320  15.121  71.758  0.00  0.00    +0.090 C 
ATOM     20  N   UNL     1     -13.030  15.751  72.043  0.00  0.00    -0.270 NA
ATOM     21  C   UNL     1     -12.983  15.910  73.492  0.00  0.00    +0.090 C 
ENDBRANCH  18  20
ENDBRANCH  17  18
ENDBRANCH   1  17
TORSDOF 3
ENDMDL
MODEL 5
REMARK VINA RESULT:      -6.8      1.181      4.299
REMARK  Name = 
REMARK  3 active torsions:
REMARK  status: ('A' for Active; 'I' for Inactive)
REMARK    1  A    between atoms: N_2  and  C_4
REMARK    2  A    between atoms: C_4  and  C_5
REMARK    3  A    between atoms: C_5  and  C_6
REMARK                            x       y       z     vdW  Elec       q    Type
REMARK                         _______ _______ _______ _____ _____    ______ ____
ROOT
ATOM      1  C   UNL     1     -12.712  11.337  71.397  0.00  0.00    -0.025 C 
ATOM      2  C   UNL     1     -12.582  12.338  70.540  0.00  0.00    -0.001 C 
ATOM      3  C   UNL     1     -12.543  13.665  71.171  0.00  0.00    +0.034 A 
ATOM      4  C   UNL     1     -11.925  14.805  70.669  0.00  0.00    +0.139 A 
ATOM      5  C   UNL     1     -11.749  15.907  71.469  0.00  0.00    +0.037 A 
ATOM      6  C   UNL     1     -12.467  15.953  72.655  0.00  0.00    +0.003 A 
ATOM      7  C   UNL     1     -13.361  14.942  72.958  0.00  0.00    +0.000 A 
ATOM      8  O   UNL     1     -11.453  14.969  69.362  0.00  0.00    -0.471 OA
ATOM      9  C   UNL     1     -11.761  14.251  68.169  0.00  0.00    +0.232 C 
ATOM     10  C   UNL     1     -11.475  12.791  68.330  0.00  0.00    +0.021 A 
ATOM     11  C   UNL     1     -10.714  12.273  67.297  0.00  0.00    -0.001 A 
ATOM     12  C   UNL     1      -9.957  11.146  67.590  0.00  0.00    -0.000 A 
ATOM     13  C   UNL     1     -10.613  10.186  68.353  0.00  0.00    -0.000 A 
ATOM     14  C   UNL     1     -11.525  10.578  69.326  0.00  0.00    -0.000 A 
ATOM     15  C   UNL     1     -13.209  13.687  72.381  0.00  0.00    +0.003 A 
ATOM     16  C   UNL     1     -11.948  11.901  69.289  0.00  0.00    -0.001 A 
ENDROOT
BRANCH   1  17
ATOM     17  C   UNL     1     -12.679   9.902  70.977  0.00  0.00    +0.043 C 
BRANCH  17  18
ATOM     18  C   UNL     1     -12.988   9.108  72.237  0.00  0.00    +0.077 C 
BRANCH  18  20
ATOM     19  C   UNL     1     -12.424   7.078  71.259  0.00  0.00    +0.090 C 
ATOM     20  N   UNL     1     -12.139   7.957  72.394  0.00  0.00    -0.270 NA
ATOM     21  C   UNL     1     -10.726   8.296  72.283  0.00  0.00    +0.090 C 
ENDBRANCH  18  20
ENDBRANCH  17  18
ENDBRANCH   1  17
TORSDOF 3
ENDMDL
MODEL 6
REMARK VINA RESULT:      -6.5      1.050      4.246
REMARK  Name = 
REMARK  3 active torsions:
REMARK  status: ('A' for Active; 'I' for Inactive)
REMARK    1  A    between atoms: N_2  and  C_4
REMARK    2  A    between atoms: C_4  and  C_5
REMARK    3  A    between atoms: C_5  and  C_6
REMARK                            x       y       z     vdW  Elec       q    Type
REMARK                         _______ _______ _______ _____ _____    ______ ____
ROOT
ATOM      1  C   UNL     1     -11.689  11.405  70.145  0.00  0.00    -0.025 C 
ATOM      2  C   UNL     1     -11.965  12.271  69.180  0.00  0.00    -0.001 C 
ATOM      3  C   UNL     1     -11.947  13.675  69.612  0.00  0.00    +0.034 A 
ATOM      4  C   UNL     1     -11.679  14.784  68.818  0.00  0.00    +0.139 A 
ATOM      5  C   UNL     1     -11.448  16.010  69.394  0.00  0.00    +0.037 A 
ATOM      6  C   UNL     1     -11.790  16.159  70.730  0.00  0.00    +0.003 A 
ATOM      7  C   UNL     1     -12.395  15.115  71.406  0.00  0.00    +0.000 A 
ATOM      8  O   UNL     1     -11.636  14.795  67.420  0.00  0.00    -0.471 OA
ATOM      9  C   UNL     1     -12.163  13.872  66.470  0.00  0.00    +0.232 C 
ATOM     10  C   UNL     1     -11.626  12.495  66.701  0.00  0.00    +0.021 A 
ATOM     11  C   UNL     1     -11.127  11.910  65.550  0.00  0.00    -0.001 A 
ATOM     12  C   UNL     1     -10.157  10.931  65.723  0.00  0.00    -0.000 A 
ATOM     13  C   UNL     1     -10.412  10.035  66.755  0.00  0.00    -0.000 A 
ATOM     14  C   UNL     1     -11.051  10.470  67.910  0.00  0.00    -0.000 A 
ATOM     15  C   UNL     1     -12.229  13.810  70.958  0.00  0.00    +0.003 A 
ATOM     16  C   UNL     1     -11.662  11.717  67.854  0.00  0.00    -0.001 A 
ENDROOT
BRANCH   1  17
ATOM     17  C   UNL     1     -11.562   9.935  69.902  0.00  0.00    +0.043 C 
BRANCH  17  18
ATOM     18  C   UNL     1     -11.098   9.349  71.226  0.00  0.00    +0.077 C 
BRANCH  18  20
ATOM     19  C   UNL     1     -11.239   7.646  72.800  0.00  0.00    +0.090 C 
ATOM     20  N   UNL     1     -11.955   8.294  71.700  0.00  0.00    -0.270 NA
ATOM     21  C   UNL     1     -13.189   8.805  72.282  0.00  0.00    +0.090 C 
ENDBRANCH  18  20
ENDBRANCH  17  18
ENDBRANCH   1  17
TORSDOF 3
ENDMDL
MODEL 7
REMARK VINA RESULT:      -6.4      1.777      4.567
REMARK  Name = 
REMARK  3 active torsions:
REMARK  status: ('A' for Active; 'I' for Inactive)
REMARK    1  A    between atoms: N_2  and  C_4
REMARK    2  A    between atoms: C_4  and  C_5
REMARK    3  A    between atoms: C_5  and  C_6
REMARK                            x       y       z     vdW  Elec       q    Type
REMARK                         _______ _______ _______ _____ _____    ______ ____
ROOT
ATOM      1  C   UNL     1     -12.021  12.021  70.270  0.00  0.00    -0.025 C 
ATOM      2  C   UNL     1     -12.003  13.285  69.874  0.00  0.00    -0.001 C 
ATOM      3  C   UNL     1     -12.267  14.254  70.947  0.00  0.00    +0.034 A 
ATOM      4  C   UNL     1     -11.828  15.572  71.001  0.00  0.00    +0.139 A 
ATOM      5  C   UNL     1     -11.930  16.289  72.169  0.00  0.00    +0.037 A 
ATOM      6  C   UNL     1     -12.746  15.770  73.164  0.00  0.00    +0.003 A 
ATOM      7  C   UNL     1     -13.461  14.609  72.932  0.00  0.00    +0.000 A 
ATOM      8  O   UNL     1     -11.281  16.295  69.936  0.00  0.00    -0.471 OA
ATOM      9  C   UNL     1     -11.343  16.063  68.531  0.00  0.00    +0.232 C 
ATOM     10  C   UNL     1     -10.808  14.709  68.183  0.00  0.00    +0.021 A 
ATOM     11  C   UNL     1      -9.876  14.744  67.162  0.00  0.00    -0.001 A 
ATOM     12  C   UNL     1      -8.952  13.707  67.130  0.00  0.00    -0.000 A 
ATOM     13  C   UNL     1      -9.485  12.446  67.375  0.00  0.00    -0.000 A 
ATOM     14  C   UNL     1     -10.535  12.299  68.273  0.00  0.00    -0.000 A 
ATOM     15  C   UNL     1     -13.029  13.711  71.964  0.00  0.00    +0.003 A 
ATOM     16  C   UNL     1     -11.191  13.460  68.662  0.00  0.00    -0.001 A 
ENDROOT
BRANCH   1  17
ATOM     17  C   UNL     1     -11.686  10.882  69.361  0.00  0.00    +0.043 C 
BRANCH  17  18
ATOM     18  C   UNL     1     -11.615   9.659  70.261  0.00  0.00    +0.077 C 
BRANCH  18  20
ATOM     19  C   UNL     1     -10.560   8.516  71.986  0.00  0.00    +0.090 C 
ATOM     20  N   UNL     1     -10.377   9.571  70.988  0.00  0.00    -0.270 NA
ATOM     21  C   UNL     1      -9.273   9.126  70.146  0.00  0.00    +0.090 C 
ENDBRANCH  18  20
ENDBRANCH  17  18
ENDBRANCH   1  17
TORSDOF 3
ENDMDL
MODEL 8
REMARK VINA RESULT:      -6.4      2.278      3.284
REMARK  Name = 
REMARK  3 active torsions:
REMARK  status: ('A' for Active; 'I' for Inactive)
REMARK    1  A    between atoms: N_2  and  C_4
REMARK    2  A    between atoms: C_4  and  C_5
REMARK    3  A    between atoms: C_5  and  C_6
REMARK                            x       y       z     vdW  Elec       q    Type
REMARK                         _______ _______ _______ _____ _____    ______ ____
ROOT
ATOM      1  C   UNL     1     -10.684   9.870  67.208  0.00  0.00    -0.025 C 
ATOM      2  C   UNL     1     -10.868  11.169  67.386  0.00  0.00    -0.001 C 
ATOM      3  C   UNL     1     -11.253  11.893  66.167  0.00  0.00    +0.034 A 
ATOM      4  C   UNL     1     -11.991  13.070  66.098  0.00  0.00    +0.139 A 
ATOM      5  C   UNL     1     -12.493  13.503  64.896  0.00  0.00    +0.037 A 
ATOM      6  C   UNL     1     -11.988  12.914  63.746  0.00  0.00    +0.003 A 
ATOM      7  C   UNL     1     -10.977  11.975  63.841  0.00  0.00    +0.000 A 
ATOM      8  O   UNL     1     -12.278  13.917  67.174  0.00  0.00    -0.471 OA
ATOM      9  C   UNL     1     -11.660  14.030  68.454  0.00  0.00    +0.232 C 
ATOM     10  C   UNL     1     -11.686  12.724  69.183  0.00  0.00    +0.021 A 
ATOM     11  C   UNL     1     -12.167  12.837  70.475  0.00  0.00    -0.001 A 
ATOM     12  C   UNL     1     -12.733  11.695  71.028  0.00  0.00    -0.000 A 
ATOM     13  C   UNL     1     -12.033  10.520  70.779  0.00  0.00    -0.000 A 
ATOM     14  C   UNL     1     -11.373  10.348  69.568  0.00  0.00    -0.000 A 
ATOM     15  C   UNL     1     -10.799  11.266  65.023  0.00  0.00    +0.003 A 
ATOM     16  C   UNL     1     -11.206  11.481  68.782  0.00  0.00    -0.001 A 
ENDROOT
BRANCH   1  17
ATOM     17  C   UNL     1     -10.380   8.932  68.333  0.00  0.00    +0.043 C 
BRANCH  17  18
ATOM     18  C   UNL     1      -9.966   7.629  67.668  0.00  0.00    +0.077 C 
BRANCH  18  20
ATOM     19  C   UNL     1     -10.584   5.552  66.834  0.00  0.00    +0.090 C 
ATOM     20  N   UNL     1     -10.971   6.605  67.773  0.00  0.00    -0.270 NA
ATOM     21  C   UNL     1     -10.980   5.974  69.087  0.00  0.00    +0.090 C 
ENDBRANCH  18  20
ENDBRANCH  17  18
ENDBRANCH   1  17
TORSDOF 3
ENDMDL
MODEL 9
REMARK VINA RESULT:      -6.4      2.173      5.134
REMARK  Name = 
REMARK  3 active torsions:
REMARK  status: ('A' for Active; 'I' for Inactive)
REMARK    1  A    between atoms: N_2  and  C_4
REMARK    2  A    between atoms: C_4  and  C_5
REMARK    3  A    between atoms: C_5  and  C_6
REMARK                            x       y       z     vdW  Elec       q    Type
REMARK                         _______ _______ _______ _____ _____    ______ ____
ROOT
ATOM      1  C   UNL     1     -10.859  10.642  68.172  0.00  0.00    -0.025 C 
ATOM      2  C   UNL     1     -11.482  11.587  67.484  0.00  0.00    -0.001 C 
ATOM      3  C   UNL     1     -11.710  12.827  68.240  0.00  0.00    +0.034 A 
ATOM      4  C   UNL     1     -11.839  14.108  67.714  0.00  0.00    +0.139 A 
ATOM      5  C   UNL     1     -11.796  15.204  68.541  0.00  0.00    +0.037 A 
ATOM      6  C   UNL     1     -11.932  14.978  69.903  0.00  0.00    +0.003 A 
ATOM      7  C   UNL     1     -12.161  13.696  70.369  0.00  0.00    +0.000 A 
ATOM      8  O   UNL     1     -12.037  14.420  66.365  0.00  0.00    -0.471 OA
ATOM      9  C   UNL     1     -12.495  13.609  65.285  0.00  0.00    +0.232 C 
ATOM     10  C   UNL     1     -11.629  12.401  65.112  0.00  0.00    +0.021 A 
ATOM     11  C   UNL     1     -11.214  12.218  63.805  0.00  0.00    -0.001 A 
ATOM     12  C   UNL     1     -10.032  11.510  63.624  0.00  0.00    -0.000 A 
ATOM     13  C   UNL     1      -9.899  10.385  64.429  0.00  0.00    -0.000 A 
ATOM     14  C   UNL     1     -10.415  10.389  65.720  0.00  0.00    -0.000 A 
ATOM     15  C   UNL     1     -11.782  12.602  69.601  0.00  0.00    +0.003 A 
ATOM     16  C   UNL     1     -11.292  11.419  66.038  0.00  0.00    -0.001 A 
ENDROOT
BRANCH   1  17
ATOM     17  C   UNL     1     -10.446   9.339  67.566  0.00  0.00    +0.043 C 
BRANCH  17  18
ATOM     18  C   UNL     1     -10.382   8.359  68.727  0.00  0.00    +0.077 C 
BRANCH  18  20
ATOM     19  C   UNL     1     -11.158   6.229  69.232  0.00  0.00    +0.090 C 
ATOM     20  N   UNL     1     -10.324   6.987  68.298  0.00  0.00    -0.270 NA
ATOM     21  C   UNL     1     -10.930   6.794  66.986  0.00  0.00    +0.090 C 
ENDBRANCH  18  20
ENDBRANCH  17  18
ENDBRANCH   1  17
TORSDOF 3
ENDMDL
