MODEL 1
REMARK VINA RESULT:      -5.2      0.000      0.000
REMARK  Name = 
REMARK  7 active torsions:
REMARK  status: ('A' for Active; 'I' for Inactive)
REMARK    1  A    between atoms: S_2  and  O_5
REMARK    2  A    between atoms: O_5  and  C_6
REMARK    3  A    between atoms: C_6  and  C_7
REMARK    4  A    between atoms: C_7  and  C_8
REMARK    5  A    between atoms: C_8  and  C_9
REMARK    6  A    between atoms: C_9  and  O_10
REMARK    7  A    between atoms: O_10  and  S_11
REMARK                            x       y       z     vdW  Elec       q    Type
REMARK                         _______ _______ _______ _____ _____    ______ ____
ROOT
ATOM      1  C   UNL     1     -11.734  13.577  68.708  0.00  0.00    +0.037 C 
ENDROOT
BRANCH   1   2
ATOM      2  C   UNL     1     -11.635  13.170  67.261  0.00  0.00    +0.174 C 
BRANCH   2   3
ATOM      3  O   UNL     1     -12.401  14.091  66.531  0.00  0.00    -0.224 OA
BRANCH   3   5
ATOM      4  C   UNL     1     -10.551  13.224  64.584  0.00  0.00    +0.210 C 
ATOM      5  S   UNL     1     -12.241  13.659  64.905  0.00  0.00    +0.096 S 
ATOM      6  O   UNL     1     -12.631  14.866  64.086  0.00  0.00    -0.146 OA
ATOM      7  O   UNL     1     -13.164  12.501  64.666  0.00  0.00    -0.146 OA
ENDBRANCH   3   5
ENDBRANCH   2   3
ENDBRANCH   1   2
BRANCH   1   8
ATOM      8  C   UNL     1     -11.692  15.064  68.874  0.00  0.00    +0.037 C 
BRANCH   8   9
ATOM      9  C   UNL     1     -12.287  15.552  70.163  0.00  0.00    +0.174 C 
BRANCH   9  10
ATOM     10  O   UNL     1     -12.272  14.508  71.102  0.00  0.00    -0.224 OA
BRANCH  10  11
ATOM     11  S   UNL     1     -13.400  14.729  72.312  0.00  0.00    +0.096 S 
ATOM     12  O   UNL     1     -14.409  15.783  71.926  0.00  0.00    -0.146 OA
ATOM     13  O   UNL     1     -14.176  13.495  72.631  0.00  0.00    -0.146 OA
ATOM     14  C   UNL     1     -12.616  15.246  73.832  0.00  0.00    +0.210 C 
ENDBRANCH  10  11
ENDBRANCH   9  10
ENDBRANCH   8   9
ENDBRANCH   1   8
TORSDOF 7
ENDMDL
MODEL 2
REMARK VINA RESULT:      -5.0      1.269      1.377
REMARK  Name = 
REMARK  7 active torsions:
REMARK  status: ('A' for Active; 'I' for Inactive)
REMARK    1  A    between atoms: S_2  and  O_5
REMARK    2  A    between atoms: O_5  and  C_6
REMARK    3  A    between atoms: C_6  and  C_7
REMARK    4  A    between atoms: C_7  and  C_8
REMARK    5  A    between atoms: C_8  and  C_9
REMARK    6  A    between atoms: C_9  and  O_10
REMARK    7  A    between atoms: O_10  and  S_11
REMARK                            x       y       z     vdW  Elec       q    Type
REMARK                         _______ _______ _______ _____ _____    ______ ____
ROOT
ATOM      1  C   UNL     1     -10.845  14.940  68.115  0.00  0.00    +0.037 C 
ENDROOT
BRANCH   1   2
ATOM      2  C   UNL     1     -11.289  15.068  66.681  0.00  0.00    +0.174 C 
BRANCH   2   3
ATOM      3  O   UNL     1     -12.303  14.118  66.488  0.00  0.00    -0.224 OA
BRANCH   3   5
ATOM      4  C   UNL     1     -10.570  13.172  64.472  0.00  0.00    +0.210 C 
ATOM      5  S   UNL     1     -12.229  13.668  64.861  0.00  0.00    +0.096 S 
ATOM      6  O   UNL     1     -12.611  14.881  64.048  0.00  0.00    -0.146 OA
ATOM      7  O   UNL     1     -13.200  12.540  64.673  0.00  0.00    -0.146 OA
ENDBRANCH   3   5
ENDBRANCH   2   3
ENDBRANCH   1   2
BRANCH   1   8
ATOM      8  C   UNL     1     -11.760  15.666  69.050  0.00  0.00    +0.037 C 
BRANCH   8   9
ATOM      9  C   UNL     1     -11.793  15.096  70.439  0.00  0.00    +0.174 C 
BRANCH   9  10
ATOM     10  O   UNL     1     -12.261  16.077  71.329  0.00  0.00    -0.224 OA
BRANCH  10  11
ATOM     11  S   UNL     1     -13.484  15.508  72.311  0.00  0.00    +0.096 S 
ATOM     12  O   UNL     1     -13.405  16.123  73.687  0.00  0.00    -0.146 OA
ATOM     13  O   UNL     1     -14.850  15.807  71.790  0.00  0.00    -0.146 OA
ATOM     14  C   UNL     1     -13.385  13.733  72.494  0.00  0.00    +0.210 C 
ENDBRANCH  10  11
ENDBRANCH   9  10
ENDBRANCH   8   9
ENDBRANCH   1   8
TORSDOF 7
ENDMDL
MODEL 3
REMARK VINA RESULT:      -5.0      0.782      7.073
REMARK  Name = 
REMARK  7 active torsions:
REMARK  status: ('A' for Active; 'I' for Inactive)
REMARK    1  A    between atoms: S_2  and  O_5
REMARK    2  A    between atoms: O_5  and  C_6
REMARK    3  A    between atoms: C_6  and  C_7
REMARK    4  A    between atoms: C_7  and  C_8
REMARK    5  A    between atoms: C_8  and  C_9
REMARK    6  A    between atoms: C_9  and  O_10
REMARK    7  A    between atoms: O_10  and  S_11
REMARK                            x       y       z     vdW  Elec       q    Type
REMARK                         _______ _______ _______ _____ _____    ______ ____
ROOT
ATOM      1  C   UNL     1     -11.984  13.838  69.473  0.00  0.00    +0.037 C 
ENDROOT
BRANCH   1   2
ATOM      2  C   UNL     1     -12.315  15.065  70.283  0.00  0.00    +0.174 C 
BRANCH   2   3
ATOM      3  O   UNL     1     -11.788  14.853  71.566  0.00  0.00    -0.224 OA
BRANCH   3   5
ATOM      4  C   UNL     1     -12.506  15.501  74.217  0.00  0.00    +0.210 C 
ATOM      5  S   UNL     1     -13.092  14.949  72.636  0.00  0.00    +0.096 S 
ATOM      6  O   UNL     1     -13.672  13.560  72.755  0.00  0.00    -0.146 OA
ATOM      7  O   UNL     1     -14.076  15.915  72.045  0.00  0.00    -0.146 OA
ENDBRANCH   3   5
ENDBRANCH   2   3
ENDBRANCH   1   2
BRANCH   1   8
ATOM      8  C   UNL     1     -11.835  14.153  68.018  0.00  0.00    +0.037 C 
BRANCH   8   9
ATOM      9  C   UNL     1     -11.297  13.016  67.198  0.00  0.00    +0.174 C 
BRANCH   9  10
ATOM     10  O   UNL     1     -12.331  12.488  66.408  0.00  0.00    -0.224 OA
BRANCH  10  11
ATOM     11  S   UNL     1     -12.252  13.018  64.828  0.00  0.00    +0.096 S 
ATOM     12  O   UNL     1     -13.074  12.136  63.919  0.00  0.00    -0.146 OA
ATOM     13  O   UNL     1     -12.760  14.408  64.643  0.00  0.00    -0.146 OA
ATOM     14  C   UNL     1     -10.568  13.006  64.232  0.00  0.00    +0.210 C 
ENDBRANCH  10  11
ENDBRANCH   9  10
ENDBRANCH   8   9
ENDBRANCH   1   8
TORSDOF 7
ENDMDL
MODEL 4
REMARK VINA RESULT:      -5.0      1.291      6.683
REMARK  Name = 
REMARK  7 active torsions:
REMARK  status: ('A' for Active; 'I' for Inactive)
REMARK    1  A    between atoms: S_2  and  O_5
REMARK    2  A    between atoms: O_5  and  C_6
REMARK    3  A    between atoms: C_6  and  C_7
REMARK    4  A    between atoms: C_7  and  C_8
REMARK    5  A    between atoms: C_8  and  C_9
REMARK    6  A    between atoms: C_9  and  O_10
REMARK    7  A    between atoms: O_10  and  S_11
REMARK                            x       y       z     vdW  Elec       q    Type
REMARK                         _______ _______ _______ _____ _____    ______ ____
ROOT
ATOM      1  C   UNL     1     -10.828  15.170  69.472  0.00  0.00    +0.037 C 
ENDROOT
BRANCH   1   2
ATOM      2  C   UNL     1     -11.983  14.617  70.266  0.00  0.00    +0.174 C 
BRANCH   2   3
ATOM      3  O   UNL     1     -12.812  15.704  70.579  0.00  0.00    -0.224 OA
BRANCH   3   5
ATOM      4  C   UNL     1     -13.554  13.457  72.115  0.00  0.00    +0.210 C 
ATOM      5  S   UNL     1     -13.813  15.190  71.839  0.00  0.00    +0.096 S 
ATOM      6  O   UNL     1     -15.238  15.438  71.402  0.00  0.00    -0.146 OA
ATOM      7  O   UNL     1     -13.451  16.001  73.047  0.00  0.00    -0.146 OA
ENDBRANCH   3   5
ENDBRANCH   2   3
ENDBRANCH   1   2
BRANCH   1   8
ATOM      8  C   UNL     1     -11.194  15.402  68.040  0.00  0.00    +0.037 C 
BRANCH   8   9
ATOM      9  C   UNL     1     -11.177  14.161  67.195  0.00  0.00    +0.174 C 
BRANCH   9  10
ATOM     10  O   UNL     1     -12.425  14.011  66.570  0.00  0.00    -0.224 OA
BRANCH  10  11
ATOM     11  S   UNL     1     -12.280  13.620  64.954  0.00  0.00    +0.096 S 
ATOM     12  O   UNL     1     -13.201  12.482  64.587  0.00  0.00    -0.146 OA
ATOM     13  O   UNL     1     -12.615  14.750  64.039  0.00  0.00    -0.146 OA
ATOM     14  C   UNL     1     -10.608  13.125  64.563  0.00  0.00    +0.210 C 
ENDBRANCH  10  11
ENDBRANCH   9  10
ENDBRANCH   8   9
ENDBRANCH   1   8
TORSDOF 7
ENDMDL
MODEL 5
REMARK VINA RESULT:      -4.8      3.410      6.747
REMARK  Name = 
REMARK  7 active torsions:
REMARK  status: ('A' for Active; 'I' for Inactive)
REMARK    1  A    between atoms: S_2  and  O_5
REMARK    2  A    between atoms: O_5  and  C_6
REMARK    3  A    between atoms: C_6  and  C_7
REMARK    4  A    between atoms: C_7  and  C_8
REMARK    5  A    between atoms: C_8  and  C_9
REMARK    6  A    between atoms: C_9  and  O_10
REMARK    7  A    between atoms: O_10  and  S_11
REMARK                            x       y       z     vdW  Elec       q    Type
REMARK                         _______ _______ _______ _____ _____    ______ ____
ROOT
ATOM      1  C   UNL     1     -10.905  15.413  70.215  0.00  0.00    +0.037 C 
ENDROOT
BRANCH   1   2
ATOM      2  C   UNL     1     -11.841  15.838  71.317  0.00  0.00    +0.174 C 
BRANCH   2   3
ATOM      3  O   UNL     1     -13.119  15.927  70.746  0.00  0.00    -0.224 OA
BRANCH   3   5
ATOM      4  C   UNL     1     -13.784  13.668  72.302  0.00  0.00    +0.210 C 
ATOM      5  S   UNL     1     -14.200  15.348  71.909  0.00  0.00    +0.096 S 
ATOM      6  O   UNL     1     -15.581  15.412  71.302  0.00  0.00    -0.146 OA
ATOM      7  O   UNL     1     -14.076  16.241  73.108  0.00  0.00    -0.146 OA
ENDBRANCH   3   5
ENDBRANCH   2   3
ENDBRANCH   1   2
BRANCH   1   8
ATOM      8  C   UNL     1     -11.192  16.129  68.932  0.00  0.00    +0.037 C 
BRANCH   8   9
ATOM      9  C   UNL     1     -10.032  16.164  67.979  0.00  0.00    +0.174 C 
BRANCH   9  10
ATOM     10  O   UNL     1      -9.405  17.418  68.062  0.00  0.00    -0.224 OA
BRANCH  10  11
ATOM     11  S   UNL     1      -9.958  18.479  66.899  0.00  0.00    +0.096 S 
ATOM     12  O   UNL     1     -10.430  17.740  65.671  0.00  0.00    -0.146 OA
ATOM     13  O   UNL     1     -11.104  19.317  67.358  0.00  0.00    -0.146 OA
ATOM     14  C   UNL     1      -8.667  19.609  66.400  0.00  0.00    +0.210 C 
ENDBRANCH  10  11
ENDBRANCH   9  10
ENDBRANCH   8   9
ENDBRANCH   1   8
TORSDOF 7
ENDMDL
MODEL 6
REMARK VINA RESULT:      -4.8      3.785      5.035
REMARK  Name = 
REMARK  7 active torsions:
REMARK  status: ('A' for Active; 'I' for Inactive)
REMARK    1  A    between atoms: S_2  and  O_5
REMARK    2  A    between atoms: O_5  and  C_6
REMARK    3  A    between atoms: C_6  and  C_7
REMARK    4  A    between atoms: C_7  and  C_8
REMARK    5  A    between atoms: C_8  and  C_9
REMARK    6  A    between atoms: C_9  and  O_10
REMARK    7  A    between atoms: O_10  and  S_11
REMARK                            x       y       z     vdW  Elec       q    Type
REMARK                         _______ _______ _______ _____ _____    ______ ____
ROOT
ATOM      1  C   UNL     1     -10.834  14.935  68.056  0.00  0.00    +0.037 C 
ENDROOT
BRANCH   1   2
ATOM      2  C   UNL     1     -11.114  14.914  66.576  0.00  0.00    +0.174 C 
BRANCH   2   3
ATOM      3  O   UNL     1     -12.264  14.131  66.396  0.00  0.00    -0.224 OA
BRANCH   3   5
ATOM      4  C   UNL     1     -10.589  13.079  64.383  0.00  0.00    +0.210 C 
ATOM      5  S   UNL     1     -12.234  13.605  64.790  0.00  0.00    +0.096 S 
ATOM      6  O   UNL     1     -12.629  14.783  63.931  0.00  0.00    -0.146 OA
ATOM      7  O   UNL     1     -13.217  12.478  64.679  0.00  0.00    -0.146 OA
ENDBRANCH   3   5
ENDBRANCH   2   3
ENDBRANCH   1   2
BRANCH   1   8
ATOM      8  C   UNL     1     -11.314  16.199  68.698  0.00  0.00    +0.037 C 
BRANCH   8   9
ATOM      9  C   UNL     1     -10.348  17.343  68.591  0.00  0.00    +0.174 C 
BRANCH   9  10
ATOM     10  O   UNL     1     -10.946  18.385  67.864  0.00  0.00    -0.224 OA
BRANCH  10  11
ATOM     11  S   UNL     1      -9.957  18.956  66.648  0.00  0.00    +0.096 S 
ATOM     12  O   UNL     1      -9.275  17.820  65.926  0.00  0.00    -0.146 OA
ATOM     13  O   UNL     1     -10.687  19.742  65.610  0.00  0.00    -0.146 OA
ATOM     14  C   UNL     1      -8.691  20.032  67.304  0.00  0.00    +0.210 C 
ENDBRANCH  10  11
ENDBRANCH   9  10
ENDBRANCH   8   9
ENDBRANCH   1   8
TORSDOF 7
ENDMDL
MODEL 7
REMARK VINA RESULT:      -4.7      2.993      6.815
REMARK  Name = 
REMARK  7 active torsions:
REMARK  status: ('A' for Active; 'I' for Inactive)
REMARK    1  A    between atoms: S_2  and  O_5
REMARK    2  A    between atoms: O_5  and  C_6
REMARK    3  A    between atoms: C_6  and  C_7
REMARK    4  A    between atoms: C_7  and  C_8
REMARK    5  A    between atoms: C_8  and  C_9
REMARK    6  A    between atoms: C_9  and  O_10
REMARK    7  A    between atoms: O_10  and  S_11
REMARK                            x       y       z     vdW  Elec       q    Type
REMARK                         _______ _______ _______ _____ _____    ______ ____
ROOT
ATOM      1  C   UNL     1     -11.403  14.435  69.289  0.00  0.00    +0.037 C 
ENDROOT
BRANCH   1   2
ATOM      2  C   UNL     1     -12.120  14.161  70.586  0.00  0.00    +0.174 C 
BRANCH   2   3
ATOM      3  O   UNL     1     -13.035  15.208  70.768  0.00  0.00    -0.224 OA
BRANCH   3   5
ATOM      4  C   UNL     1     -12.243  15.270  73.476  0.00  0.00    +0.210 C 
ATOM      5  S   UNL     1     -13.603  15.072  72.354  0.00  0.00    +0.096 S 
ATOM      6  O   UNL     1     -14.195  13.690  72.495  0.00  0.00    -0.146 OA
ATOM      7  O   UNL     1     -14.635  16.144  72.544  0.00  0.00    -0.146 OA
ENDBRANCH   3   5
ENDBRANCH   2   3
ENDBRANCH   1   2
BRANCH   1   8
ATOM      8  C   UNL     1     -11.718  15.796  68.754  0.00  0.00    +0.037 C 
BRANCH   8   9
ATOM      9  C   UNL     1     -10.506  16.618  68.421  0.00  0.00    +0.174 C 
BRANCH   9  10
ATOM     10  O   UNL     1     -10.916  17.880  67.961  0.00  0.00    -0.224 OA
BRANCH  10  11
ATOM     11  S   UNL     1     -10.191  18.294  66.517  0.00  0.00    +0.096 S 
ATOM     12  O   UNL     1     -10.511  17.285  65.441  0.00  0.00    -0.146 OA
ATOM     13  O   UNL     1     -10.624  19.623  65.996  0.00  0.00    -0.146 OA
ATOM     14  C   UNL     1      -8.414  18.368  66.691  0.00  0.00    +0.210 C 
ENDBRANCH  10  11
ENDBRANCH   9  10
ENDBRANCH   8   9
ENDBRANCH   1   8
TORSDOF 7
ENDMDL
MODEL 8
REMARK VINA RESULT:      -4.6      7.829      9.685
REMARK  Name = 
REMARK  7 active torsions:
REMARK  status: ('A' for Active; 'I' for Inactive)
REMARK    1  A    between atoms: S_2  and  O_5
REMARK    2  A    between atoms: O_5  and  C_6
REMARK    3  A    between atoms: C_6  and  C_7
REMARK    4  A    between atoms: C_7  and  C_8
REMARK    5  A    between atoms: C_8  and  C_9
REMARK    6  A    between atoms: C_9  and  O_10
REMARK    7  A    between atoms: O_10  and  S_11
REMARK                            x       y       z     vdW  Elec       q    Type
REMARK                         _______ _______ _______ _____ _____    ______ ____
ROOT
ATOM      1  C   UNL     1      -6.262  20.409  68.321  0.00  0.00    +0.037 C 
ENDROOT
BRANCH   1   2
ATOM      2  C   UNL     1      -5.115  20.887  69.174  0.00  0.00    +0.174 C 
BRANCH   2   3
ATOM      3  O   UNL     1      -5.591  20.940  70.493  0.00  0.00    -0.224 OA
BRANCH   3   5
ATOM      4  C   UNL     1      -2.792  21.298  70.459  0.00  0.00    +0.210 C 
ATOM      5  S   UNL     1      -4.232  21.121  71.480  0.00  0.00    +0.096 S 
ATOM      6  O   UNL     1      -4.123  19.868  72.317  0.00  0.00    -0.146 OA
ATOM      7  O   UNL     1      -4.461  22.338  72.325  0.00  0.00    -0.146 OA
ENDBRANCH   3   5
ENDBRANCH   2   3
ENDBRANCH   1   2
BRANCH   1   8
ATOM      8  C   UNL     1      -7.006  19.282  68.966  0.00  0.00    +0.037 C 
BRANCH   8   9
ATOM      9  C   UNL     1      -8.435  19.159  68.521  0.00  0.00    +0.174 C 
BRANCH   9  10
ATOM     10  O   UNL     1      -8.677  17.840  68.106  0.00  0.00    -0.224 OA
BRANCH  10  11
ATOM     11  S   UNL     1     -10.164  17.671  67.369  0.00  0.00    +0.096 S 
ATOM     12  O   UNL     1     -11.031  18.882  67.615  0.00  0.00    -0.146 OA
ATOM     13  O   UNL     1     -10.077  17.505  65.889  0.00  0.00    -0.146 OA
ATOM     14  C   UNL     1     -11.029  16.238  67.993  0.00  0.00    +0.210 C 
ENDBRANCH  10  11
ENDBRANCH   9  10
ENDBRANCH   8   9
ENDBRANCH   1   8
TORSDOF 7
ENDMDL
MODEL 9
REMARK VINA RESULT:      -4.6      2.366      2.909
REMARK  Name = 
REMARK  7 active torsions:
REMARK  status: ('A' for Active; 'I' for Inactive)
REMARK    1  A    between atoms: S_2  and  O_5
REMARK    2  A    between atoms: O_5  and  C_6
REMARK    3  A    between atoms: C_6  and  C_7
REMARK    4  A    between atoms: C_7  and  C_8
REMARK    5  A    between atoms: C_8  and  C_9
REMARK    6  A    between atoms: C_9  and  O_10
REMARK    7  A    between atoms: O_10  and  S_11
REMARK                            x       y       z     vdW  Elec       q    Type
REMARK                         _______ _______ _______ _____ _____    ______ ____
ROOT
ATOM      1  C   UNL     1     -10.624  14.335  68.769  0.00  0.00    +0.037 C 
ENDROOT
BRANCH   1   2
ATOM      2  C   UNL     1     -10.694  15.680  68.090  0.00  0.00    +0.174 C 
BRANCH   2   3
ATOM      3  O   UNL     1     -10.539  15.444  66.716  0.00  0.00    -0.224 OA
BRANCH   3   5
ATOM      4  C   UNL     1     -10.539  18.233  67.146  0.00  0.00    +0.210 C 
ATOM      5  S   UNL     1     -10.109  16.925  66.026  0.00  0.00    +0.096 S 
ATOM      6  O   UNL     1     -10.894  17.061  64.744  0.00  0.00    -0.146 OA
ATOM      7  O   UNL     1      -8.631  16.880  65.774  0.00  0.00    -0.146 OA
ENDBRANCH   3   5
ENDBRANCH   2   3
ENDBRANCH   1   2
BRANCH   1   8
ATOM      8  C   UNL     1     -11.984  13.800  69.089  0.00  0.00    +0.037 C 
BRANCH   8   9
ATOM      9  C   UNL     1     -12.229  13.591  70.555  0.00  0.00    +0.174 C 
BRANCH   9  10
ATOM     10  O   UNL     1     -12.258  14.838  71.201  0.00  0.00    -0.224 OA
BRANCH  10  11
ATOM     11  S   UNL     1     -13.331  14.865  72.478  0.00  0.00    +0.096 S 
ATOM     12  O   UNL     1     -14.406  15.901  72.261  0.00  0.00    -0.146 OA
ATOM     13  O   UNL     1     -14.030  13.564  72.692  0.00  0.00    -0.146 OA
ATOM     14  C   UNL     1     -12.494  15.252  74.009  0.00  0.00    +0.210 C 
ENDBRANCH  10  11
ENDBRANCH   9  10
ENDBRANCH   8   9
ENDBRANCH   1   8
TORSDOF 7
ENDMDL
