MODEL 1
REMARK VINA RESULT:      -7.1      0.000      0.000
REMARK  Name = 
REMARK  0 active torsions:
REMARK  status: ('A' for Active; 'I' for Inactive)
REMARK                            x       y       z     vdW  Elec       q    Type
REMARK                         _______ _______ _______ _____ _____    ______ ____
ROOT
ATOM      1  C   UNL     1      -7.366  16.491  67.274  0.00  0.00    +0.090 C 
ATOM      2  N   UNL     1      -8.453  17.255  66.879  0.00  0.00    -0.268 NA
ATOM      3  C   UNL     1      -9.304  16.355  66.118  0.00  0.00    +0.097 C 
ATOM      4  C   UNL     1      -9.541  15.183  67.296  0.00  0.00    +0.112 C 
ATOM      5  N   UNL     1     -10.839  15.941  67.867  0.00  0.00    -0.289 N 
ATOM      6  C   UNL     1     -11.440  15.373  69.039  0.00  0.00    +0.128 A 
ATOM      7  C   UNL     1     -11.853  14.064  69.244  0.00  0.00    +0.014 A 
ATOM      8  C   UNL     1     -11.511  12.899  68.379  0.00  0.00    +0.055 C 
ATOM      9  C   UNL     1     -11.292  13.268  66.968  0.00  0.00    -0.020 A 
ATOM     10  C   UNL     1     -11.988  12.446  66.086  0.00  0.00    -0.004 A 
ATOM     11  C   UNL     1     -12.307  12.971  64.839  0.00  0.00    -0.000 A 
ATOM     12  C   UNL     1     -11.787  14.201  64.455  0.00  0.00    -0.000 A 
ATOM     13  C   UNL     1     -10.957  14.903  65.320  0.00  0.00    -0.003 A 
ATOM     14  C   UNL     1     -12.287  13.649  70.474  0.00  0.00    +0.000 A 
ATOM     15  C   UNL     1     -12.134  14.529  71.539  0.00  0.00    +0.020 A 
ATOM     16  C   UNL     1     -12.176  15.877  71.216  0.00  0.00    +0.100 A 
ATOM     17  N   UNL     1     -11.821  16.271  69.967  0.00  0.00    -0.229 NA
ATOM     18  C   UNL     1     -10.580  17.342  68.120  0.00  0.00    +0.110 C 
ATOM     19  C   UNL     1     -10.460  14.201  66.354  0.00  0.00    -0.007 A 
ATOM     20  C   UNL     1      -9.123  17.694  68.073  0.00  0.00    +0.094 C 
ENDROOT
TORSDOF 0
ENDMDL
MODEL 2
REMARK VINA RESULT:      -6.6      1.438      2.036
REMARK  Name = 
REMARK  0 active torsions:
REMARK  status: ('A' for Active; 'I' for Inactive)
REMARK                            x       y       z     vdW  Elec       q    Type
REMARK                         _______ _______ _______ _____ _____    ______ ____
ROOT
ATOM      1  C   UNL     1      -8.558  16.402  68.417  0.00  0.00    +0.090 C 
ATOM      2  N   UNL     1      -9.868  16.841  68.305  0.00  0.00    -0.268 NA
ATOM      3  C   UNL     1     -10.397  16.186  67.120  0.00  0.00    +0.097 C 
ATOM      4  C   UNL     1     -10.127  14.593  67.576  0.00  0.00    +0.112 C 
ATOM      5  N   UNL     1     -11.568  14.495  68.283  0.00  0.00    -0.289 N 
ATOM      6  C   UNL     1     -11.852  13.271  68.976  0.00  0.00    +0.128 A 
ATOM      7  C   UNL     1     -11.762  11.972  68.496  0.00  0.00    +0.014 A 
ATOM      8  C   UNL     1     -11.092  11.556  67.231  0.00  0.00    +0.055 C 
ATOM      9  C   UNL     1     -11.110  12.603  66.193  0.00  0.00    -0.020 A 
ATOM     10  C   UNL     1     -11.530  12.121  64.956  0.00  0.00    -0.004 A 
ATOM     11  C   UNL     1     -12.095  13.034  64.073  0.00  0.00    -0.000 A 
ATOM     12  C   UNL     1     -12.069  14.391  64.372  0.00  0.00    -0.000 A 
ATOM     13  C   UNL     1     -11.483  14.828  65.552  0.00  0.00    -0.003 A 
ATOM     14  C   UNL     1     -11.940  10.901  69.330  0.00  0.00    +0.000 A 
ATOM     15  C   UNL     1     -12.036  11.158  70.692  0.00  0.00    +0.020 A 
ATOM     16  C   UNL     1     -12.571  12.390  71.036  0.00  0.00    +0.100 A 
ATOM     17  N   UNL     1     -12.461  13.427  70.166  0.00  0.00    -0.229 NA
ATOM     18  C   UNL     1     -11.802  15.597  69.190  0.00  0.00    +0.110 C 
ATOM     19  C   UNL     1     -10.703  13.935  66.186  0.00  0.00    -0.007 A 
ATOM     20  C   UNL     1     -10.569  16.399  69.481  0.00  0.00    +0.094 C 
ENDROOT
TORSDOF 0
ENDMDL
MODEL 3
REMARK VINA RESULT:      -6.6      2.460      4.594
REMARK  Name = 
REMARK  0 active torsions:
REMARK  status: ('A' for Active; 'I' for Inactive)
REMARK                            x       y       z     vdW  Elec       q    Type
REMARK                         _______ _______ _______ _____ _____    ______ ____
ROOT
ATOM      1  C   UNL     1     -12.357  12.168  63.523  0.00  0.00    +0.090 C 
ATOM      2  N   UNL     1     -10.982  12.148  63.705  0.00  0.00    -0.268 NA
ATOM      3  C   UNL     1     -10.664  13.386  64.397  0.00  0.00    +0.097 C 
ATOM      4  C   UNL     1     -11.648  13.178  65.741  0.00  0.00    +0.112 C 
ATOM      5  N   UNL     1     -10.480  12.419  66.545  0.00  0.00    -0.289 N 
ATOM      6  C   UNL     1     -10.835  11.896  67.834  0.00  0.00    +0.128 A 
ATOM      7  C   UNL     1     -11.427  12.563  68.898  0.00  0.00    +0.014 A 
ATOM      8  C   UNL     1     -12.068  13.907  68.834  0.00  0.00    +0.055 C 
ATOM      9  C   UNL     1     -11.482  14.781  67.801  0.00  0.00    -0.020 A 
ATOM     10  C   UNL     1     -11.180  16.052  68.285  0.00  0.00    -0.004 A 
ATOM     11  C   UNL     1     -10.181  16.763  67.631  0.00  0.00    -0.000 A 
ATOM     12  C   UNL     1      -9.648  16.274  66.445  0.00  0.00    -0.000 A 
ATOM     13  C   UNL     1     -10.111  15.075  65.921  0.00  0.00    -0.003 A 
ATOM     14  C   UNL     1     -11.825  11.884  70.018  0.00  0.00    +0.000 A 
ATOM     15  C   UNL     1     -11.777  10.496  69.977  0.00  0.00    +0.020 A 
ATOM     16  C   UNL     1     -10.801   9.951  69.156  0.00  0.00    +0.100 A 
ATOM     17  N   UNL     1     -10.353  10.667  68.093  0.00  0.00    -0.229 NA
ATOM     18  C   UNL     1      -9.891  11.352  65.766  0.00  0.00    +0.110 C 
ATOM     19  C   UNL     1     -11.267  14.617  66.435  0.00  0.00    -0.007 A 
ATOM     20  C   UNL     1     -10.677  11.013  64.535  0.00  0.00    +0.094 C 
ENDROOT
TORSDOF 0
ENDMDL
MODEL 4
REMARK VINA RESULT:      -6.3      2.349      4.858
REMARK  Name = 
REMARK  0 active torsions:
REMARK  status: ('A' for Active; 'I' for Inactive)
REMARK                            x       y       z     vdW  Elec       q    Type
REMARK                         _______ _______ _______ _____ _____    ______ ____
ROOT
ATOM      1  C   UNL     1     -12.511  14.024  65.380  0.00  0.00    +0.090 C 
ATOM      2  N   UNL     1     -11.224  14.389  65.743  0.00  0.00    -0.268 NA
ATOM      3  C   UNL     1     -11.335  14.911  67.095  0.00  0.00    +0.097 C 
ATOM      4  C   UNL     1     -12.016  13.562  67.826  0.00  0.00    +0.112 C 
ATOM      5  N   UNL     1     -10.569  12.952  68.172  0.00  0.00    -0.289 N 
ATOM      6  C   UNL     1     -10.557  11.649  68.773  0.00  0.00    +0.128 A 
ATOM      7  C   UNL     1     -11.244  11.218  69.900  0.00  0.00    +0.014 A 
ATOM      8  C   UNL     1     -12.356  11.947  70.574  0.00  0.00    +0.055 C 
ATOM      9  C   UNL     1     -12.263  13.411  70.426  0.00  0.00    -0.020 A 
ATOM     10  C   UNL     1     -12.423  14.082  71.636  0.00  0.00    -0.004 A 
ATOM     11  C   UNL     1     -11.849  15.343  71.748  0.00  0.00    -0.000 A 
ATOM     12  C   UNL     1     -11.297  15.952  70.628  0.00  0.00    -0.000 A 
ATOM     13  C   UNL     1     -11.316  15.298  69.403  0.00  0.00    -0.003 A 
ATOM     14  C   UNL     1     -11.231   9.899  70.268  0.00  0.00    +0.000 A 
ATOM     15  C   UNL     1     -10.658   8.992  69.384  0.00  0.00    +0.020 A 
ATOM     16  C   UNL     1      -9.640   9.491  68.586  0.00  0.00    +0.100 A 
ATOM     17  N   UNL     1      -9.616  10.817  68.292  0.00  0.00    -0.229 NA
ATOM     18  C   UNL     1      -9.701  12.928  67.015  0.00  0.00    +0.110 C 
ATOM     19  C   UNL     1     -12.146  14.243  69.315  0.00  0.00    -0.007 A 
ATOM     20  C   UNL     1     -10.421  13.196  65.727  0.00  0.00    +0.094 C 
ENDROOT
TORSDOF 0
ENDMDL
MODEL 5
REMARK VINA RESULT:      -6.3      3.011      5.244
REMARK  Name = 
REMARK  0 active torsions:
REMARK  status: ('A' for Active; 'I' for Inactive)
REMARK                            x       y       z     vdW  Elec       q    Type
REMARK                         _______ _______ _______ _____ _____    ______ ____
ROOT
ATOM      1  C   UNL     1     -11.874  12.325  65.369  0.00  0.00    +0.090 C 
ATOM      2  N   UNL     1     -10.575  12.522  65.812  0.00  0.00    -0.268 NA
ATOM      3  C   UNL     1     -10.685  13.424  66.947  0.00  0.00    +0.097 C 
ATOM      4  C   UNL     1     -11.718  12.502  67.897  0.00  0.00    +0.112 C 
ATOM      5  N   UNL     1     -10.485  11.750  68.603  0.00  0.00    -0.289 N 
ATOM      6  C   UNL     1     -10.824  10.699  69.520  0.00  0.00    +0.128 A 
ATOM      7  C   UNL     1     -11.689  10.752  70.604  0.00  0.00    +0.014 A 
ATOM      8  C   UNL     1     -12.661  11.846  70.889  0.00  0.00    +0.055 C 
ATOM      9  C   UNL     1     -12.224  13.158  70.377  0.00  0.00    -0.020 A 
ATOM     10  C   UNL     1     -12.336  14.167  71.330  0.00  0.00    -0.004 A 
ATOM     11  C   UNL     1     -11.502  15.271  71.192  0.00  0.00    -0.000 A 
ATOM     12  C   UNL     1     -10.728  15.412  70.048  0.00  0.00    -0.000 A 
ATOM     13  C   UNL     1     -10.786  14.449  69.049  0.00  0.00    -0.003 A 
ATOM     14  C   UNL     1     -12.009   9.619  71.302  0.00  0.00    +0.000 A 
ATOM     15  C   UNL     1     -11.581   8.403  70.784  0.00  0.00    +0.020 A 
ATOM     16  C   UNL     1     -10.408   8.444  70.044  0.00  0.00    +0.100 A 
ATOM     17  N   UNL     1     -10.057   9.597  69.421  0.00  0.00    -0.229 NA
ATOM     18  C   UNL     1      -9.544  11.225  67.636  0.00  0.00    +0.110 C 
ATOM     19  C   UNL     1     -11.822  13.595  69.117  0.00  0.00    -0.007 A 
ATOM     20  C   UNL     1     -10.067  11.244  66.231  0.00  0.00    +0.094 C 
ENDROOT
TORSDOF 0
ENDMDL
MODEL 6
REMARK VINA RESULT:      -6.2      1.359      4.362
REMARK  Name = 
REMARK  0 active torsions:
REMARK  status: ('A' for Active; 'I' for Inactive)
REMARK                            x       y       z     vdW  Elec       q    Type
REMARK                         _______ _______ _______ _____ _____    ______ ____
ROOT
ATOM      1  C   UNL     1     -13.814  15.091  71.153  0.00  0.00    +0.090 C 
ATOM      2  N   UNL     1     -12.519  14.763  71.527  0.00  0.00    -0.268 NA
ATOM      3  C   UNL     1     -12.158  13.615  70.711  0.00  0.00    +0.097 C 
ATOM      4  C   UNL     1     -12.400  14.302  69.198  0.00  0.00    +0.112 C 
ATOM      5  N   UNL     1     -10.883  14.832  69.137  0.00  0.00    -0.289 N 
ATOM      6  C   UNL     1     -10.538  15.636  67.999  0.00  0.00    +0.128 A 
ATOM      7  C   UNL     1     -10.714  15.340  66.654  0.00  0.00    +0.014 A 
ATOM      8  C   UNL     1     -11.547  14.231  66.109  0.00  0.00    +0.055 C 
ATOM      9  C   UNL     1     -11.640  13.073  67.018  0.00  0.00    -0.020 A 
ATOM     10  C   UNL     1     -11.390  11.866  66.371  0.00  0.00    -0.004 A 
ATOM     11  C   UNL     1     -10.923  10.811  67.147  0.00  0.00    -0.000 A 
ATOM     12  C   UNL     1     -10.885  10.935  68.530  0.00  0.00    -0.000 A 
ATOM     13  C   UNL     1     -11.307  12.113  69.131  0.00  0.00    -0.003 A 
ATOM     14  C   UNL     1     -10.453  16.275  65.690  0.00  0.00    +0.000 A 
ATOM     15  C   UNL     1     -10.180  17.571  66.110  0.00  0.00    +0.020 A 
ATOM     16  C   UNL     1      -9.581  17.686  67.356  0.00  0.00    +0.100 A 
ATOM     17  N   UNL     1      -9.780  16.712  68.280  0.00  0.00    -0.229 NA
ATOM     18  C   UNL     1     -10.514  15.555  70.335  0.00  0.00    +0.110 C 
ATOM     19  C   UNL     1     -12.018  12.947  68.352  0.00  0.00    -0.007 A 
ATOM     20  C   UNL     1     -11.684  15.891  71.210  0.00  0.00    +0.094 C 
ENDROOT
TORSDOF 0
ENDMDL
MODEL 7
REMARK VINA RESULT:      -6.1      3.514      5.832
REMARK  Name = 
REMARK  0 active torsions:
REMARK  status: ('A' for Active; 'I' for Inactive)
REMARK                            x       y       z     vdW  Elec       q    Type
REMARK                         _______ _______ _______ _____ _____    ______ ____
ROOT
ATOM      1  C   UNL     1      -6.925  10.769  66.720  0.00  0.00    +0.090 C 
ATOM      2  N   UNL     1      -7.837   9.746  66.506  0.00  0.00    -0.268 NA
ATOM      3  C   UNL     1      -8.771   9.821  67.617  0.00  0.00    +0.097 C 
ATOM      4  C   UNL     1      -9.286  11.405  67.402  0.00  0.00    +0.112 C 
ATOM      5  N   UNL     1     -10.474  10.942  66.423  0.00  0.00    -0.289 N 
ATOM      6  C   UNL     1     -11.245  11.993  65.822  0.00  0.00    +0.128 A 
ATOM      7  C   UNL     1     -11.886  13.053  66.448  0.00  0.00    +0.014 A 
ATOM      8  C   UNL     1     -11.686  13.478  67.863  0.00  0.00    +0.055 C 
ATOM      9  C   UNL     1     -11.307  12.367  68.754  0.00  0.00    -0.020 A 
ATOM     10  C   UNL     1     -12.068  12.334  69.920  0.00  0.00    -0.004 A 
ATOM     11  C   UNL     1     -12.203  11.108  70.561  0.00  0.00    -0.000 A 
ATOM     12  C   UNL     1     -11.457  10.018  70.130  0.00  0.00    -0.000 A 
ATOM     13  C   UNL     1     -10.585  10.156  69.058  0.00  0.00    -0.003 A 
ATOM     14  C   UNL     1     -12.471  14.051  65.716  0.00  0.00    +0.000 A 
ATOM     15  C   UNL     1     -12.248  14.055  64.344  0.00  0.00    +0.020 A 
ATOM     16  C   UNL     1     -12.039  12.813  63.765  0.00  0.00    +0.100 A 
ATOM     17  N   UNL     1     -11.534  11.805  64.521  0.00  0.00    -0.229 NA
ATOM     18  C   UNL     1     -10.001  10.066  65.373  0.00  0.00    +0.110 C 
ATOM     19  C   UNL     1     -10.288  11.418  68.702  0.00  0.00    -0.007 A 
ATOM     20  C   UNL     1      -8.507  10.024  65.264  0.00  0.00    +0.094 C 
ENDROOT
TORSDOF 0
ENDMDL
MODEL 8
REMARK VINA RESULT:      -6.1      4.937      7.398
REMARK  Name = 
REMARK  0 active torsions:
REMARK  status: ('A' for Active; 'I' for Inactive)
REMARK                            x       y       z     vdW  Elec       q    Type
REMARK                         _______ _______ _______ _____ _____    ______ ____
ROOT
ATOM      1  C   UNL     1      -7.472   8.166  70.412  0.00  0.00    +0.090 C 
ATOM      2  N   UNL     1      -8.360   7.343  69.736  0.00  0.00    -0.268 NA
ATOM      3  C   UNL     1      -9.623   7.471  70.444  0.00  0.00    +0.097 C 
ATOM      4  C   UNL     1      -9.816   9.133  70.309  0.00  0.00    +0.112 C 
ATOM      5  N   UNL     1     -10.604   8.982  68.915  0.00  0.00    -0.289 N 
ATOM      6  C   UNL     1     -10.956  10.204  68.250  0.00  0.00    +0.128 A 
ATOM      7  C   UNL     1     -11.644  11.294  68.766  0.00  0.00    +0.014 A 
ATOM      8  C   UNL     1     -11.932  11.538  70.208  0.00  0.00    +0.055 C 
ATOM      9  C   UNL     1     -12.056  10.297  70.993  0.00  0.00    -0.020 A 
ATOM     10  C   UNL     1     -13.193  10.284  71.797  0.00  0.00    -0.004 A 
ATOM     11  C   UNL     1     -13.711   9.044  72.152  0.00  0.00    -0.000 A 
ATOM     12  C   UNL     1     -13.003   7.888  71.848  0.00  0.00    -0.000 A 
ATOM     13  C   UNL     1     -11.785   7.975  71.188  0.00  0.00    -0.003 A 
ATOM     14  C   UNL     1     -11.783  12.444  68.037  0.00  0.00    +0.000 A 
ATOM     15  C   UNL     1     -11.068  12.543  66.850  0.00  0.00    +0.020 A 
ATOM     16  C   UNL     1     -10.817  11.345  66.198  0.00  0.00    +0.100 A 
ATOM     17  N   UNL     1     -10.761  10.196  66.919  0.00  0.00    -0.229 NA
ATOM     18  C   UNL     1      -9.889   8.143  67.977  0.00  0.00    +0.110 C 
ATOM     19  C   UNL     1     -11.219   9.195  71.158  0.00  0.00    -0.007 A 
ATOM     20  C   UNL     1      -8.479   7.852  68.397  0.00  0.00    +0.094 C 
ENDROOT
TORSDOF 0
ENDMDL
MODEL 9
REMARK VINA RESULT:      -5.9      2.700      4.350
REMARK  Name = 
REMARK  0 active torsions:
REMARK  status: ('A' for Active; 'I' for Inactive)
REMARK                            x       y       z     vdW  Elec       q    Type
REMARK                         _______ _______ _______ _____ _____    ______ ____
ROOT
ATOM      1  C   UNL     1     -10.237   9.299  69.004  0.00  0.00    +0.090 C 
ATOM      2  N   UNL     1      -9.148   9.649  68.221  0.00  0.00    -0.268 NA
ATOM      3  C   UNL     1      -9.706  10.076  66.948  0.00  0.00    +0.097 C 
ATOM      4  C   UNL     1     -10.707  11.299  67.514  0.00  0.00    +0.112 C 
ATOM      5  N   UNL     1      -9.537  12.393  67.376  0.00  0.00    -0.289 N 
ATOM      6  C   UNL     1      -9.844  13.713  67.850  0.00  0.00    +0.128 A 
ATOM      7  C   UNL     1     -10.926  14.515  67.514  0.00  0.00    +0.014 A 
ATOM      8  C   UNL     1     -12.149  14.068  66.788  0.00  0.00    +0.055 C 
ATOM      9  C   UNL     1     -11.898  12.944  65.867  0.00  0.00    -0.020 A 
ATOM     10  C   UNL     1     -12.439  13.160  64.602  0.00  0.00    -0.004 A 
ATOM     11  C   UNL     1     -11.853  12.491  63.534  0.00  0.00    -0.000 A 
ATOM     12  C   UNL     1     -10.886  11.523  63.773  0.00  0.00    -0.000 A 
ATOM     13  C   UNL     1     -10.505  11.232  65.076  0.00  0.00    -0.003 A 
ATOM     14  C   UNL     1     -11.147  15.702  68.160  0.00  0.00    +0.000 A 
ATOM     15  C   UNL     1     -10.361  15.984  69.270  0.00  0.00    +0.020 A 
ATOM     16  C   UNL     1      -9.087  15.437  69.260  0.00  0.00    +0.100 A 
ATOM     17  N   UNL     1      -8.858  14.303  68.549  0.00  0.00    -0.229 NA
ATOM     18  C   UNL     1      -8.310  11.957  68.007  0.00  0.00    +0.110 C 
ATOM     19  C   UNL     1     -11.321  11.689  66.042  0.00  0.00    -0.007 A 
ATOM     20  C   UNL     1      -8.487  10.747  68.875  0.00  0.00    +0.094 C 
ENDROOT
TORSDOF 0
ENDMDL
