MODEL 1
REMARK VINA RESULT:      -4.9      0.000      0.000
REMARK  Name = 
REMARK  3 active torsions:
REMARK  status: ('A' for Active; 'I' for Inactive)
REMARK    1  A    between atoms: C_2  and  O_3
REMARK    2  A    between atoms: O_3  and  C_4
REMARK    3  A    between atoms: C_4  and  C_6
REMARK                            x       y       z     vdW  Elec       q    Type
REMARK                         _______ _______ _______ _____ _____    ______ ____
ROOT
ATOM      1  C   UNL     1     -10.869  14.843  65.356  0.00  0.00    +0.076 A 
ATOM      2  C   UNL     1     -12.117  14.472  65.841  0.00  0.00    +0.008 A 
ATOM      3  C   UNL     1     -12.717  13.286  65.437  0.00  0.00    +0.018 A 
ATOM      4  C   UNL     1     -12.136  12.499  64.448  0.00  0.00    +0.089 A 
ATOM      5  N   UNL     1     -12.899  11.937  63.376  0.00  0.00    -0.128 NA
ATOM      6  C   UNL     1     -10.750  12.615  64.393  0.00  0.00    +0.018 A 
ATOM      7  C   UNL     1     -10.145  13.809  64.771  0.00  0.00    +0.008 A 
ENDROOT
BRANCH   1   8
ATOM      8  C   UNL     1     -10.583  16.245  65.020  0.00  0.00    +0.341 C 
ATOM      9  O   UNL     1     -11.383  16.878  64.264  0.00  0.00    -0.245 OA
BRANCH   8  10
ATOM     10  O   UNL     1      -9.839  17.066  65.875  0.00  0.00    -0.445 OA
BRANCH  10  12
ATOM     11  C   UNL     1     -10.600  19.036  67.007  0.00  0.00    +0.051 C 
ATOM     12  C   UNL     1     -10.378  17.554  67.097  0.00  0.00    +0.209 C 
ENDBRANCH  10  12
ENDBRANCH   8  10
ENDBRANCH   1   8
TORSDOF 3
ENDMDL
MODEL 2
REMARK VINA RESULT:      -4.9      2.917      4.991
REMARK  Name = 
REMARK  3 active torsions:
REMARK  status: ('A' for Active; 'I' for Inactive)
REMARK    1  A    between atoms: C_2  and  O_3
REMARK    2  A    between atoms: O_3  and  C_4
REMARK    3  A    between atoms: C_4  and  C_6
REMARK                            x       y       z     vdW  Elec       q    Type
REMARK                         _______ _______ _______ _____ _____    ______ ____
ROOT
ATOM      1  C   UNL     1     -11.423  14.529  65.867  0.00  0.00    +0.076 A 
ATOM      2  C   UNL     1     -10.346  15.330  65.504  0.00  0.00    +0.008 A 
ATOM      3  C   UNL     1      -9.864  16.310  66.362  0.00  0.00    +0.018 A 
ATOM      4  C   UNL     1     -10.522  16.593  67.555  0.00  0.00    +0.089 A 
ATOM      5  N   UNL     1     -10.780  17.934  67.982  0.00  0.00    -0.128 NA
ATOM      6  C   UNL     1     -11.202  15.501  68.083  0.00  0.00    +0.018 A 
ATOM      7  C   UNL     1     -11.711  14.528  67.228  0.00  0.00    +0.008 A 
ENDROOT
BRANCH   1   8
ATOM      8  C   UNL     1     -12.450  14.163  64.881  0.00  0.00    +0.341 C 
ATOM      9  O   UNL     1     -12.646  14.919  63.880  0.00  0.00    -0.245 OA
BRANCH   8  10
ATOM     10  O   UNL     1     -12.820  12.830  64.669  0.00  0.00    -0.445 OA
BRANCH  10  12
ATOM     11  C   UNL     1     -11.005  11.674  63.616  0.00  0.00    +0.051 C 
ATOM     12  C   UNL     1     -12.432  12.125  63.497  0.00  0.00    +0.209 C 
ENDBRANCH  10  12
ENDBRANCH   8  10
ENDBRANCH   1   8
TORSDOF 3
ENDMDL
MODEL 3
REMARK VINA RESULT:      -4.8      2.929      3.444
REMARK  Name = 
REMARK  3 active torsions:
REMARK  status: ('A' for Active; 'I' for Inactive)
REMARK    1  A    between atoms: C_2  and  O_3
REMARK    2  A    between atoms: O_3  and  C_4
REMARK    3  A    between atoms: C_4  and  C_6
REMARK                            x       y       z     vdW  Elec       q    Type
REMARK                         _______ _______ _______ _____ _____    ______ ____
ROOT
ATOM      1  C   UNL     1     -10.978  15.246  67.573  0.00  0.00    +0.076 A 
ATOM      2  C   UNL     1     -11.843  14.166  67.441  0.00  0.00    +0.008 A 
ATOM      3  C   UNL     1     -12.172  13.664  66.188  0.00  0.00    +0.018 A 
ATOM      4  C   UNL     1     -11.736  14.304  65.031  0.00  0.00    +0.089 A 
ATOM      5  N   UNL     1     -12.606  14.543  63.921  0.00  0.00    -0.128 NA
ATOM      6  C   UNL     1     -10.537  14.989  65.197  0.00  0.00    +0.018 A 
ATOM      7  C   UNL     1     -10.214  15.518  66.443  0.00  0.00    +0.008 A 
ENDROOT
BRANCH   1   8
ATOM      8  C   UNL     1     -11.231  16.289  68.578  0.00  0.00    +0.341 C 
ATOM      9  O   UNL     1     -10.934  17.494  68.310  0.00  0.00    -0.245 OA
BRANCH   8  10
ATOM     10  O   UNL     1     -12.242  16.153  69.536  0.00  0.00    -0.445 OA
BRANCH  10  12
ATOM     11  C   UNL     1     -13.189  15.462  71.626  0.00  0.00    +0.051 C 
ATOM     12  C   UNL     1     -11.945  15.889  70.901  0.00  0.00    +0.209 C 
ENDBRANCH  10  12
ENDBRANCH   8  10
ENDBRANCH   1   8
TORSDOF 3
ENDMDL
MODEL 4
REMARK VINA RESULT:      -4.7      6.166      7.303
REMARK  Name = 
REMARK  3 active torsions:
REMARK  status: ('A' for Active; 'I' for Inactive)
REMARK    1  A    between atoms: C_2  and  O_3
REMARK    2  A    between atoms: O_3  and  C_4
REMARK    3  A    between atoms: C_4  and  C_6
REMARK                            x       y       z     vdW  Elec       q    Type
REMARK                         _______ _______ _______ _____ _____    ______ ____
ROOT
ATOM      1  C   UNL     1     -12.586  14.678  70.763  0.00  0.00    +0.076 A 
ATOM      2  C   UNL     1     -13.804  14.707  71.431  0.00  0.00    +0.008 A 
ATOM      3  C   UNL     1     -13.946  15.400  72.627  0.00  0.00    +0.018 A 
ATOM      4  C   UNL     1     -12.843  15.983  73.244  0.00  0.00    +0.089 A 
ATOM      5  N   UNL     1     -12.602  15.855  74.648  0.00  0.00    -0.128 NA
ATOM      6  C   UNL     1     -11.848  16.363  72.350  0.00  0.00    +0.018 A 
ATOM      7  C   UNL     1     -11.682  15.657  71.163  0.00  0.00    +0.008 A 
ENDROOT
BRANCH   1   8
ATOM      8  C   UNL     1     -12.119  13.446  70.111  0.00  0.00    +0.341 C 
ATOM      9  O   UNL     1     -12.276  12.333  70.703  0.00  0.00    -0.245 OA
BRANCH   8  10
ATOM     10  O   UNL     1     -12.033  13.341  68.718  0.00  0.00    -0.445 OA
BRANCH  10  12
ATOM     11  C   UNL     1     -11.089  14.985  67.253  0.00  0.00    +0.051 C 
ATOM     12  C   UNL     1     -10.855  13.712  68.013  0.00  0.00    +0.209 C 
ENDBRANCH  10  12
ENDBRANCH   8  10
ENDBRANCH   1   8
TORSDOF 3
ENDMDL
MODEL 5
REMARK VINA RESULT:      -4.6      2.048      2.519
REMARK  Name = 
REMARK  3 active torsions:
REMARK  status: ('A' for Active; 'I' for Inactive)
REMARK    1  A    between atoms: C_2  and  O_3
REMARK    2  A    between atoms: O_3  and  C_4
REMARK    3  A    between atoms: C_4  and  C_6
REMARK                            x       y       z     vdW  Elec       q    Type
REMARK                         _______ _______ _______ _____ _____    ______ ____
ROOT
ATOM      1  C   UNL     1     -10.782  15.387  67.414  0.00  0.00    +0.076 A 
ATOM      2  C   UNL     1     -11.747  14.387  67.421  0.00  0.00    +0.008 A 
ATOM      3  C   UNL     1     -12.167  13.792  66.238  0.00  0.00    +0.018 A 
ATOM      4  C   UNL     1     -11.717  14.264  65.009  0.00  0.00    +0.089 A 
ATOM      5  N   UNL     1     -12.602  14.469  63.903  0.00  0.00    -0.128 NA
ATOM      6  C   UNL     1     -10.455  14.844  65.068  0.00  0.00    +0.018 A 
ATOM      7  C   UNL     1     -10.038  15.466  66.241  0.00  0.00    +0.008 A 
ENDROOT
BRANCH   1   8
ATOM      8  C   UNL     1     -10.900  16.548  68.308  0.00  0.00    +0.341 C 
ATOM      9  O   UNL     1     -11.726  16.507  69.272  0.00  0.00    -0.245 OA
BRANCH   8  10
ATOM     10  O   UNL     1      -9.830  17.427  68.513  0.00  0.00    -0.445 OA
BRANCH  10  12
ATOM     11  C   UNL     1     -10.612  19.185  67.086  0.00  0.00    +0.051 C 
ATOM     12  C   UNL     1      -9.990  18.835  68.407  0.00  0.00    +0.209 C 
ENDBRANCH  10  12
ENDBRANCH   8  10
ENDBRANCH   1   8
TORSDOF 3
ENDMDL
MODEL 6
REMARK VINA RESULT:      -4.5      2.799      4.487
REMARK  Name = 
REMARK  3 active torsions:
REMARK  status: ('A' for Active; 'I' for Inactive)
REMARK    1  A    between atoms: C_2  and  O_3
REMARK    2  A    between atoms: O_3  and  C_4
REMARK    3  A    between atoms: C_4  and  C_6
REMARK                            x       y       z     vdW  Elec       q    Type
REMARK                         _______ _______ _______ _____ _____    ______ ____
ROOT
ATOM      1  C   UNL     1     -11.643  14.335  66.089  0.00  0.00    +0.076 A 
ATOM      2  C   UNL     1     -11.635  13.535  67.226  0.00  0.00    +0.008 A 
ATOM      3  C   UNL     1     -10.441  13.192  67.850  0.00  0.00    +0.018 A 
ATOM      4  C   UNL     1      -9.219  13.544  67.283  0.00  0.00    +0.089 A 
ATOM      5  N   UNL     1      -8.131  12.620  67.189  0.00  0.00    -0.128 NA
ATOM      6  C   UNL     1      -9.279  14.703  66.517  0.00  0.00    +0.018 A 
ATOM      7  C   UNL     1     -10.464  15.038  65.868  0.00  0.00    +0.008 A 
ENDROOT
BRANCH   1   8
ATOM      8  C   UNL     1     -12.570  14.054  64.984  0.00  0.00    +0.341 C 
ATOM      9  O   UNL     1     -12.653  14.876  64.020  0.00  0.00    -0.245 OA
BRANCH   8  10
ATOM     10  O   UNL     1     -12.933  12.745  64.647  0.00  0.00    -0.445 OA
BRANCH  10  12
ATOM     11  C   UNL     1     -11.028  11.638  63.705  0.00  0.00    +0.051 C 
ATOM     12  C   UNL     1     -12.435  12.109  63.477  0.00  0.00    +0.209 C 
ENDBRANCH  10  12
ENDBRANCH   8  10
ENDBRANCH   1   8
TORSDOF 3
ENDMDL
MODEL 7
REMARK VINA RESULT:      -4.5      4.171      5.435
REMARK  Name = 
REMARK  3 active torsions:
REMARK  status: ('A' for Active; 'I' for Inactive)
REMARK    1  A    between atoms: C_2  and  O_3
REMARK    2  A    between atoms: O_3  and  C_4
REMARK    3  A    between atoms: C_4  and  C_6
REMARK                            x       y       z     vdW  Elec       q    Type
REMARK                         _______ _______ _______ _____ _____    ______ ____
ROOT
ATOM      1  C   UNL     1     -11.540  13.809  68.211  0.00  0.00    +0.076 A 
ATOM      2  C   UNL     1     -11.476  15.191  68.340  0.00  0.00    +0.008 A 
ATOM      3  C   UNL     1     -11.919  15.822  69.496  0.00  0.00    +0.018 A 
ATOM      4  C   UNL     1     -12.545  15.096  70.504  0.00  0.00    +0.089 A 
ATOM      5  N   UNL     1     -13.740  15.555  71.143  0.00  0.00    -0.128 NA
ATOM      6  C   UNL     1     -12.131  13.769  70.568  0.00  0.00    +0.018 A 
ATOM      7  C   UNL     1     -11.711  13.123  69.409  0.00  0.00    +0.008 A 
ENDROOT
BRANCH   1   8
ATOM      8  C   UNL     1     -11.920  13.193  66.932  0.00  0.00    +0.341 C 
ATOM      9  O   UNL     1     -12.085  11.935  66.873  0.00  0.00    -0.245 OA
BRANCH   8  10
ATOM     10  O   UNL     1     -12.629  13.905  65.958  0.00  0.00    -0.445 OA
BRANCH  10  12
ATOM     11  C   UNL     1     -12.080  13.156  63.749  0.00  0.00    +0.051 C 
ATOM     12  C   UNL     1     -12.027  14.292  64.729  0.00  0.00    +0.209 C 
ENDBRANCH  10  12
ENDBRANCH   8  10
ENDBRANCH   1   8
TORSDOF 3
ENDMDL
MODEL 8
REMARK VINA RESULT:      -4.5      3.549      4.214
REMARK  Name = 
REMARK  3 active torsions:
REMARK  status: ('A' for Active; 'I' for Inactive)
REMARK    1  A    between atoms: C_2  and  O_3
REMARK    2  A    between atoms: O_3  and  C_4
REMARK    3  A    between atoms: C_4  and  C_6
REMARK                            x       y       z     vdW  Elec       q    Type
REMARK                         _______ _______ _______ _____ _____    ______ ____
ROOT
ATOM      1  C   UNL     1     -11.122  14.533  67.599  0.00  0.00    +0.076 A 
ATOM      2  C   UNL     1     -11.550  13.898  66.439  0.00  0.00    +0.008 A 
ATOM      3  C   UNL     1     -11.348  14.477  65.192  0.00  0.00    +0.018 A 
ATOM      4  C   UNL     1     -10.820  15.760  65.084  0.00  0.00    +0.089 A 
ATOM      5  N   UNL     1     -11.374  16.739  64.200  0.00  0.00    -0.128 NA
ATOM      6  C   UNL     1      -9.978  16.101  66.138  0.00  0.00    +0.018 A 
ATOM      7  C   UNL     1     -10.191  15.545  67.395  0.00  0.00    +0.008 A 
ENDROOT
BRANCH   1   8
ATOM      8  C   UNL     1     -11.947  14.504  68.816  0.00  0.00    +0.341 C 
ATOM      9  O   UNL     1     -12.095  13.408  69.440  0.00  0.00    -0.245 OA
BRANCH   8  10
ATOM     10  O   UNL     1     -12.112  15.640  69.616  0.00  0.00    -0.445 OA
BRANCH  10  12
ATOM     11  C   UNL     1     -11.914  16.049  71.968  0.00  0.00    +0.051 C 
ATOM     12  C   UNL     1     -12.808  15.587  70.854  0.00  0.00    +0.209 C 
ENDBRANCH  10  12
ENDBRANCH   8  10
ENDBRANCH   1   8
TORSDOF 3
ENDMDL
MODEL 9
REMARK VINA RESULT:      -4.4      1.937      2.452
REMARK  Name = 
REMARK  3 active torsions:
REMARK  status: ('A' for Active; 'I' for Inactive)
REMARK    1  A    between atoms: C_2  and  O_3
REMARK    2  A    between atoms: O_3  and  C_4
REMARK    3  A    between atoms: C_4  and  C_6
REMARK                            x       y       z     vdW  Elec       q    Type
REMARK                         _______ _______ _______ _____ _____    ______ ____
ROOT
ATOM      1  C   UNL     1     -11.590  14.554  65.213  0.00  0.00    +0.076 A 
ATOM      2  C   UNL     1     -11.424  13.497  64.326  0.00  0.00    +0.008 A 
ATOM      3  C   UNL     1     -11.326  12.189  64.784  0.00  0.00    +0.018 A 
ATOM      4  C   UNL     1     -11.273  11.918  66.148  0.00  0.00    +0.089 A 
ATOM      5  N   UNL     1     -10.334  10.993  66.704  0.00  0.00    -0.128 NA
ATOM      6  C   UNL     1     -11.934  12.864  66.925  0.00  0.00    +0.018 A 
ATOM      7  C   UNL     1     -12.013  14.182  66.485  0.00  0.00    +0.008 A 
ENDROOT
BRANCH   1   8
ATOM      8  C   UNL     1     -10.893  15.830  64.996  0.00  0.00    +0.341 C 
ATOM      9  O   UNL     1     -11.372  16.666  64.170  0.00  0.00    -0.245 OA
BRANCH   8  10
ATOM     10  O   UNL     1     -10.096  16.407  65.991  0.00  0.00    -0.445 OA
BRANCH  10  12
ATOM     11  C   UNL     1      -8.441  15.045  67.062  0.00  0.00    +0.051 C 
ATOM     12  C   UNL     1      -8.701  16.146  66.075  0.00  0.00    +0.209 C 
ENDBRANCH  10  12
ENDBRANCH   8  10
ENDBRANCH   1   8
TORSDOF 3
ENDMDL
