MODEL 1
REMARK VINA RESULT:      -4.5      0.000      0.000
REMARK  Name = 
REMARK  1 active torsions:
REMARK  status: ('A' for Active; 'I' for Inactive)
REMARK    1  A    between atoms: N_2  and  C_3
REMARK                            x       y       z     vdW  Elec       q    Type
REMARK                         _______ _______ _______ _____ _____    ______ ____
ROOT
ATOM      1  C   UNL     1      -8.377  18.478  66.662  0.00  0.00    +0.059 C 
ATOM      2  C   UNL     1      -8.317  18.521  68.077  0.00  0.00    +0.014 C 
ATOM      3  C   UNL     1      -7.333  19.356  68.774  0.00  0.00    +0.001 C 
ATOM      4  C   UNL     1      -8.460  17.127  68.683  0.00  0.00    +0.001 C 
ATOM      5  C   UNL     1      -9.743  19.161  68.542  0.00  0.00    +0.001 C 
ATOM      6  C   UNL     1     -10.510  17.976  67.753  0.00  0.00    +0.001 C 
ATOM      7  C   UNL     1      -9.771  20.273  67.356  0.00  0.00    +0.000 C 
ATOM      8  C   UNL     1     -10.431  19.677  66.229  0.00  0.00    +0.001 C 
ATOM      9  C   UNL     1      -9.913  18.132  66.256  0.00  0.00    +0.015 C 
ATOM     10  C   UNL     1      -7.688  17.189  66.200  0.00  0.00    +0.017 C 
ENDROOT
BRANCH   1  12
ATOM     11  C   UNL     1      -6.774  19.489  65.292  0.00  0.00    +0.107 C 
ATOM     12  N   UNL     1      -7.883  19.474  65.818  0.00  0.00    -0.219 NA
ENDBRANCH   1  12
TORSDOF 1
ENDMDL
MODEL 2
REMARK VINA RESULT:      -4.3      5.349      6.745
REMARK  Name = 
REMARK  1 active torsions:
REMARK  status: ('A' for Active; 'I' for Inactive)
REMARK    1  A    between atoms: N_2  and  C_3
REMARK                            x       y       z     vdW  Elec       q    Type
REMARK                         _______ _______ _______ _____ _____    ______ ____
ROOT
ATOM      1  C   UNL     1     -11.554  13.338  66.840  0.00  0.00    +0.059 C 
ATOM      2  C   UNL     1     -10.302  13.813  66.378  0.00  0.00    +0.014 C 
ATOM      3  C   UNL     1      -9.055  13.105  66.686  0.00  0.00    +0.001 C 
ATOM      4  C   UNL     1     -10.188  15.327  66.538  0.00  0.00    +0.001 C 
ATOM      5  C   UNL     1     -10.389  13.723  64.752  0.00  0.00    +0.001 C 
ATOM      6  C   UNL     1     -11.702  14.666  64.790  0.00  0.00    +0.001 C 
ATOM      7  C   UNL     1     -11.146  12.284  64.749  0.00  0.00    +0.000 C 
ATOM      8  C   UNL     1     -12.558  12.547  64.788  0.00  0.00    +0.001 C 
ATOM      9  C   UNL     1     -12.680  13.836  65.778  0.00  0.00    +0.015 C 
ATOM     10  C   UNL     1     -11.956  14.176  68.059  0.00  0.00    +0.017 C 
ENDROOT
BRANCH   1  12
ATOM     11  C   UNL     1     -11.852  11.584  68.358  0.00  0.00    +0.107 C 
ATOM     12  N   UNL     1     -11.812  12.016  67.210  0.00  0.00    -0.219 NA
ENDBRANCH   1  12
TORSDOF 1
ENDMDL
MODEL 3
REMARK VINA RESULT:      -4.3      1.471      2.444
REMARK  Name = 
REMARK  1 active torsions:
REMARK  status: ('A' for Active; 'I' for Inactive)
REMARK    1  A    between atoms: N_2  and  C_3
REMARK                            x       y       z     vdW  Elec       q    Type
REMARK                         _______ _______ _______ _____ _____    ______ ____
ROOT
ATOM      1  C   UNL     1      -9.459  17.369  67.020  0.00  0.00    +0.059 C 
ATOM      2  C   UNL     1      -8.123  17.820  67.152  0.00  0.00    +0.014 C 
ATOM      3  C   UNL     1      -7.157  17.677  66.057  0.00  0.00    +0.001 C 
ATOM      4  C   UNL     1      -7.543  17.453  68.516  0.00  0.00    +0.001 C 
ATOM      5  C   UNL     1      -8.237  19.436  67.338  0.00  0.00    +0.001 C 
ATOM      6  C   UNL     1      -9.192  19.201  68.621  0.00  0.00    +0.001 C 
ATOM      7  C   UNL     1      -9.405  19.606  66.219  0.00  0.00    +0.000 C 
ATOM      8  C   UNL     1     -10.665  19.461  66.893  0.00  0.00    +0.001 C 
ATOM      9  C   UNL     1     -10.377  18.293  67.994  0.00  0.00    +0.015 C 
ATOM     10  C   UNL     1      -9.577  16.025  67.748  0.00  0.00    +0.017 C 
ENDROOT
BRANCH   1  12
ATOM     11  C   UNL     1     -10.530  16.108  65.367  0.00  0.00    +0.107 C 
ATOM     12  N   UNL     1     -10.114  17.178  65.802  0.00  0.00    -0.219 NA
ENDBRANCH   1  12
TORSDOF 1
ENDMDL
MODEL 4
REMARK VINA RESULT:      -4.3      1.761      3.445
REMARK  Name = 
REMARK  1 active torsions:
REMARK  status: ('A' for Active; 'I' for Inactive)
REMARK    1  A    between atoms: N_2  and  C_3
REMARK                            x       y       z     vdW  Elec       q    Type
REMARK                         _______ _______ _______ _____ _____    ______ ____
ROOT
ATOM      1  C   UNL     1      -9.527  17.406  68.090  0.00  0.00    +0.059 C 
ATOM      2  C   UNL     1      -9.375  17.327  66.684  0.00  0.00    +0.014 C 
ATOM      3  C   UNL     1     -10.363  16.639  65.847  0.00  0.00    +0.001 C 
ATOM      4  C   UNL     1      -7.933  17.009  66.297  0.00  0.00    +0.001 C 
ATOM      5  C   UNL     1      -9.457  18.870  66.162  0.00  0.00    +0.001 C 
ATOM      6  C   UNL     1      -8.222  19.244  67.137  0.00  0.00    +0.001 C 
ATOM      7  C   UNL     1     -10.668  19.276  67.169  0.00  0.00    +0.000 C 
ATOM      8  C   UNL     1     -10.069  19.743  68.388  0.00  0.00    +0.001 C 
ATOM      9  C   UNL     1      -8.779  18.765  68.579  0.00  0.00    +0.015 C 
ATOM     10  C   UNL     1      -8.604  16.358  68.723  0.00  0.00    +0.017 C 
ENDROOT
BRANCH   1  12
ATOM     11  C   UNL     1     -11.077  16.320  69.463  0.00  0.00    +0.107 C 
ATOM     12  N   UNL     1     -10.742  17.272  68.764  0.00  0.00    -0.219 NA
ENDBRANCH   1  12
TORSDOF 1
ENDMDL
MODEL 5
REMARK VINA RESULT:      -4.2      5.049      6.280
REMARK  Name = 
REMARK  1 active torsions:
REMARK  status: ('A' for Active; 'I' for Inactive)
REMARK    1  A    between atoms: N_2  and  C_3
REMARK                            x       y       z     vdW  Elec       q    Type
REMARK                         _______ _______ _______ _____ _____    ______ ____
ROOT
ATOM      1  C   UNL     1     -10.605  13.973  66.478  0.00  0.00    +0.059 C 
ATOM      2  C   UNL     1     -10.771  12.567  66.535  0.00  0.00    +0.014 C 
ATOM      3  C   UNL     1     -11.507  11.929  67.631  0.00  0.00    +0.001 C 
ATOM      4  C   UNL     1      -9.478  11.839  66.174  0.00  0.00    +0.001 C 
ATOM      5  C   UNL     1     -11.662  12.193  65.222  0.00  0.00    +0.001 C 
ATOM      6  C   UNL     1     -10.539  12.886  64.286  0.00  0.00    +0.001 C 
ATOM      7  C   UNL     1     -12.649  13.476  65.374  0.00  0.00    +0.000 C 
ATOM      8  C   UNL     1     -12.057  14.558  64.636  0.00  0.00    +0.001 C 
ATOM      9  C   UNL     1     -10.461  14.378  64.910  0.00  0.00    +0.015 C 
ATOM     10  C   UNL     1      -9.188  14.300  66.963  0.00  0.00    +0.017 C 
ENDROOT
BRANCH   1  12
ATOM     11  C   UNL     1     -11.104  15.623  68.058  0.00  0.00    +0.107 C 
ATOM     12  N   UNL     1     -11.430  14.895  67.125  0.00  0.00    -0.219 NA
ENDBRANCH   1  12
TORSDOF 1
ENDMDL
MODEL 6
REMARK VINA RESULT:      -4.1      0.924      2.651
REMARK  Name = 
REMARK  1 active torsions:
REMARK  status: ('A' for Active; 'I' for Inactive)
REMARK    1  A    between atoms: N_2  and  C_3
REMARK                            x       y       z     vdW  Elec       q    Type
REMARK                         _______ _______ _______ _____ _____    ______ ____
ROOT
ATOM      1  C   UNL     1      -8.290  18.896  66.901  0.00  0.00    +0.059 C 
ATOM      2  C   UNL     1      -9.684  19.121  67.017  0.00  0.00    +0.014 C 
ATOM      3  C   UNL     1     -10.469  19.644  65.894  0.00  0.00    +0.001 C 
ATOM      4  C   UNL     1     -10.034  19.774  68.351  0.00  0.00    +0.001 C 
ATOM      5  C   UNL     1     -10.331  17.645  67.265  0.00  0.00    +0.001 C 
ATOM      6  C   UNL     1      -9.382  17.468  68.562  0.00  0.00    +0.001 C 
ATOM      7  C   UNL     1      -9.370  16.905  66.182  0.00  0.00    +0.000 C 
ATOM      8  C   UNL     1      -8.189  16.481  66.882  0.00  0.00    +0.001 C 
ATOM      9  C   UNL     1      -7.909  17.696  67.930  0.00  0.00    +0.015 C 
ATOM     10  C   UNL     1      -7.567  20.064  67.581  0.00  0.00    +0.017 C 
ENDROOT
BRANCH   1  12
ATOM     11  C   UNL     1      -6.664  19.370  65.289  0.00  0.00    +0.107 C 
ATOM     12  N   UNL     1      -7.616  18.708  65.693  0.00  0.00    -0.219 NA
ENDBRANCH   1  12
TORSDOF 1
ENDMDL
MODEL 7
REMARK VINA RESULT:      -4.1      1.120      1.781
REMARK  Name = 
REMARK  1 active torsions:
REMARK  status: ('A' for Active; 'I' for Inactive)
REMARK    1  A    between atoms: N_2  and  C_3
REMARK                            x       y       z     vdW  Elec       q    Type
REMARK                         _______ _______ _______ _____ _____    ______ ____
ROOT
ATOM      1  C   UNL     1      -7.991  19.210  66.947  0.00  0.00    +0.059 C 
ATOM      2  C   UNL     1      -8.105  17.890  67.449  0.00  0.00    +0.014 C 
ATOM      3  C   UNL     1      -7.324  17.442  68.606  0.00  0.00    +0.001 C 
ATOM      4  C   UNL     1      -8.144  16.866  66.318  0.00  0.00    +0.001 C 
ATOM      5  C   UNL     1      -9.645  17.768  67.972  0.00  0.00    +0.001 C 
ATOM      6  C   UNL     1     -10.158  18.169  66.492  0.00  0.00    +0.001 C 
ATOM      7  C   UNL     1      -9.670  19.255  68.628  0.00  0.00    +0.000 C 
ATOM      8  C   UNL     1     -10.112  20.163  67.606  0.00  0.00    +0.001 C 
ATOM      9  C   UNL     1      -9.412  19.585  66.253  0.00  0.00    +0.015 C 
ATOM     10  C   UNL     1      -7.096  19.165  65.704  0.00  0.00    +0.017 C 
ENDROOT
BRANCH   1  12
ATOM     11  C   UNL     1      -6.488  20.919  67.483  0.00  0.00    +0.107 C 
ATOM     12  N   UNL     1      -7.528  20.300  67.686  0.00  0.00    -0.219 NA
ENDBRANCH   1  12
TORSDOF 1
ENDMDL
MODEL 8
REMARK VINA RESULT:      -4.1      1.332      2.971
REMARK  Name = 
REMARK  1 active torsions:
REMARK  status: ('A' for Active; 'I' for Inactive)
REMARK    1  A    between atoms: N_2  and  C_3
REMARK                            x       y       z     vdW  Elec       q    Type
REMARK                         _______ _______ _______ _____ _____    ______ ____
ROOT
ATOM      1  C   UNL     1      -8.106  18.609  68.089  0.00  0.00    +0.059 C 
ATOM      2  C   UNL     1      -7.780  19.280  66.884  0.00  0.00    +0.014 C 
ATOM      3  C   UNL     1      -6.986  18.626  65.838  0.00  0.00    +0.001 C 
ATOM      4  C   UNL     1      -7.357  20.723  67.147  0.00  0.00    +0.001 C 
ATOM      5  C   UNL     1      -9.210  19.550  66.150  0.00  0.00    +0.001 C 
ATOM      6  C   UNL     1      -9.712  20.347  67.464  0.00  0.00    +0.001 C 
ATOM      7  C   UNL     1      -9.820  18.091  66.527  0.00  0.00    +0.000 C 
ATOM      8  C   UNL     1     -10.474  18.219  67.800  0.00  0.00    +0.001 C 
ATOM      9  C   UNL     1      -9.506  19.238  68.625  0.00  0.00    +0.015 C 
ATOM     10  C   UNL     1      -7.157  19.115  69.181  0.00  0.00    +0.017 C 
ENDROOT
BRANCH   1  12
ATOM     11  C   UNL     1      -7.372  16.565  68.954  0.00  0.00    +0.107 C 
ATOM     12  N   UNL     1      -8.127  17.222  68.243  0.00  0.00    -0.219 NA
ENDBRANCH   1  12
TORSDOF 1
ENDMDL
MODEL 9
REMARK VINA RESULT:      -4.0      1.430      2.452
REMARK  Name = 
REMARK  1 active torsions:
REMARK  status: ('A' for Active; 'I' for Inactive)
REMARK    1  A    between atoms: N_2  and  C_3
REMARK                            x       y       z     vdW  Elec       q    Type
REMARK                         _______ _______ _______ _____ _____    ______ ____
ROOT
ATOM      1  C   UNL     1      -8.559  17.995  67.215  0.00  0.00    +0.059 C 
ATOM      2  C   UNL     1      -9.904  17.559  67.305  0.00  0.00    +0.014 C 
ATOM      3  C   UNL     1     -10.383  16.792  68.460  0.00  0.00    +0.001 C 
ATOM      4  C   UNL     1     -10.402  17.009  65.971  0.00  0.00    +0.001 C 
ATOM      5  C   UNL     1     -10.789  18.927  67.376  0.00  0.00    +0.001 C 
ATOM      6  C   UNL     1     -10.134  19.400  65.975  0.00  0.00    +0.001 C 
ATOM      7  C   UNL     1      -9.756  19.690  68.374  0.00  0.00    +0.000 C 
ATOM      8  C   UNL     1      -8.799  20.377  67.552  0.00  0.00    +0.001 C 
ATOM      9  C   UNL     1      -8.552  19.348  66.313  0.00  0.00    +0.015 C 
ATOM     10  C   UNL     1      -7.818  17.045  66.268  0.00  0.00    +0.017 C 
ENDROOT
BRANCH   1  12
ATOM     11  C   UNL     1      -6.738  17.448  68.576  0.00  0.00    +0.107 C 
ATOM     12  N   UNL     1      -7.704  18.156  68.307  0.00  0.00    -0.219 NA
ENDBRANCH   1  12
TORSDOF 1
ENDMDL
