MODEL 1
REMARK VINA RESULT:      -4.4      0.000      0.000
REMARK  Name = 
REMARK  0 active torsions:
REMARK  status: ('A' for Active; 'I' for Inactive)
REMARK                            x       y       z     vdW  Elec       q    Type
REMARK                         _______ _______ _______ _____ _____    ______ ____
ROOT
ATOM      1  C   UNL     1     -12.147  13.952  64.719  0.00  0.00    +0.126 C 
ATOM      2  N   UNL     1     -11.311  14.801  65.560  0.00  0.00    -0.191 N 
ATOM      3  C   UNL     1     -10.855  16.091  65.135  0.00  0.00    +0.270 C 
ATOM      4  O   UNL     1     -11.299  16.815  64.193  0.00  0.00    -0.271 OA
ATOM      5  C   UNL     1     -10.090  16.585  66.323  0.00  0.00    +0.206 C 
ATOM      6  C   UNL     1      -8.611  16.261  66.152  0.00  0.00    +0.053 C 
ATOM      7  C   UNL     1     -10.253  18.071  66.501  0.00  0.00    +0.053 C 
ATOM      8  O   UNL     1     -10.608  15.878  67.439  0.00  0.00    -0.433 OA
ATOM      9  C   UNL     1     -11.368  14.804  66.992  0.00  0.00    +0.411 C 
ATOM     10  O   UNL     1     -12.109  14.088  67.733  0.00  0.00    -0.226 OA
ENDROOT
TORSDOF 0
ENDMDL
MODEL 2
REMARK VINA RESULT:      -4.4      1.653      1.964
REMARK  Name = 
REMARK  0 active torsions:
REMARK  status: ('A' for Active; 'I' for Inactive)
REMARK                            x       y       z     vdW  Elec       q    Type
REMARK                         _______ _______ _______ _____ _____    ______ ____
ROOT
ATOM      1  C   UNL     1     -11.195  14.743  66.579  0.00  0.00    +0.126 C 
ATOM      2  N   UNL     1     -10.734  16.096  66.868  0.00  0.00    -0.191 N 
ATOM      3  C   UNL     1     -10.543  17.077  65.841  0.00  0.00    +0.270 C 
ATOM      4  O   UNL     1     -10.995  17.079  64.656  0.00  0.00    -0.271 OA
ATOM      5  C   UNL     1     -10.118  18.289  66.610  0.00  0.00    +0.206 C 
ATOM      6  C   UNL     1      -8.597  18.367  66.646  0.00  0.00    +0.053 C 
ATOM      7  C   UNL     1     -10.663  19.549  65.992  0.00  0.00    +0.053 C 
ATOM      8  O   UNL     1     -10.619  18.110  67.926  0.00  0.00    -0.433 OA
ATOM      9  C   UNL     1     -11.016  16.787  68.091  0.00  0.00    +0.411 C 
ATOM     10  O   UNL     1     -11.668  16.351  69.088  0.00  0.00    -0.226 OA
ENDROOT
TORSDOF 0
ENDMDL
MODEL 3
REMARK VINA RESULT:      -4.3      1.570      3.884
REMARK  Name = 
REMARK  0 active torsions:
REMARK  status: ('A' for Active; 'I' for Inactive)
REMARK                            x       y       z     vdW  Elec       q    Type
REMARK                         _______ _______ _______ _____ _____    ______ ____
ROOT
ATOM      1  C   UNL     1      -8.983  16.315  66.133  0.00  0.00    +0.126 C 
ATOM      2  N   UNL     1      -9.885  15.365  65.491  0.00  0.00    -0.191 N 
ATOM      3  C   UNL     1     -10.187  14.087  66.063  0.00  0.00    +0.270 C 
ATOM      4  O   UNL     1     -10.019  13.696  67.259  0.00  0.00    -0.271 OA
ATOM      5  C   UNL     1     -11.166  13.507  65.090  0.00  0.00    +0.206 C 
ATOM      6  C   UNL     1     -10.432  12.626  64.087  0.00  0.00    +0.053 C 
ATOM      7  C   UNL     1     -12.216  12.687  65.791  0.00  0.00    +0.053 C 
ATOM      8  O   UNL     1     -11.748  14.613  64.419  0.00  0.00    -0.433 OA
ATOM      9  C   UNL     1     -10.993  15.754  64.669  0.00  0.00    +0.411 C 
ATOM     10  O   UNL     1     -11.347  16.933  64.362  0.00  0.00    -0.226 OA
ENDROOT
TORSDOF 0
ENDMDL
MODEL 4
REMARK VINA RESULT:      -4.3      4.306      5.971
REMARK  Name = 
REMARK  0 active torsions:
REMARK  status: ('A' for Active; 'I' for Inactive)
REMARK                            x       y       z     vdW  Elec       q    Type
REMARK                         _______ _______ _______ _____ _____    ______ ____
ROOT
ATOM      1  C   UNL     1     -11.849  13.733  68.510  0.00  0.00    +0.126 C 
ATOM      2  N   UNL     1     -12.435  14.446  69.639  0.00  0.00    -0.191 N 
ATOM      3  C   UNL     1     -12.825  13.782  70.847  0.00  0.00    +0.270 C 
ATOM      4  O   UNL     1     -12.480  12.634  71.265  0.00  0.00    -0.271 OA
ATOM      5  C   UNL     1     -13.317  14.906  71.705  0.00  0.00    +0.206 C 
ATOM      6  C   UNL     1     -14.828  15.036  71.562  0.00  0.00    +0.053 C 
ATOM      7  C   UNL     1     -12.976  14.681  73.153  0.00  0.00    +0.053 C 
ATOM      8  O   UNL     1     -12.688  16.077  71.209  0.00  0.00    -0.433 OA
ATOM      9  C   UNL     1     -12.129  15.808  69.964  0.00  0.00    +0.411 C 
ATOM     10  O   UNL     1     -11.347  16.590  69.342  0.00  0.00    -0.226 OA
ENDROOT
TORSDOF 0
ENDMDL
MODEL 5
REMARK VINA RESULT:      -4.1      3.964      5.221
REMARK  Name = 
REMARK  0 active torsions:
REMARK  status: ('A' for Active; 'I' for Inactive)
REMARK                            x       y       z     vdW  Elec       q    Type
REMARK                         _______ _______ _______ _____ _____    ______ ____
ROOT
ATOM      1  C   UNL     1     -13.336  12.924  72.110  0.00  0.00    +0.126 C 
ATOM      2  N   UNL     1     -12.758  13.961  71.263  0.00  0.00    -0.191 N 
ATOM      3  C   UNL     1     -12.026  13.657  70.069  0.00  0.00    +0.270 C 
ATOM      4  O   UNL     1     -12.014  12.578  69.403  0.00  0.00    -0.271 OA
ATOM      5  C   UNL     1     -11.681  15.012  69.533  0.00  0.00    +0.206 C 
ATOM      6  C   UNL     1     -10.290  15.412  70.007  0.00  0.00    +0.053 C 
ATOM      7  C   UNL     1     -11.714  15.032  68.028  0.00  0.00    +0.053 C 
ATOM      8  O   UNL     1     -12.644  15.902  70.076  0.00  0.00    -0.433 OA
ATOM      9  C   UNL     1     -13.321  15.271  71.114  0.00  0.00    +0.411 C 
ATOM     10  O   UNL     1     -14.358  15.731  71.681  0.00  0.00    -0.226 OA
ENDROOT
TORSDOF 0
ENDMDL
MODEL 6
REMARK VINA RESULT:      -4.1      2.530      4.185
REMARK  Name = 
REMARK  0 active torsions:
REMARK  status: ('A' for Active; 'I' for Inactive)
REMARK                            x       y       z     vdW  Elec       q    Type
REMARK                         _______ _______ _______ _____ _____    ______ ____
ROOT
ATOM      1  C   UNL     1     -10.870  15.483  65.002  0.00  0.00    +0.126 C 
ATOM      2  N   UNL     1     -11.152  14.060  65.162  0.00  0.00    -0.191 N 
ATOM      3  C   UNL     1     -10.223  13.159  65.777  0.00  0.00    +0.270 C 
ATOM      4  O   UNL     1      -9.229  13.431  66.517  0.00  0.00    -0.271 OA
ATOM      5  C   UNL     1     -10.958  11.855  65.755  0.00  0.00    +0.206 C 
ATOM      6  C   UNL     1     -10.556  11.060  64.518  0.00  0.00    +0.053 C 
ATOM      7  C   UNL     1     -10.663  11.037  66.984  0.00  0.00    +0.053 C 
ATOM      8  O   UNL     1     -12.336  12.186  65.682  0.00  0.00    -0.433 OA
ATOM      9  C   UNL     1     -12.470  13.528  65.343  0.00  0.00    +0.411 C 
ATOM     10  O   UNL     1     -13.562  14.173  65.375  0.00  0.00    -0.226 OA
ENDROOT
TORSDOF 0
ENDMDL
MODEL 7
REMARK VINA RESULT:      -4.1      2.338      3.644
REMARK  Name = 
REMARK  0 active torsions:
REMARK  status: ('A' for Active; 'I' for Inactive)
REMARK                            x       y       z     vdW  Elec       q    Type
REMARK                         _______ _______ _______ _____ _____    ______ ____
ROOT
ATOM      1  C   UNL     1     -11.641  15.099  64.667  0.00  0.00    +0.126 C 
ATOM      2  N   UNL     1     -11.520  14.008  65.628  0.00  0.00    -0.191 N 
ATOM      3  C   UNL     1     -11.195  14.231  67.005  0.00  0.00    +0.270 C 
ATOM      4  O   UNL     1     -11.263  15.310  67.669  0.00  0.00    -0.271 OA
ATOM      5  C   UNL     1     -11.230  12.851  67.585  0.00  0.00    +0.206 C 
ATOM      6  C   UNL     1      -9.826  12.260  67.588  0.00  0.00    +0.053 C 
ATOM      7  C   UNL     1     -11.765  12.861  68.992  0.00  0.00    +0.053 C 
ATOM      8  O   UNL     1     -12.067  12.090  66.728  0.00  0.00    -0.433 OA
ATOM      9  C   UNL     1     -12.269  12.789  65.543  0.00  0.00    +0.411 C 
ATOM     10  O   UNL     1     -13.110  12.463  64.650  0.00  0.00    -0.226 OA
ENDROOT
TORSDOF 0
ENDMDL
MODEL 8
REMARK VINA RESULT:      -4.0      1.692      2.787
REMARK  Name = 
REMARK  0 active torsions:
REMARK  status: ('A' for Active; 'I' for Inactive)
REMARK                            x       y       z     vdW  Elec       q    Type
REMARK                         _______ _______ _______ _____ _____    ______ ____
ROOT
ATOM      1  C   UNL     1     -12.097  13.663  64.186  0.00  0.00    +0.126 C 
ATOM      2  N   UNL     1     -11.362  14.529  65.101  0.00  0.00    -0.191 N 
ATOM      3  C   UNL     1     -10.296  14.043  65.926  0.00  0.00    +0.270 C 
ATOM      4  O   UNL     1      -9.629  12.970  65.805  0.00  0.00    -0.271 OA
ATOM      5  C   UNL     1      -9.834  15.277  66.638  0.00  0.00    +0.206 C 
ATOM      6  C   UNL     1     -10.526  15.377  67.991  0.00  0.00    +0.053 C 
ATOM      7  C   UNL     1      -8.343  15.265  66.844  0.00  0.00    +0.053 C 
ATOM      8  O   UNL     1     -10.226  16.367  65.819  0.00  0.00    -0.433 OA
ATOM      9  C   UNL     1     -11.139  15.925  64.868  0.00  0.00    +0.411 C 
ATOM     10  O   UNL     1     -11.540  16.613  63.880  0.00  0.00    -0.226 OA
ENDROOT
TORSDOF 0
ENDMDL
MODEL 9
REMARK VINA RESULT:      -4.0      2.970      3.993
REMARK  Name = 
REMARK  0 active torsions:
REMARK  status: ('A' for Active; 'I' for Inactive)
REMARK                            x       y       z     vdW  Elec       q    Type
REMARK                         _______ _______ _______ _____ _____    ______ ____
ROOT
ATOM      1  C   UNL     1      -9.990  11.869  63.449  0.00  0.00    +0.126 C 
ATOM      2  N   UNL     1     -10.887  12.178  64.557  0.00  0.00    -0.191 N 
ATOM      3  C   UNL     1     -10.491  13.009  65.656  0.00  0.00    +0.270 C 
ATOM      4  O   UNL     1      -9.517  13.819  65.723  0.00  0.00    -0.271 OA
ATOM      5  C   UNL     1     -11.730  13.069  66.494  0.00  0.00    +0.206 C 
ATOM      6  C   UNL     1     -11.668  12.002  67.579  0.00  0.00    +0.053 C 
ATOM      7  C   UNL     1     -11.891  14.420  67.138  0.00  0.00    +0.053 C 
ATOM      8  O   UNL     1     -12.808  12.793  65.614  0.00  0.00    -0.433 OA
ATOM      9  C   UNL     1     -12.311  12.270  64.425  0.00  0.00    +0.411 C 
ATOM     10  O   UNL     1     -12.999  12.090  63.374  0.00  0.00    -0.226 OA
ENDROOT
TORSDOF 0
ENDMDL
