MODEL 1
REMARK VINA RESULT:      -3.6      0.000      0.000
REMARK  Name = 
REMARK  0 active torsions:
REMARK  status: ('A' for Active; 'I' for Inactive)
REMARK                            x       y       z     vdW  Elec       q    Type
REMARK                         _______ _______ _______ _____ _____    ______ ____
ROOT
ATOM      1  C   UNL     1     -12.422  15.569  74.435  0.00  0.00    +0.034 C 
ATOM      2  C   UNL     1     -12.807  15.929  73.033  0.00  0.00    +0.020 A 
ATOM      3  C   UNL     1     -11.953  15.847  71.939  0.00  0.00    +0.119 A 
ATOM      4  N   UNL     1     -12.735  15.988  70.842  0.00  0.00    -0.147 NA
ATOM      5  N   UNL     1     -13.864  15.379  71.185  0.00  0.00    -0.147 NA
ATOM      6  C   UNL     1     -14.058  15.642  72.499  0.00  0.00    +0.119 A 
ENDROOT
TORSDOF 0
ENDMDL
MODEL 2
REMARK VINA RESULT:      -3.6      1.984      2.416
REMARK  Name = 
REMARK  0 active torsions:
REMARK  status: ('A' for Active; 'I' for Inactive)
REMARK                            x       y       z     vdW  Elec       q    Type
REMARK                         _______ _______ _______ _____ _____    ______ ____
ROOT
ATOM      1  C   UNL     1     -13.225  12.437  71.932  0.00  0.00    +0.034 C 
ATOM      2  C   UNL     1     -13.701  13.762  72.444  0.00  0.00    +0.020 A 
ATOM      3  C   UNL     1     -12.879  14.714  73.038  0.00  0.00    +0.119 A 
ATOM      4  N   UNL     1     -13.613  15.850  73.107  0.00  0.00    -0.147 NA
ATOM      5  N   UNL     1     -14.343  15.817  71.999  0.00  0.00    -0.147 NA
ATOM      6  C   UNL     1     -14.667  14.519  71.791  0.00  0.00    +0.119 A 
ENDROOT
TORSDOF 0
ENDMDL
MODEL 3
REMARK VINA RESULT:      -3.3      7.192      7.846
REMARK  Name = 
REMARK  0 active torsions:
REMARK  status: ('A' for Active; 'I' for Inactive)
REMARK                            x       y       z     vdW  Elec       q    Type
REMARK                         _______ _______ _______ _____ _____    ______ ____
ROOT
ATOM      1  C   UNL     1     -11.672  12.573  66.887  0.00  0.00    +0.034 C 
ATOM      2  C   UNL     1     -12.302  13.158  65.660  0.00  0.00    +0.020 A 
ATOM      3  C   UNL     1     -12.030  14.430  65.170  0.00  0.00    +0.119 A 
ATOM      4  N   UNL     1     -12.572  14.477  63.930  0.00  0.00    -0.147 NA
ATOM      5  N   UNL     1     -12.393  13.246  63.465  0.00  0.00    -0.147 NA
ATOM      6  C   UNL     1     -12.562  12.411  64.518  0.00  0.00    +0.119 A 
ENDROOT
TORSDOF 0
ENDMDL
MODEL 4
REMARK VINA RESULT:      -3.3      7.804      8.591
REMARK  Name = 
REMARK  0 active torsions:
REMARK  status: ('A' for Active; 'I' for Inactive)
REMARK                            x       y       z     vdW  Elec       q    Type
REMARK                         _______ _______ _______ _____ _____    ______ ____
ROOT
ATOM      1  C   UNL     1     -10.569  11.209  64.720  0.00  0.00    +0.034 C 
ATOM      2  C   UNL     1     -11.740  12.135  64.600  0.00  0.00    +0.020 A 
ATOM      3  C   UNL     1     -12.158  13.004  65.602  0.00  0.00    +0.119 A 
ATOM      4  N   UNL     1     -13.049  13.843  65.022  0.00  0.00    -0.147 NA
ATOM      5  N   UNL     1     -12.570  14.005  63.794  0.00  0.00    -0.147 NA
ATOM      6  C   UNL     1     -12.049  12.811  63.425  0.00  0.00    +0.119 A 
ENDROOT
TORSDOF 0
ENDMDL
MODEL 5
REMARK VINA RESULT:      -3.2      1.613      2.696
REMARK  Name = 
REMARK  0 active torsions:
REMARK  status: ('A' for Active; 'I' for Inactive)
REMARK                            x       y       z     vdW  Elec       q    Type
REMARK                         _______ _______ _______ _____ _____    ______ ____
ROOT
ATOM      1  C   UNL     1     -12.047  14.494  70.087  0.00  0.00    +0.034 C 
ATOM      2  C   UNL     1     -12.778  15.360  71.067  0.00  0.00    +0.020 A 
ATOM      3  C   UNL     1     -14.074  15.121  71.509  0.00  0.00    +0.119 A 
ATOM      4  N   UNL     1     -14.266  15.945  72.567  0.00  0.00    -0.147 NA
ATOM      5  N   UNL     1     -13.077  15.977  73.156  0.00  0.00    -0.147 NA
ATOM      6  C   UNL     1     -12.156  15.946  72.163  0.00  0.00    +0.119 A 
ENDROOT
TORSDOF 0
ENDMDL
MODEL 6
REMARK VINA RESULT:      -3.2      7.753      8.362
REMARK  Name = 
REMARK  0 active torsions:
REMARK  status: ('A' for Active; 'I' for Inactive)
REMARK                            x       y       z     vdW  Elec       q    Type
REMARK                         _______ _______ _______ _____ _____    ______ ____
ROOT
ATOM      1  C   UNL     1     -10.109  14.258  65.362  0.00  0.00    +0.034 C 
ATOM      2  C   UNL     1     -11.326  13.751  64.652  0.00  0.00    +0.020 A 
ATOM      3  C   UNL     1     -11.318  12.714  63.726  0.00  0.00    +0.119 A 
ATOM      4  N   UNL     1     -12.616  12.381  63.527  0.00  0.00    -0.147 NA
ATOM      5  N   UNL     1     -13.168  12.553  64.722  0.00  0.00    -0.147 NA
ATOM      6  C   UNL     1     -12.565  13.634  65.271  0.00  0.00    +0.119 A 
ENDROOT
TORSDOF 0
ENDMDL
MODEL 7
REMARK VINA RESULT:      -3.2      7.076      7.786
REMARK  Name = 
REMARK  0 active torsions:
REMARK  status: ('A' for Active; 'I' for Inactive)
REMARK                            x       y       z     vdW  Elec       q    Type
REMARK                         _______ _______ _______ _____ _____    ______ ____
ROOT
ATOM      1  C   UNL     1     -11.810  13.225  67.122  0.00  0.00    +0.034 C 
ATOM      2  C   UNL     1     -11.812  13.378  65.632  0.00  0.00    +0.020 A 
ATOM      3  C   UNL     1     -12.521  12.558  64.761  0.00  0.00    +0.119 A 
ATOM      4  N   UNL     1     -12.487  13.175  63.556  0.00  0.00    -0.147 NA
ATOM      5  N   UNL     1     -12.540  14.465  63.865  0.00  0.00    -0.147 NA
ATOM      6  C   UNL     1     -11.820  14.617  65.002  0.00  0.00    +0.119 A 
ENDROOT
TORSDOF 0
ENDMDL
MODEL 8
REMARK VINA RESULT:      -3.2      1.465      2.266
REMARK  Name = 
REMARK  0 active torsions:
REMARK  status: ('A' for Active; 'I' for Inactive)
REMARK                            x       y       z     vdW  Elec       q    Type
REMARK                         _______ _______ _______ _____ _____    ______ ____
ROOT
ATOM      1  C   UNL     1     -15.198  15.127  71.440  0.00  0.00    +0.034 C 
ATOM      2  C   UNL     1     -13.749  15.210  71.811  0.00  0.00    +0.020 A 
ATOM      3  C   UNL     1     -12.736  15.582  70.935  0.00  0.00    +0.119 A 
ATOM      4  N   UNL     1     -11.640  15.797  71.701  0.00  0.00    -0.147 NA
ATOM      5  N   UNL     1     -12.137  16.315  72.817  0.00  0.00    -0.147 NA
ATOM      6  C   UNL     1     -13.314  15.683  73.043  0.00  0.00    +0.119 A 
ENDROOT
TORSDOF 0
ENDMDL
MODEL 9
REMARK VINA RESULT:      -3.0      7.092      7.466
REMARK  Name = 
REMARK  0 active torsions:
REMARK  status: ('A' for Active; 'I' for Inactive)
REMARK                            x       y       z     vdW  Elec       q    Type
REMARK                         _______ _______ _______ _____ _____    ______ ____
ROOT
ATOM      1  C   UNL     1     -10.265  14.239  66.652  0.00  0.00    +0.034 C 
ATOM      2  C   UNL     1     -11.266  14.903  65.756  0.00  0.00    +0.020 A 
ATOM      3  C   UNL     1     -10.950  15.875  64.814  0.00  0.00    +0.119 A 
ATOM      4  N   UNL     1     -12.053  16.016  64.039  0.00  0.00    -0.147 NA
ATOM      5  N   UNL     1     -12.546  14.785  63.973  0.00  0.00    -0.147 NA
ATOM      6  C   UNL     1     -12.334  14.221  65.186  0.00  0.00    +0.119 A 
ENDROOT
TORSDOF 0
ENDMDL
