MODEL 1
REMARK VINA RESULT:      -7.5      0.000      0.000
REMARK  Name = 
REMARK  2 active torsions:
REMARK  status: ('A' for Active; 'I' for Inactive)
REMARK    1  A    between atoms: C_11  and  C_12
REMARK    2  A    between atoms: C_15  and  C_16
REMARK                            x       y       z     vdW  Elec       q    Type
REMARK                         _______ _______ _______ _____ _____    ______ ____
ROOT
ATOM      1  O   UNL     1     -11.313  16.687  63.914  0.00  0.00    -0.283 OA
ATOM      2  C   UNL     1     -11.352  16.285  65.000  0.00  0.00    +0.234 C 
ATOM      3  C   UNL     1     -11.689  14.870  65.198  0.00  0.00    +0.233 C 
ATOM      4  O   UNL     1     -12.649  14.284  64.417  0.00  0.00    -0.283 OA
ATOM      5  C   UNL     1     -11.282  14.261  66.246  0.00  0.00    +0.059 C 
ATOM      6  C   UNL     1     -10.602  14.898  67.350  0.00  0.00    +0.195 C 
ATOM      7  O   UNL     1     -10.524  14.373  68.482  0.00  0.00    -0.287 OA
ATOM      8  C   UNL     1     -10.289  16.326  67.213  0.00  0.00    +0.042 A 
ATOM      9  C   UNL     1      -9.886  17.091  68.296  0.00  0.00    +0.003 A 
ATOM     10  C   UNL     1      -9.970  18.477  68.272  0.00  0.00    +0.000 A 
ATOM     11  C   UNL     1     -10.418  19.126  67.127  0.00  0.00    +0.000 A 
ATOM     12  C   UNL     1     -10.506  18.358  65.977  0.00  0.00    +0.003 A 
ATOM     13  C   UNL     1     -10.565  16.971  66.035  0.00  0.00    +0.045 A 
ENDROOT
BRANCH   5  14
ATOM     14  C   UNL     1     -11.284  12.639  66.267  0.00  0.00    +0.029 C 
ATOM     15  C   UNL     1      -9.770  12.506  66.951  0.00  0.00    +0.005 C 
ATOM     16  C   UNL     1      -9.574  11.020  66.932  0.00  0.00    +0.005 C 
ATOM     17  C   UNL     1      -9.062  10.679  65.386  0.00  0.00    +0.022 C 
ATOM     18  C   UNL     1     -10.563  10.999  64.744  0.00  0.00    +0.005 C 
ATOM     19  C   UNL     1     -10.632  12.528  64.738  0.00  0.00    +0.005 C 
BRANCH  17  20
ATOM     20  C   UNL     1      -9.386   9.089  65.510  0.00  0.00    -0.022 A 
ATOM     21  C   UNL     1      -8.315   8.253  65.584  0.00  0.00    -0.003 A 
ATOM     22  C   UNL     1      -8.599   6.904  65.750  0.00  0.00    +0.011 A 
ATOM     23  C   UNL     1      -9.589   6.596  66.660  0.00  0.00    +0.058 A 
ATOM     24 CL   UNL     1      -9.752   4.890  67.057  0.00  0.00    -0.082 Cl
ATOM     25  C   UNL     1     -10.551   7.537  66.943  0.00  0.00    +0.011 A 
ATOM     26  C   UNL     1     -10.338   8.839  66.500  0.00  0.00    -0.003 A 
ENDBRANCH  17  20
ENDBRANCH   5  14
TORSDOF 2
ENDMDL
MODEL 2
REMARK VINA RESULT:      -7.5      4.642      5.892
REMARK  Name = 
REMARK  2 active torsions:
REMARK  status: ('A' for Active; 'I' for Inactive)
REMARK    1  A    between atoms: C_11  and  C_12
REMARK    2  A    between atoms: C_15  and  C_16
REMARK                            x       y       z     vdW  Elec       q    Type
REMARK                         _______ _______ _______ _____ _____    ______ ____
ROOT
ATOM      1  O   UNL     1     -11.193  13.798  68.536  0.00  0.00    -0.283 OA
ATOM      2  C   UNL     1     -11.875  13.157  69.220  0.00  0.00    +0.234 C 
ATOM      3  C   UNL     1     -11.804  11.696  69.090  0.00  0.00    +0.233 C 
ATOM      4  O   UNL     1     -11.670  11.130  67.850  0.00  0.00    -0.283 OA
ATOM      5  C   UNL     1     -12.117  10.955  70.083  0.00  0.00    +0.059 C 
ATOM      6  C   UNL     1     -12.674  11.442  71.324  0.00  0.00    +0.195 C 
ATOM      7  O   UNL     1     -13.280  10.697  72.125  0.00  0.00    -0.287 OA
ATOM      8  C   UNL     1     -12.809  12.896  71.476  0.00  0.00    +0.042 A 
ATOM      9  C   UNL     1     -13.562  13.456  72.495  0.00  0.00    +0.003 A 
ATOM     10  C   UNL     1     -14.015  14.767  72.421  0.00  0.00    +0.000 A 
ATOM     11  C   UNL     1     -13.670  15.562  71.333  0.00  0.00    +0.000 A 
ATOM     12  C   UNL     1     -12.669  15.075  70.507  0.00  0.00    +0.003 A 
ATOM     13  C   UNL     1     -12.331  13.727  70.496  0.00  0.00    +0.045 A 
ENDROOT
BRANCH   5  14
ATOM     14  C   UNL     1     -11.645   9.403  70.089  0.00  0.00    +0.029 C 
ATOM     15  C   UNL     1     -11.625   9.269  71.750  0.00  0.00    +0.005 C 
ATOM     16  C   UNL     1     -11.084   7.882  71.920  0.00  0.00    +0.005 C 
ATOM     17  C   UNL     1      -9.435   8.047  71.770  0.00  0.00    +0.022 C 
ATOM     18  C   UNL     1      -9.544   8.350  70.139  0.00  0.00    +0.005 C 
ATOM     19  C   UNL     1     -10.028   9.800  70.074  0.00  0.00    +0.005 C 
BRANCH  17  20
ATOM     20  C   UNL     1      -9.187   6.458  71.522  0.00  0.00    -0.022 A 
ATOM     21  C   UNL     1      -9.383   5.637  72.590  0.00  0.00    -0.003 A 
ATOM     22  C   UNL     1      -9.228   4.277  72.355  0.00  0.00    +0.011 A 
ATOM     23  C   UNL     1      -9.782   3.791  71.189  0.00  0.00    +0.058 A 
ATOM     24 CL   UNL     1      -9.813   2.039  71.035  0.00  0.00    -0.082 Cl
ATOM     25  C   UNL     1      -9.970   4.650  70.131  0.00  0.00    +0.011 A 
ATOM     26  C   UNL     1      -9.836   6.014  70.370  0.00  0.00    -0.003 A 
ENDBRANCH  17  20
ENDBRANCH   5  14
TORSDOF 2
ENDMDL
MODEL 3
REMARK VINA RESULT:      -7.4      3.443      4.272
REMARK  Name = 
REMARK  2 active torsions:
REMARK  status: ('A' for Active; 'I' for Inactive)
REMARK    1  A    between atoms: C_11  and  C_12
REMARK    2  A    between atoms: C_15  and  C_16
REMARK                            x       y       z     vdW  Elec       q    Type
REMARK                         _______ _______ _______ _____ _____    ______ ____
ROOT
ATOM      1  O   UNL     1     -11.045  18.857  67.587  0.00  0.00    -0.283 OA
ATOM      2  C   UNL     1     -10.091  18.228  67.780  0.00  0.00    +0.234 C 
ATOM      3  C   UNL     1     -10.203  17.063  68.668  0.00  0.00    +0.233 C 
ATOM      4  O   UNL     1     -10.986  17.136  69.790  0.00  0.00    -0.283 OA
ATOM      5  C   UNL     1      -9.389  16.087  68.540  0.00  0.00    +0.059 C 
ATOM      6  C   UNL     1      -8.250  16.082  67.650  0.00  0.00    +0.195 C 
ATOM      7  O   UNL     1      -7.295  15.286  67.787  0.00  0.00    -0.287 OA
ATOM      8  C   UNL     1      -8.073  17.251  66.779  0.00  0.00    +0.042 A 
ATOM      9  C   UNL     1      -6.892  17.474  66.090  0.00  0.00    +0.003 A 
ATOM     10  C   UNL     1      -6.570  18.733  65.597  0.00  0.00    +0.000 A 
ATOM     11  C   UNL     1      -7.464  19.787  65.747  0.00  0.00    +0.000 A 
ATOM     12  C   UNL     1      -8.748  19.455  66.152  0.00  0.00    +0.003 A 
ATOM     13  C   UNL     1      -9.020  18.243  66.774  0.00  0.00    +0.045 A 
ENDROOT
BRANCH   5  14
ATOM     14  C   UNL     1      -9.761  14.656  69.207  0.00  0.00    +0.029 C 
ATOM     15  C   UNL     1      -9.486  13.778  67.818  0.00  0.00    +0.005 C 
ATOM     16  C   UNL     1      -9.908  12.407  68.255  0.00  0.00    +0.005 C 
ATOM     17  C   UNL     1     -11.564  12.403  68.102  0.00  0.00    +0.022 C 
ATOM     18  C   UNL     1     -11.756  13.428  69.398  0.00  0.00    +0.005 C 
ATOM     19  C   UNL     1     -11.377  14.798  68.832  0.00  0.00    +0.005 C 
BRANCH  17  20
ATOM     20  C   UNL     1     -11.758  11.085  69.037  0.00  0.00    -0.022 A 
ATOM     21  C   UNL     1     -10.654  10.316  69.243  0.00  0.00    -0.003 A 
ATOM     22  C   UNL     1     -10.813   9.227  70.090  0.00  0.00    +0.011 A 
ATOM     23  C   UNL     1     -11.539   9.449  71.241  0.00  0.00    +0.058 A 
ATOM     24 CL   UNL     1     -11.506   8.147  72.424  0.00  0.00    -0.082 Cl
ATOM     25  C   UNL     1     -12.460  10.471  71.262  0.00  0.00    +0.011 A 
ATOM     26  C   UNL     1     -12.432  11.393  70.220  0.00  0.00    -0.003 A 
ENDBRANCH  17  20
ENDBRANCH   5  14
TORSDOF 2
ENDMDL
MODEL 4
REMARK VINA RESULT:      -7.3      1.182      1.423
REMARK  Name = 
REMARK  2 active torsions:
REMARK  status: ('A' for Active; 'I' for Inactive)
REMARK    1  A    between atoms: C_11  and  C_12
REMARK    2  A    between atoms: C_15  and  C_16
REMARK                            x       y       z     vdW  Elec       q    Type
REMARK                         _______ _______ _______ _____ _____    ______ ____
ROOT
ATOM      1  O   UNL     1     -11.050  16.716  64.280  0.00  0.00    -0.283 OA
ATOM      2  C   UNL     1     -11.110  16.515  65.419  0.00  0.00    +0.234 C 
ATOM      3  C   UNL     1     -11.400  15.145  65.863  0.00  0.00    +0.233 C 
ATOM      4  O   UNL     1     -12.311  14.387  65.176  0.00  0.00    -0.283 OA
ATOM      5  C   UNL     1     -11.006  14.754  67.014  0.00  0.00    +0.059 C 
ATOM      6  C   UNL     1     -10.388  15.609  68.002  0.00  0.00    +0.195 C 
ATOM      7  O   UNL     1     -10.328  15.301  69.212  0.00  0.00    -0.287 OA
ATOM      8  C   UNL     1     -10.124  17.001  67.615  0.00  0.00    +0.042 A 
ATOM      9  C   UNL     1      -9.786  17.966  68.551  0.00  0.00    +0.003 A 
ATOM     10  C   UNL     1      -9.922  19.320  68.273  0.00  0.00    +0.000 A 
ATOM     11  C   UNL     1     -10.356  19.731  67.017  0.00  0.00    +0.000 A 
ATOM     12  C   UNL     1     -10.377  18.764  66.024  0.00  0.00    +0.003 A 
ATOM     13  C   UNL     1     -10.385  17.410  66.333  0.00  0.00    +0.045 A 
ENDROOT
BRANCH   5  14
ATOM     14  C   UNL     1     -10.947  13.164  67.330  0.00  0.00    +0.029 C 
ATOM     15  C   UNL     1      -9.413  13.207  67.979  0.00  0.00    +0.005 C 
ATOM     16  C   UNL     1      -9.163  11.750  68.224  0.00  0.00    +0.005 C 
ATOM     17  C   UNL     1      -8.677  11.148  66.751  0.00  0.00    +0.022 C 
ATOM     18  C   UNL     1     -10.204  11.298  66.109  0.00  0.00    +0.005 C 
ATOM     19  C   UNL     1     -10.330  12.796  65.827  0.00  0.00    +0.005 C 
BRANCH  17  20
ATOM     20  C   UNL     1      -8.939   9.598  67.172  0.00  0.00    -0.022 A 
ATOM     21  C   UNL     1      -8.965   9.325  68.506  0.00  0.00    -0.003 A 
ATOM     22  C   UNL     1      -9.249   8.012  68.859  0.00  0.00    +0.011 A 
ATOM     23  C   UNL     1     -10.268   7.399  68.162  0.00  0.00    +0.058 A 
ATOM     24 CL   UNL     1     -10.793   5.843  68.794  0.00  0.00    -0.082 Cl
ATOM     25  C   UNL     1     -10.578   7.850  66.899  0.00  0.00    +0.011 A 
ATOM     26  C   UNL     1     -10.030   9.061  66.488  0.00  0.00    -0.003 A 
ENDBRANCH  17  20
ENDBRANCH   5  14
TORSDOF 2
ENDMDL
MODEL 5
REMARK VINA RESULT:      -7.2      3.282      4.551
REMARK  Name = 
REMARK  2 active torsions:
REMARK  status: ('A' for Active; 'I' for Inactive)
REMARK    1  A    between atoms: C_11  and  C_12
REMARK    2  A    between atoms: C_15  and  C_16
REMARK                            x       y       z     vdW  Elec       q    Type
REMARK                         _______ _______ _______ _____ _____    ______ ____
ROOT
ATOM      1  O   UNL     1     -10.937  16.951  69.638  0.00  0.00    -0.283 OA
ATOM      2  C   UNL     1     -11.422  15.937  69.354  0.00  0.00    +0.234 C 
ATOM      3  C   UNL     1     -11.099  15.364  68.040  0.00  0.00    +0.233 C 
ATOM      4  O   UNL     1     -10.986  16.185  66.950  0.00  0.00    -0.283 OA
ATOM      5  C   UNL     1     -11.172  14.101  67.864  0.00  0.00    +0.059 C 
ATOM      6  C   UNL     1     -11.684  13.166  68.840  0.00  0.00    +0.195 C 
ATOM      7  O   UNL     1     -12.062  12.015  68.532  0.00  0.00    -0.287 OA
ATOM      8  C   UNL     1     -12.066  13.706  70.151  0.00  0.00    +0.042 A 
ATOM      9  C   UNL     1     -12.806  12.964  71.058  0.00  0.00    +0.003 A 
ATOM     10  C   UNL     1     -13.495  13.574  72.099  0.00  0.00    +0.000 A 
ATOM     11  C   UNL     1     -13.408  14.950  72.277  0.00  0.00    +0.000 A 
ATOM     12  C   UNL     1     -12.421  15.604  71.557  0.00  0.00    +0.003 A 
ATOM     13  C   UNL     1     -11.846  15.031  70.430  0.00  0.00    +0.045 A 
ENDROOT
BRANCH   5  14
ATOM     14  C   UNL     1     -10.427  13.438  66.584  0.00  0.00    +0.029 C 
ATOM     15  C   UNL     1     -11.783  12.644  66.029  0.00  0.00    +0.005 C 
ATOM     16  C   UNL     1     -11.213  11.872  64.877  0.00  0.00    +0.005 C 
ATOM     17  C   UNL     1     -10.529  10.522  65.568  0.00  0.00    +0.022 C 
ATOM     18  C   UNL     1      -9.294  11.407  66.244  0.00  0.00    +0.005 C 
ATOM     19  C   UNL     1      -9.956  12.090  67.442  0.00  0.00    +0.005 C 
BRANCH  17  20
ATOM     20  C   UNL     1      -9.638  10.164  64.254  0.00  0.00    -0.022 A 
ATOM     21  C   UNL     1      -9.812  10.962  63.164  0.00  0.00    -0.003 A 
ATOM     22  C   UNL     1      -9.005  10.687  62.068  0.00  0.00    +0.011 A 
ATOM     23  C   UNL     1      -7.679  10.422  62.337  0.00  0.00    +0.058 A 
ATOM     24 CL   UNL     1      -6.620  10.343  60.934  0.00  0.00    -0.082 Cl
ATOM     25  C   UNL     1      -7.334   9.938  63.577  0.00  0.00    +0.011 A 
ATOM     26  C   UNL     1      -8.294   9.983  64.583  0.00  0.00    -0.003 A 
ENDBRANCH  17  20
ENDBRANCH   5  14
TORSDOF 2
ENDMDL
MODEL 6
REMARK VINA RESULT:      -7.2      2.947      3.719
REMARK  Name = 
REMARK  2 active torsions:
REMARK  status: ('A' for Active; 'I' for Inactive)
REMARK    1  A    between atoms: C_11  and  C_12
REMARK    2  A    between atoms: C_15  and  C_16
REMARK                            x       y       z     vdW  Elec       q    Type
REMARK                         _______ _______ _______ _____ _____    ______ ____
ROOT
ATOM      1  O   UNL     1     -10.799  16.207  66.548  0.00  0.00    -0.283 OA
ATOM      2  C   UNL     1     -11.348  15.246  66.890  0.00  0.00    +0.234 C 
ATOM      3  C   UNL     1     -11.568  14.188  65.895  0.00  0.00    +0.233 C 
ATOM      4  O   UNL     1     -11.905  14.523  64.610  0.00  0.00    -0.283 OA
ATOM      5  C   UNL     1     -11.695  12.975  66.276  0.00  0.00    +0.059 C 
ATOM      6  C   UNL     1     -11.768  12.554  67.656  0.00  0.00    +0.195 C 
ATOM      7  O   UNL     1     -12.227  11.441  67.994  0.00  0.00    -0.287 OA
ATOM      8  C   UNL     1     -11.602  13.589  68.684  0.00  0.00    +0.042 A 
ATOM      9  C   UNL     1     -11.913  13.353  70.014  0.00  0.00    +0.003 A 
ATOM     10  C   UNL     1     -12.137  14.399  70.900  0.00  0.00    +0.000 A 
ATOM     11  C   UNL     1     -11.999  15.714  70.471  0.00  0.00    +0.000 A 
ATOM     12  C   UNL     1     -11.386  15.901  69.242  0.00  0.00    +0.003 A 
ATOM     13  C   UNL     1     -11.301  14.873  68.311  0.00  0.00    +0.045 A 
ENDROOT
BRANCH   5  14
ATOM     14  C   UNL     1     -11.514  11.784  65.189  0.00  0.00    +0.029 C 
ATOM     15  C   UNL     1     -10.288  11.021  66.021  0.00  0.00    +0.005 C 
ATOM     16  C   UNL     1      -9.924   9.929  65.061  0.00  0.00    +0.005 C 
ATOM     17  C   UNL     1      -8.916  10.655  63.954  0.00  0.00    +0.022 C 
ATOM     18  C   UNL     1     -10.165  11.523  63.282  0.00  0.00    +0.005 C 
ATOM     19  C   UNL     1     -10.406  12.646  64.293  0.00  0.00    +0.005 C 
BRANCH  17  20
ATOM     20  C   UNL     1      -9.075   9.460  62.860  0.00  0.00    -0.022 A 
ATOM     21  C   UNL     1      -9.007   9.822  61.549  0.00  0.00    -0.003 A 
ATOM     22  C   UNL     1      -9.083   8.790  60.623  0.00  0.00    +0.011 A 
ATOM     23  C   UNL     1      -8.353   7.656  60.910  0.00  0.00    +0.058 A 
ATOM     24 CL   UNL     1      -8.244   6.473  59.612  0.00  0.00    -0.082 Cl
ATOM     25  C   UNL     1      -8.043   7.376  62.221  0.00  0.00    +0.011 A 
ATOM     26  C   UNL     1      -8.253   8.375  63.166  0.00  0.00    -0.003 A 
ENDBRANCH  17  20
ENDBRANCH   5  14
TORSDOF 2
ENDMDL
MODEL 7
REMARK VINA RESULT:      -7.2      3.739      5.797
REMARK  Name = 
REMARK  2 active torsions:
REMARK  status: ('A' for Active; 'I' for Inactive)
REMARK    1  A    between atoms: C_11  and  C_12
REMARK    2  A    between atoms: C_15  and  C_16
REMARK                            x       y       z     vdW  Elec       q    Type
REMARK                         _______ _______ _______ _____ _____    ______ ____
ROOT
ATOM      1  O   UNL     1      -6.932  21.345  66.975  0.00  0.00    -0.283 OA
ATOM      2  C   UNL     1      -7.175  20.461  67.685  0.00  0.00    +0.234 C 
ATOM      3  C   UNL     1      -8.258  19.547  67.300  0.00  0.00    +0.233 C 
ATOM      4  O   UNL     1      -9.395  20.045  66.719  0.00  0.00    -0.283 OA
ATOM      5  C   UNL     1      -8.254  18.343  67.728  0.00  0.00    +0.059 C 
ATOM      6  C   UNL     1      -7.313  17.820  68.692  0.00  0.00    +0.195 C 
ATOM      7  O   UNL     1      -7.530  16.773  69.341  0.00  0.00    -0.287 OA
ATOM      8  C   UNL     1      -6.242  18.718  69.141  0.00  0.00    +0.042 A 
ATOM      9  C   UNL     1      -5.455  18.421  70.242  0.00  0.00    +0.003 A 
ATOM     10  C   UNL     1      -4.732  19.408  70.900  0.00  0.00    +0.000 A 
ATOM     11  C   UNL     1      -4.748  20.715  70.425  0.00  0.00    +0.000 A 
ATOM     12  C   UNL     1      -5.280  20.905  69.159  0.00  0.00    +0.003 A 
ATOM     13  C   UNL     1      -6.120  19.963  68.578  0.00  0.00    +0.045 A 
ENDROOT
BRANCH   5  14
ATOM     14  C   UNL     1      -9.183  17.238  66.986  0.00  0.00    +0.029 C 
ATOM     15  C   UNL     1     -10.004  16.796  68.367  0.00  0.00    +0.005 C 
ATOM     16  C   UNL     1     -10.847  15.669  67.852  0.00  0.00    +0.005 C 
ATOM     17  C   UNL     1      -9.837  14.346  67.856  0.00  0.00    +0.022 C 
ATOM     18  C   UNL     1      -8.947  14.935  66.580  0.00  0.00    +0.005 C 
ATOM     19  C   UNL     1      -8.075  16.017  67.220  0.00  0.00    +0.005 C 
BRANCH  17  20
ATOM     20  C   UNL     1     -10.793  13.475  66.868  0.00  0.00    -0.022 A 
ATOM     21  C   UNL     1     -11.736  14.164  66.168  0.00  0.00    -0.003 A 
ATOM     22  C   UNL     1     -12.507  13.423  65.283  0.00  0.00    +0.011 A 
ATOM     23  C   UNL     1     -11.834  12.496  64.515  0.00  0.00    +0.058 A 
ATOM     24 CL   UNL     1     -12.770  11.760  63.219  0.00  0.00    -0.082 Cl
ATOM     25  C   UNL     1     -10.643  11.985  64.976  0.00  0.00    +0.011 A 
ATOM     26  C   UNL     1     -10.045  12.613  66.064  0.00  0.00    -0.003 A 
ENDBRANCH  17  20
ENDBRANCH   5  14
TORSDOF 2
ENDMDL
MODEL 8
REMARK VINA RESULT:      -7.1      4.913      8.410
REMARK  Name = 
REMARK  2 active torsions:
REMARK  status: ('A' for Active; 'I' for Inactive)
REMARK    1  A    between atoms: C_11  and  C_12
REMARK    2  A    between atoms: C_15  and  C_16
REMARK                            x       y       z     vdW  Elec       q    Type
REMARK                         _______ _______ _______ _____ _____    ______ ____
ROOT
ATOM      1  O   UNL     1     -13.510  13.847  72.728  0.00  0.00    -0.283 OA
ATOM      2  C   UNL     1     -13.181  13.606  71.644  0.00  0.00    +0.234 C 
ATOM      3  C   UNL     1     -12.799  14.726  70.774  0.00  0.00    +0.233 C 
ATOM      4  O   UNL     1     -13.502  15.900  70.830  0.00  0.00    -0.283 OA
ATOM      5  C   UNL     1     -11.993  14.529  69.802  0.00  0.00    +0.059 C 
ATOM      6  C   UNL     1     -11.505  13.231  69.394  0.00  0.00    +0.195 C 
ATOM      7  O   UNL     1     -11.011  13.026  68.264  0.00  0.00    -0.287 OA
ATOM      8  C   UNL     1     -11.903  12.077  70.208  0.00  0.00    +0.042 A 
ATOM      9  C   UNL     1     -11.720  10.775  69.768  0.00  0.00    +0.003 A 
ATOM     10  C   UNL     1     -12.428   9.718  70.324  0.00  0.00    +0.000 A 
ATOM     11  C   UNL     1     -13.305   9.947  71.379  0.00  0.00    +0.000 A 
ATOM     12  C   UNL     1     -13.223  11.189  71.991  0.00  0.00    +0.003 A 
ATOM     13  C   UNL     1     -12.633  12.273  71.352  0.00  0.00    +0.045 A 
ENDROOT
BRANCH   5  14
ATOM     14  C   UNL     1     -11.253  15.801  69.120  0.00  0.00    +0.029 C 
ATOM     15  C   UNL     1     -11.340  15.199  67.569  0.00  0.00    +0.005 C 
ATOM     16  C   UNL     1     -10.575  16.242  66.812  0.00  0.00    +0.005 C 
ATOM     17  C   UNL     1      -8.976  15.839  67.032  0.00  0.00    +0.022 C 
ATOM     18  C   UNL     1      -9.008  16.297  68.630  0.00  0.00    +0.005 C 
ATOM     19  C   UNL     1      -9.736  15.142  69.320  0.00  0.00    +0.005 C 
BRANCH  17  20
ATOM     20  C   UNL     1      -8.428  17.297  66.560  0.00  0.00    -0.022 A 
ATOM     21  C   UNL     1      -8.773  18.359  67.340  0.00  0.00    -0.003 A 
ATOM     22  C   UNL     1      -8.253  19.590  66.965  0.00  0.00    +0.011 A 
ATOM     23  C   UNL     1      -6.926  19.604  66.589  0.00  0.00    +0.058 A 
ATOM     24 CL   UNL     1      -6.212  21.198  66.378  0.00  0.00    -0.082 Cl
ATOM     25  C   UNL     1      -6.356  18.447  66.111  0.00  0.00    +0.011 A 
ATOM     26  C   UNL     1      -7.064  17.260  66.269  0.00  0.00    -0.003 A 
ENDBRANCH  17  20
ENDBRANCH   5  14
TORSDOF 2
ENDMDL
MODEL 9
REMARK VINA RESULT:      -7.1      3.932      8.506
REMARK  Name = 
REMARK  2 active torsions:
REMARK  status: ('A' for Active; 'I' for Inactive)
REMARK    1  A    between atoms: C_11  and  C_12
REMARK    2  A    between atoms: C_15  and  C_16
REMARK                            x       y       z     vdW  Elec       q    Type
REMARK                         _______ _______ _______ _____ _____    ______ ____
ROOT
ATOM      1  O   UNL     1     -11.315   9.170  71.723  0.00  0.00    -0.283 OA
ATOM      2  C   UNL     1     -11.464   9.407  70.599  0.00  0.00    +0.234 C 
ATOM      3  C   UNL     1     -11.681  10.808  70.213  0.00  0.00    +0.233 C 
ATOM      4  O   UNL     1     -12.458  11.617  70.999  0.00  0.00    -0.283 OA
ATOM      5  C   UNL     1     -11.365  11.199  69.038  0.00  0.00    +0.059 C 
ATOM      6  C   UNL     1     -10.914  10.326  67.979  0.00  0.00    +0.195 C 
ATOM      7  O   UNL     1     -10.942  10.662  66.775  0.00  0.00    -0.287 OA
ATOM      8  C   UNL     1     -10.731   8.907  68.309  0.00  0.00    +0.042 A 
ATOM      9  C   UNL     1     -10.562   7.945  67.326  0.00  0.00    +0.003 A 
ATOM     10  C   UNL     1     -10.782   6.599  67.588  0.00  0.00    +0.000 A 
ATOM     11  C   UNL     1     -11.129   6.188  68.870  0.00  0.00    +0.000 A 
ATOM     12  C   UNL     1     -10.978   7.125  69.880  0.00  0.00    +0.003 A 
ATOM     13  C   UNL     1     -10.903   8.484  69.602  0.00  0.00    +0.045 A 
ENDROOT
BRANCH   5  14
ATOM     14  C   UNL     1     -11.205  12.787  68.752  0.00  0.00    +0.029 C 
ATOM     15  C   UNL     1     -11.813  12.712  67.202  0.00  0.00    +0.005 C 
ATOM     16  C   UNL     1     -11.621  14.127  66.748  0.00  0.00    +0.005 C 
ATOM     17  C   UNL     1     -10.028  14.209  66.273  0.00  0.00    +0.022 C 
ATOM     18  C   UNL     1      -9.483  14.103  67.840  0.00  0.00    +0.005 C 
ATOM     19  C   UNL     1      -9.650  12.620  68.179  0.00  0.00    +0.005 C 
BRANCH  17  20
ATOM     20  C   UNL     1      -9.987  15.836  66.303  0.00  0.00    -0.022 A 
ATOM     21  C   UNL     1     -10.648  16.443  67.327  0.00  0.00    -0.003 A 
ATOM     22  C   UNL     1     -10.559  17.828  67.379  0.00  0.00    +0.011 A 
ATOM     23  C   UNL     1      -9.312  18.369  67.144  0.00  0.00    +0.058 A 
ATOM     24 CL   UNL     1      -9.155  20.089  67.476  0.00  0.00    -0.082 Cl
ATOM     25  C   UNL     1      -8.404  17.653  66.398  0.00  0.00    +0.011 A 
ATOM     26  C   UNL     1      -8.688  16.316  66.136  0.00  0.00    -0.003 A 
ENDBRANCH  17  20
ENDBRANCH   5  14
TORSDOF 2
ENDMDL
