MODEL 1
REMARK VINA RESULT:      -7.2      0.000      0.000
REMARK  Name = 
REMARK  2 active torsions:
REMARK  status: ('A' for Active; 'I' for Inactive)
REMARK    1  A    between atoms: N_6  and  C_7
REMARK    2  A    between atoms: C_7  and  C_8
REMARK                            x       y       z     vdW  Elec       q    Type
REMARK                         _______ _______ _______ _____ _____    ______ ____
ROOT
ATOM      1  C   UNL     1      -9.623  15.671  67.685  0.00  0.00    +0.085 C 
ATOM      2  C   UNL     1     -10.975  15.913  68.518  0.00  0.00    +0.176 C 
ATOM      3  O   UNL     1     -11.096  17.097  68.944  0.00  0.00    -0.291 OA
ATOM      4  C   UNL     1     -11.245  14.847  69.483  0.00  0.00    +0.048 A 
ATOM      5  C   UNL     1     -11.873  14.819  70.715  0.00  0.00    +0.020 A 
ATOM      6  C   UNL     1     -12.375  13.536  70.900  0.00  0.00    +0.060 A 
ATOM      7  N   UNL     1     -11.862  12.768  69.919  0.00  0.00    -0.329 N 
ATOM      8  C   UNL     1     -12.052  11.343  69.761  0.00  0.00    +0.130 C 
ATOM      9  C   UNL     1     -13.446  13.368  71.772  0.00  0.00    +0.017 A 
ATOM     10  C   UNL     1     -14.048  14.479  72.349  0.00  0.00    +0.001 A 
ATOM     11  C   UNL     1     -13.259  15.615  72.484  0.00  0.00    +0.000 A 
ATOM     12  C   UNL     1     -12.235  15.847  71.579  0.00  0.00    +0.002 A 
ATOM     13  C   UNL     1     -11.165  13.539  69.063  0.00  0.00    +0.040 A 
ATOM     14  C   UNL     1     -10.206  13.256  67.952  0.00  0.00    +0.044 C 
ATOM     15  C   UNL     1     -10.247  14.369  66.913  0.00  0.00    +0.016 C 
ENDROOT
BRANCH   1  16
ATOM     16  C   UNL     1     -10.107  16.688  66.497  0.00  0.00    +0.115 C 
BRANCH  16  19
ATOM     17  C   UNL     1     -10.396  19.519  66.263  0.00  0.00    +0.072 C 
ATOM     18  C   UNL     1      -9.440  19.068  66.282  0.00  0.00    +0.121 A 
ATOM     19  N   UNL     1      -9.129  17.775  66.563  0.00  0.00    -0.313 N 
ATOM     20  C   UNL     1      -7.827  17.539  66.261  0.00  0.00    +0.098 A 
ATOM     21  C   UNL     1      -7.272  18.749  65.984  0.00  0.00    +0.119 A 
ATOM     22  N   UNL     1      -8.228  19.664  66.139  0.00  0.00    -0.229 NA
ENDBRANCH  16  19
ENDBRANCH   1  16
TORSDOF 2
ENDMDL
MODEL 2
REMARK VINA RESULT:      -7.1      1.636      3.314
REMARK  Name = 
REMARK  2 active torsions:
REMARK  status: ('A' for Active; 'I' for Inactive)
REMARK    1  A    between atoms: N_6  and  C_7
REMARK    2  A    between atoms: C_7  and  C_8
REMARK                            x       y       z     vdW  Elec       q    Type
REMARK                         _______ _______ _______ _____ _____    ______ ____
ROOT
ATOM      1  C   UNL     1     -11.047  16.023  68.612  0.00  0.00    +0.085 C 
ATOM      2  C   UNL     1     -10.465  14.561  68.936  0.00  0.00    +0.176 C 
ATOM      3  O   UNL     1      -9.739  14.096  68.012  0.00  0.00    -0.291 OA
ATOM      4  C   UNL     1     -11.477  13.657  69.483  0.00  0.00    +0.048 A 
ATOM      5  C   UNL     1     -11.664  12.288  69.411  0.00  0.00    +0.020 A 
ATOM      6  C   UNL     1     -12.367  11.902  70.546  0.00  0.00    +0.060 A 
ATOM      7  N   UNL     1     -12.785  13.030  71.152  0.00  0.00    -0.329 N 
ATOM      8  C   UNL     1     -13.621  13.109  72.330  0.00  0.00    +0.130 C 
ATOM      9  C   UNL     1     -12.252  10.584  70.975  0.00  0.00    +0.017 A 
ATOM     10  C   UNL     1     -11.370   9.724  70.333  0.00  0.00    +0.001 A 
ATOM     11  C   UNL     1     -11.068  10.015  69.009  0.00  0.00    +0.000 A 
ATOM     12  C   UNL     1     -11.098  11.332  68.575  0.00  0.00    +0.002 A 
ATOM     13  C   UNL     1     -12.270  14.099  70.516  0.00  0.00    +0.040 A 
ATOM     14  C   UNL     1     -12.542  15.569  70.563  0.00  0.00    +0.044 C 
ATOM     15  C   UNL     1     -11.289  16.355  70.198  0.00  0.00    +0.016 C 
ENDROOT
BRANCH   1  16
ATOM     16  C   UNL     1      -9.550  16.686  68.636  0.00  0.00    +0.115 C 
BRANCH  16  19
ATOM     17  C   UNL     1      -9.655  19.521  68.953  0.00  0.00    +0.072 C 
ATOM     18  C   UNL     1      -9.829  19.070  68.013  0.00  0.00    +0.121 A 
ATOM     19  N   UNL     1      -9.644  17.771  67.660  0.00  0.00    -0.313 N 
ATOM     20  C   UNL     1     -10.194  17.543  66.440  0.00  0.00    +0.098 A 
ATOM     21  C   UNL     1     -10.541  18.760  65.942  0.00  0.00    +0.119 A 
ATOM     22  N   UNL     1     -10.185  19.670  66.847  0.00  0.00    -0.229 NA
ENDBRANCH  16  19
ENDBRANCH   1  16
TORSDOF 2
ENDMDL
MODEL 3
REMARK VINA RESULT:      -6.9      3.687      4.485
REMARK  Name = 
REMARK  2 active torsions:
REMARK  status: ('A' for Active; 'I' for Inactive)
REMARK    1  A    between atoms: N_6  and  C_7
REMARK    2  A    between atoms: C_7  and  C_8
REMARK                            x       y       z     vdW  Elec       q    Type
REMARK                         _______ _______ _______ _____ _____    ______ ____
ROOT
ATOM      1  C   UNL     1     -10.683  12.720  67.254  0.00  0.00    +0.085 C 
ATOM      2  C   UNL     1     -11.697  13.680  68.047  0.00  0.00    +0.176 C 
ATOM      3  O   UNL     1     -11.514  14.908  67.809  0.00  0.00    -0.291 OA
ATOM      4  C   UNL     1     -11.846  13.309  69.455  0.00  0.00    +0.048 A 
ATOM      5  C   UNL     1     -12.103  14.034  70.605  0.00  0.00    +0.020 A 
ATOM      6  C   UNL     1     -12.722  13.179  71.509  0.00  0.00    +0.060 A 
ATOM      7  N   UNL     1     -12.625  11.934  71.002  0.00  0.00    -0.329 N 
ATOM      8  C   UNL     1     -13.064  10.714  71.642  0.00  0.00    +0.130 C 
ATOM      9  C   UNL     1     -13.520  13.736  72.502  0.00  0.00    +0.017 A 
ATOM     10  C   UNL     1     -13.762  15.105  72.506  0.00  0.00    +0.001 A 
ATOM     11  C   UNL     1     -12.805  15.908  71.900  0.00  0.00    +0.000 A 
ATOM     12  C   UNL     1     -12.049  15.401  70.854  0.00  0.00    +0.002 A 
ATOM     13  C   UNL     1     -12.085  11.992  69.770  0.00  0.00    +0.040 A 
ATOM     14  C   UNL     1     -11.527  10.972  68.829  0.00  0.00    +0.044 C 
ATOM     15  C   UNL     1     -11.687  11.433  67.386  0.00  0.00    +0.016 C 
ENDROOT
BRANCH   1  16
ATOM     16  C   UNL     1     -11.319  13.150  65.808  0.00  0.00    +0.115 C 
BRANCH  16  19
ATOM     17  C   UNL     1     -12.113  11.911  63.361  0.00  0.00    +0.072 C 
ATOM     18  C   UNL     1     -11.179  11.693  63.806  0.00  0.00    +0.121 A 
ATOM     19  N   UNL     1     -10.583  12.318  64.855  0.00  0.00    -0.313 N 
ATOM     20  C   UNL     1      -9.505  11.603  65.266  0.00  0.00    +0.098 A 
ATOM     21  C   UNL     1      -9.310  10.633  64.332  0.00  0.00    +0.119 A 
ATOM     22  N   UNL     1     -10.244  10.796  63.396  0.00  0.00    -0.229 NA
ENDBRANCH  16  19
ENDBRANCH   1  16
TORSDOF 2
ENDMDL
MODEL 4
REMARK VINA RESULT:      -6.7      2.894      6.610
REMARK  Name = 
REMARK  2 active torsions:
REMARK  status: ('A' for Active; 'I' for Inactive)
REMARK    1  A    between atoms: N_6  and  C_7
REMARK    2  A    between atoms: C_7  and  C_8
REMARK                            x       y       z     vdW  Elec       q    Type
REMARK                         _______ _______ _______ _____ _____    ______ ____
ROOT
ATOM      1  C   UNL     1     -11.410  13.931  69.789  0.00  0.00    +0.085 C 
ATOM      2  C   UNL     1     -11.682  12.855  68.627  0.00  0.00    +0.176 C 
ATOM      3  O   UNL     1     -11.556  11.658  69.013  0.00  0.00    -0.291 OA
ATOM      4  C   UNL     1     -11.024  13.202  67.367  0.00  0.00    +0.048 A 
ATOM      5  C   UNL     1     -10.499  12.449  66.333  0.00  0.00    +0.020 A 
ATOM      6  C   UNL     1     -10.559  13.224  65.180  0.00  0.00    +0.060 A 
ATOM      7  N   UNL     1     -10.891  14.473  65.562  0.00  0.00    -0.329 N 
ATOM      8  C   UNL     1     -10.992  15.631  64.702  0.00  0.00    +0.130 C 
ATOM      9  C   UNL     1     -10.579  12.574  63.950  0.00  0.00    +0.017 A 
ATOM     10  C   UNL     1     -10.644  11.186  63.904  0.00  0.00    +0.001 A 
ATOM     11  C   UNL     1     -10.142  10.502  65.004  0.00  0.00    +0.000 A 
ATOM     12  C   UNL     1     -10.183  11.097  66.256  0.00  0.00    +0.002 A 
ATOM     13  C   UNL     1     -11.160  14.482  66.881  0.00  0.00    +0.040 A 
ATOM     14  C   UNL     1     -11.348  15.563  67.897  0.00  0.00    +0.044 C 
ATOM     15  C   UNL     1     -12.269  15.090  69.015  0.00  0.00    +0.016 C 
ENDROOT
BRANCH   1  16
ATOM     16  C   UNL     1     -12.720  13.433  70.635  0.00  0.00    +0.115 C 
BRANCH  16  19
ATOM     17  C   UNL     1     -14.899  14.975  71.649  0.00  0.00    +0.072 C 
ATOM     18  C   UNL     1     -13.908  15.148  71.976  0.00  0.00    +0.121 A 
ATOM     19  N   UNL     1     -12.802  14.398  71.731  0.00  0.00    -0.313 N 
ATOM     20  C   UNL     1     -11.692  15.072  72.130  0.00  0.00    +0.098 A 
ATOM     21  C   UNL     1     -12.131  16.161  72.815  0.00  0.00    +0.119 A 
ATOM     22  N   UNL     1     -13.462  16.109  72.826  0.00  0.00    -0.229 NA
ENDBRANCH  16  19
ENDBRANCH   1  16
TORSDOF 2
ENDMDL
MODEL 5
REMARK VINA RESULT:      -6.7      4.542      5.655
REMARK  Name = 
REMARK  2 active torsions:
REMARK  status: ('A' for Active; 'I' for Inactive)
REMARK    1  A    between atoms: N_6  and  C_7
REMARK    2  A    between atoms: C_7  and  C_8
REMARK                            x       y       z     vdW  Elec       q    Type
REMARK                         _______ _______ _______ _____ _____    ______ ____
ROOT
ATOM      1  C   UNL     1     -10.169  11.789  67.336  0.00  0.00    +0.085 C 
ATOM      2  C   UNL     1     -11.018  10.679  68.128  0.00  0.00    +0.176 C 
ATOM      3  O   UNL     1     -12.261  10.906  68.129  0.00  0.00    -0.291 OA
ATOM      4  C   UNL     1     -10.423  10.322  69.417  0.00  0.00    +0.048 A 
ATOM      5  C   UNL     1     -10.955   9.907  70.624  0.00  0.00    +0.020 A 
ATOM      6  C   UNL     1      -9.983   9.153  71.272  0.00  0.00    +0.060 A 
ATOM      7  N   UNL     1      -8.837   9.312  70.581  0.00  0.00    -0.329 N 
ATOM      8  C   UNL     1      -7.543   8.772  70.935  0.00  0.00    +0.130 C 
ATOM      9  C   UNL     1     -10.394   8.224  72.221  0.00  0.00    +0.017 A 
ATOM     10  C   UNL     1     -11.751   7.997  72.423  0.00  0.00    +0.001 A 
ATOM     11  C   UNL     1     -12.611   9.040  72.104  0.00  0.00    +0.000 A 
ATOM     12  C   UNL     1     -12.260   9.936  71.106  0.00  0.00    +0.002 A 
ATOM     13  C   UNL     1      -9.081  10.027  69.466  0.00  0.00    +0.040 A 
ATOM     14  C   UNL     1      -8.213  10.707  68.455  0.00  0.00    +0.044 C 
ATOM     15  C   UNL     1      -8.913  10.764  67.103  0.00  0.00    +0.016 C 
ENDROOT
BRANCH   1  16
ATOM     16  C   UNL     1     -10.854  11.376  65.908  0.00  0.00    +0.115 C 
BRANCH  16  19
ATOM     17  C   UNL     1     -12.364  12.013  63.570  0.00  0.00    +0.072 C 
ATOM     18  C   UNL     1     -12.106  12.759  64.273  0.00  0.00    +0.121 A 
ATOM     19  N   UNL     1     -11.555  12.595  65.505  0.00  0.00    -0.313 N 
ATOM     20  C   UNL     1     -11.168  13.798  65.999  0.00  0.00    +0.098 A 
ATOM     21  C   UNL     1     -11.670  14.739  65.155  0.00  0.00    +0.119 A 
ATOM     22  N   UNL     1     -12.345  14.094  64.205  0.00  0.00    -0.229 NA
ENDBRANCH  16  19
ENDBRANCH   1  16
TORSDOF 2
ENDMDL
MODEL 6
REMARK VINA RESULT:      -6.6      3.237      7.040
REMARK  Name = 
REMARK  2 active torsions:
REMARK  status: ('A' for Active; 'I' for Inactive)
REMARK    1  A    between atoms: N_6  and  C_7
REMARK    2  A    between atoms: C_7  and  C_8
REMARK                            x       y       z     vdW  Elec       q    Type
REMARK                         _______ _______ _______ _____ _____    ______ ____
ROOT
ATOM      1  C   UNL     1     -11.308  10.658  68.282  0.00  0.00    +0.085 C 
ATOM      2  C   UNL     1     -11.286  11.384  69.714  0.00  0.00    +0.176 C 
ATOM      3  O   UNL     1     -11.688  10.644  70.657  0.00  0.00    -0.291 OA
ATOM      4  C   UNL     1     -11.840  12.738  69.672  0.00  0.00    +0.048 A 
ATOM      5  C   UNL     1     -12.520  13.514  70.594  0.00  0.00    +0.020 A 
ATOM      6  C   UNL     1     -12.276  14.846  70.281  0.00  0.00    +0.060 A 
ATOM      7  N   UNL     1     -11.666  14.862  69.079  0.00  0.00    -0.329 N 
ATOM      8  C   UNL     1     -11.295  16.038  68.324  0.00  0.00    +0.130 C 
ATOM      9  C   UNL     1     -12.401  15.794  71.291  0.00  0.00    +0.017 A 
ATOM     10  C   UNL     1     -12.659  15.384  72.594  0.00  0.00    +0.001 A 
ATOM     11  C   UNL     1     -13.311  14.167  72.746  0.00  0.00    +0.000 A 
ATOM     12  C   UNL     1     -13.140  13.175  71.792  0.00  0.00    +0.002 A 
ATOM     13  C   UNL     1     -11.409  13.599  68.690  0.00  0.00    +0.040 A 
ATOM     14  C   UNL     1     -10.980  12.974  67.400  0.00  0.00    +0.044 C 
ATOM     15  C   UNL     1     -10.200  11.692  67.661  0.00  0.00    +0.016 C 
ENDROOT
BRANCH   1  16
ATOM     16  C   UNL     1     -10.153   9.593  68.741  0.00  0.00    +0.115 C 
BRANCH  16  19
ATOM     17  C   UNL     1     -10.715   7.225  70.234  0.00  0.00    +0.072 C 
ATOM     18  C   UNL     1     -10.769   7.230  69.178  0.00  0.00    +0.121 A 
ATOM     19  N   UNL     1     -10.707   8.300  68.341  0.00  0.00    -0.313 N 
ATOM     20  C   UNL     1     -10.584   7.873  67.058  0.00  0.00    +0.098 A 
ATOM     21  C   UNL     1     -10.778   6.527  67.081  0.00  0.00    +0.119 A 
ATOM     22  N   UNL     1     -11.024   6.188  68.346  0.00  0.00    -0.229 NA
ENDBRANCH  16  19
ENDBRANCH   1  16
TORSDOF 2
ENDMDL
MODEL 7
REMARK VINA RESULT:      -6.5      3.168      5.271
REMARK  Name = 
REMARK  2 active torsions:
REMARK  status: ('A' for Active; 'I' for Inactive)
REMARK    1  A    between atoms: N_6  and  C_7
REMARK    2  A    between atoms: C_7  and  C_8
REMARK                            x       y       z     vdW  Elec       q    Type
REMARK                         _______ _______ _______ _____ _____    ______ ____
ROOT
ATOM      1  C   UNL     1     -10.665  12.459  68.476  0.00  0.00    +0.085 C 
ATOM      2  C   UNL     1     -11.560  11.453  69.352  0.00  0.00    +0.176 C 
ATOM      3  O   UNL     1     -11.927  11.943  70.457  0.00  0.00    -0.291 OA
ATOM      4  C   UNL     1     -11.010  10.097  69.395  0.00  0.00    +0.048 A 
ATOM      5  C   UNL     1     -11.038   9.092  70.345  0.00  0.00    +0.020 A 
ATOM      6  C   UNL     1     -10.915   7.881  69.676  0.00  0.00    +0.060 A 
ATOM      7  N   UNL     1     -10.592   8.167  68.399  0.00  0.00    -0.329 N 
ATOM      8  C   UNL     1     -10.289   7.210  67.358  0.00  0.00    +0.130 C 
ATOM      9  C   UNL     1     -11.406   6.735  70.293  0.00  0.00    +0.017 A 
ATOM     10  C   UNL     1     -12.091   6.839  71.497  0.00  0.00    +0.001 A 
ATOM     11  C   UNL     1     -11.793   7.939  72.290  0.00  0.00    +0.000 A 
ATOM     12  C   UNL     1     -11.377   9.120  71.694  0.00  0.00    +0.002 A 
ATOM     13  C   UNL     1     -10.629   9.501  68.215  0.00  0.00    +0.040 A 
ATOM     14  C   UNL     1     -10.161  10.415  67.129  0.00  0.00    +0.044 C 
ATOM     15  C   UNL     1     -11.018  11.673  67.083  0.00  0.00    +0.016 C 
ENDROOT
BRANCH   1  16
ATOM     16  C   UNL     1     -11.918  13.495  68.284  0.00  0.00    +0.115 C 
BRANCH  16  19
ATOM     17  C   UNL     1     -12.339  15.564  70.207  0.00  0.00    +0.072 C 
ATOM     18  C   UNL     1     -11.738  15.726  69.352  0.00  0.00    +0.121 A 
ATOM     19  N   UNL     1     -11.299  14.810  68.450  0.00  0.00    -0.313 N 
ATOM     20  C   UNL     1     -10.749  15.443  67.382  0.00  0.00    +0.098 A 
ATOM     21  C   UNL     1     -10.660  16.758  67.720  0.00  0.00    +0.119 A 
ATOM     22  N   UNL     1     -11.133  16.877  68.959  0.00  0.00    -0.229 NA
ENDBRANCH  16  19
ENDBRANCH   1  16
TORSDOF 2
ENDMDL
MODEL 8
REMARK VINA RESULT:      -6.4      3.833      6.450
REMARK  Name = 
REMARK  2 active torsions:
REMARK  status: ('A' for Active; 'I' for Inactive)
REMARK    1  A    between atoms: N_6  and  C_7
REMARK    2  A    between atoms: C_7  and  C_8
REMARK                            x       y       z     vdW  Elec       q    Type
REMARK                         _______ _______ _______ _____ _____    ______ ____
ROOT
ATOM      1  C   UNL     1     -12.521  13.439  69.350  0.00  0.00    +0.085 C 
ATOM      2  C   UNL     1     -11.713  13.620  67.974  0.00  0.00    +0.176 C 
ATOM      3  O   UNL     1     -12.042  14.659  67.333  0.00  0.00    -0.291 OA
ATOM      4  C   UNL     1     -11.627  12.381  67.199  0.00  0.00    +0.048 A 
ATOM      5  C   UNL     1     -11.562  12.113  65.844  0.00  0.00    +0.020 A 
ATOM      6  C   UNL     1     -10.905  10.897  65.690  0.00  0.00    +0.060 A 
ATOM      7  N   UNL     1     -10.792  10.353  66.917  0.00  0.00    -0.329 N 
ATOM      8  C   UNL     1     -10.243   9.051  67.228  0.00  0.00    +0.130 C 
ATOM      9  C   UNL     1     -10.271  10.641  64.479  0.00  0.00    +0.017 A 
ATOM     10  C   UNL     1     -10.219  11.630  63.504  0.00  0.00    +0.001 A 
ATOM     11  C   UNL     1     -11.226  12.586  63.532  0.00  0.00    +0.000 A 
ATOM     12  C   UNL     1     -11.820  12.918  64.740  0.00  0.00    +0.002 A 
ATOM     13  C   UNL     1     -11.236  11.228  67.839  0.00  0.00    +0.040 A 
ATOM     14  C   UNL     1     -11.574  11.127  69.292  0.00  0.00    +0.044 C 
ATOM     15  C   UNL     1     -11.365  12.468  69.984  0.00  0.00    +0.016 C 
ENDROOT
BRANCH   1  16
ATOM     16  C   UNL     1     -11.838  14.781  69.993  0.00  0.00    +0.115 C 
BRANCH  16  19
ATOM     17  C   UNL     1     -11.761  16.169  72.487  0.00  0.00    +0.072 C 
ATOM     18  C   UNL     1     -12.676  15.840  72.074  0.00  0.00    +0.121 A 
ATOM     19  N   UNL     1     -12.901  15.332  70.833  0.00  0.00    -0.313 N 
ATOM     20  C   UNL     1     -14.156  14.820  70.766  0.00  0.00    +0.098 A 
ATOM     21  C   UNL     1     -14.786  15.198  71.911  0.00  0.00    +0.119 A 
ATOM     22  N   UNL     1     -13.919  15.925  72.614  0.00  0.00    -0.229 NA
ENDBRANCH  16  19
ENDBRANCH   1  16
TORSDOF 2
ENDMDL
MODEL 9
REMARK VINA RESULT:      -6.4      3.547      5.102
REMARK  Name = 
REMARK  2 active torsions:
REMARK  status: ('A' for Active; 'I' for Inactive)
REMARK    1  A    between atoms: N_6  and  C_7
REMARK    2  A    between atoms: C_7  and  C_8
REMARK                            x       y       z     vdW  Elec       q    Type
REMARK                         _______ _______ _______ _____ _____    ______ ____
ROOT
ATOM      1  C   UNL     1     -10.598  12.361  67.466  0.00  0.00    +0.085 C 
ATOM      2  C   UNL     1     -11.479  11.496  68.493  0.00  0.00    +0.176 C 
ATOM      3  O   UNL     1     -11.866  12.155  69.500  0.00  0.00    -0.291 OA
ATOM      4  C   UNL     1     -10.904  10.178  68.764  0.00  0.00    +0.048 A 
ATOM      5  C   UNL     1     -10.919   9.345  69.868  0.00  0.00    +0.020 A 
ATOM      6  C   UNL     1     -10.767   8.042  69.411  0.00  0.00    +0.060 A 
ATOM      7  N   UNL     1     -10.439   8.118  68.106  0.00  0.00    -0.329 N 
ATOM      8  C   UNL     1     -10.109   7.008  67.241  0.00  0.00    +0.130 C 
ATOM      9  C   UNL     1     -11.240   7.004  70.208  0.00  0.00    +0.017 A 
ATOM     10  C   UNL     1     -11.938   7.294  71.375  0.00  0.00    +0.001 A 
ATOM     11  C   UNL     1     -11.667   8.517  71.975  0.00  0.00    +0.000 A 
ATOM     12  C   UNL     1     -11.270   9.590  71.192  0.00  0.00    +0.002 A 
ATOM     13  C   UNL     1     -10.501   9.401  67.703  0.00  0.00    +0.040 A 
ATOM     14  C   UNL     1     -10.042  10.132  66.481  0.00  0.00    +0.044 C 
ATOM     15  C   UNL     1     -10.924  11.346  66.222  0.00  0.00    +0.016 C 
ENDROOT
BRANCH   1  16
ATOM     16  C   UNL     1     -11.870  13.324  67.098  0.00  0.00    +0.115 C 
BRANCH  16  19
ATOM     17  C   UNL     1     -12.161  14.551  64.537  0.00  0.00    +0.072 C 
ATOM     18  C   UNL     1     -11.401  14.856  65.205  0.00  0.00    +0.121 A 
ATOM     19  N   UNL     1     -11.240  14.505  66.508  0.00  0.00    -0.313 N 
ATOM     20  C   UNL     1     -10.026  14.922  66.950  0.00  0.00    +0.098 A 
ATOM     21  C   UNL     1      -9.516  15.719  65.973  0.00  0.00    +0.119 A 
ATOM     22  N   UNL     1     -10.421  15.773  64.998  0.00  0.00    -0.229 NA
ENDBRANCH  16  19
ENDBRANCH   1  16
TORSDOF 2
ENDMDL
