MODEL 1
REMARK VINA RESULT:      -6.8      0.000      0.000
REMARK  Name = 
REMARK  8 active torsions:
REMARK  status: ('A' for Active; 'I' for Inactive)
REMARK    1  A    between atoms: C_2  and  C_4
REMARK    2  A    between atoms: C_4  and  N_5
REMARK    3  A    between atoms: N_8  and  C_9
REMARK    4  A    between atoms: C_9  and  C_10
REMARK    5  A    between atoms: N_15  and  C_16
REMARK    6  A    between atoms: C_16  and  C_17
REMARK    7  A    between atoms: N_22  and  C_23
REMARK    8  A    between atoms: C_23  and  C_24
REMARK                            x       y       z     vdW  Elec       q    Type
REMARK                         _______ _______ _______ _____ _____    ______ ____
ROOT
ATOM      1  N   UNL     1     -12.388  15.154  70.807  0.00  0.00    -0.261 NA
ATOM      2  C   UNL     1     -11.302  15.695  70.035  0.00  0.00    +0.090 C 
ATOM      3  C   UNL     1     -11.664  15.960  68.594  0.00  0.00    +0.090 C 
ATOM      4  N   UNL     1     -10.432  16.216  67.891  0.00  0.00    -0.261 NA
ATOM      5  C   UNL     1     -10.215  15.360  66.763  0.00  0.00    +0.090 C 
ATOM      6  C   UNL     1      -9.566  14.076  67.267  0.00  0.00    +0.090 C 
ATOM      7  N   UNL     1     -10.452  12.946  67.176  0.00  0.00    -0.261 NA
ATOM      8  C   UNL     1     -10.430  12.110  68.349  0.00  0.00    +0.090 C 
ATOM      9  C   UNL     1     -11.844  11.953  68.852  0.00  0.00    +0.090 C 
ATOM     10  N   UNL     1     -11.885  11.573  70.260  0.00  0.00    -0.261 NA
ATOM     11  C   UNL     1     -12.138  12.730  71.117  0.00  0.00    +0.090 C 
ATOM     12  C   UNL     1     -12.802  13.855  70.355  0.00  0.00    +0.090 C 
ENDROOT
BRANCH   1  13
ATOM     13  C   UNL     1     -12.004  15.181  72.201  0.00  0.00    +0.188 C 
BRANCH  13  15
ATOM     14  O   UNL     1     -14.265  15.986  72.503  0.00  0.00    -0.244 OA
ATOM     15  C   UNL     1     -13.079  15.898  72.939  0.00  0.00    +0.381 C 
ATOM     16  O   UNL     1     -12.874  16.345  74.235  0.00  0.00    -0.244 OA
ENDBRANCH  13  15
ENDBRANCH   1  13
BRANCH   4  17
ATOM     17  C   UNL     1     -10.172  17.605  67.653  0.00  0.00    +0.188 C 
BRANCH  17  18
ATOM     18  C   UNL     1      -9.776  17.905  66.254  0.00  0.00    +0.381 C 
ATOM     19  O   UNL     1     -10.715  18.608  65.491  0.00  0.00    -0.244 OA
ATOM     20  O   UNL     1      -8.579  18.290  66.092  0.00  0.00    -0.244 OA
ENDBRANCH  17  18
ENDBRANCH   4  17
BRANCH  10  21
ATOM     21  C   UNL     1     -12.967  10.610  70.411  0.00  0.00    +0.188 C 
BRANCH  21  22
ATOM     22  C   UNL     1     -12.826   9.793  71.637  0.00  0.00    +0.381 C 
ATOM     23  O   UNL     1     -11.606   9.152  71.867  0.00  0.00    -0.244 OA
ATOM     24  O   UNL     1     -13.848   9.299  72.200  0.00  0.00    -0.244 OA
ENDBRANCH  21  22
ENDBRANCH  10  21
BRANCH   7  25
ATOM     25  C   UNL     1     -10.285  12.194  65.958  0.00  0.00    +0.188 C 
BRANCH  25  26
ATOM     26  C   UNL     1     -11.384  12.385  64.991  0.00  0.00    +0.381 C 
ATOM     27  O   UNL     1     -11.248  12.245  63.620  0.00  0.00    -0.244 OA
ATOM     28  O   UNL     1     -12.552  12.476  65.463  0.00  0.00    -0.244 OA
ENDBRANCH  25  26
ENDBRANCH   7  25
TORSDOF 8
ENDMDL
MODEL 2
REMARK VINA RESULT:      -6.7      1.410      6.212
REMARK  Name = 
REMARK  8 active torsions:
REMARK  status: ('A' for Active; 'I' for Inactive)
REMARK    1  A    between atoms: C_2  and  C_4
REMARK    2  A    between atoms: C_4  and  N_5
REMARK    3  A    between atoms: N_8  and  C_9
REMARK    4  A    between atoms: C_9  and  C_10
REMARK    5  A    between atoms: N_15  and  C_16
REMARK    6  A    between atoms: C_16  and  C_17
REMARK    7  A    between atoms: N_22  and  C_23
REMARK    8  A    between atoms: C_23  and  C_24
REMARK                            x       y       z     vdW  Elec       q    Type
REMARK                         _______ _______ _______ _____ _____    ______ ____
ROOT
ATOM      1  N   UNL     1     -11.983  11.853  68.925  0.00  0.00    -0.261 NA
ATOM      2  C   UNL     1     -11.536  12.728  69.976  0.00  0.00    +0.090 C 
ATOM      3  C   UNL     1     -12.432  13.924  70.184  0.00  0.00    +0.090 C 
ATOM      4  N   UNL     1     -11.722  14.837  71.044  0.00  0.00    -0.261 NA
ATOM      5  C   UNL     1     -11.567  16.152  70.497  0.00  0.00    +0.090 C 
ATOM      6  C   UNL     1     -10.325  16.147  69.612  0.00  0.00    +0.090 C 
ATOM      7  N   UNL     1     -10.652  16.273  68.216  0.00  0.00    -0.261 NA
ATOM      8  C   UNL     1      -9.902  15.376  67.374  0.00  0.00    +0.090 C 
ATOM      9  C   UNL     1     -10.874  14.580  66.537  0.00  0.00    +0.090 C 
ATOM     10  N   UNL     1     -10.286  13.339  66.047  0.00  0.00    -0.261 NA
ATOM     11  C   UNL     1     -10.684  12.198  66.869  0.00  0.00    +0.090 C 
ATOM     12  C   UNL     1     -11.960  12.478  67.631  0.00  0.00    +0.090 C 
ENDROOT
BRANCH   1  13
ATOM     13  C   UNL     1     -11.202  10.638  68.991  0.00  0.00    +0.188 C 
BRANCH  13  15
ATOM     14  O   UNL     1     -12.626   9.736  70.726  0.00  0.00    -0.244 OA
ATOM     15  C   UNL     1     -11.460  10.021  70.319  0.00  0.00    +0.381 C 
ATOM     16  O   UNL     1     -10.414   9.557  71.102  0.00  0.00    -0.244 OA
ENDBRANCH  13  15
ENDBRANCH   1  13
BRANCH   4  17
ATOM     17  C   UNL     1     -12.143  14.800  72.413  0.00  0.00    +0.188 C 
BRANCH  17  18
ATOM     18  C   UNL     1     -13.037  15.924  72.792  0.00  0.00    +0.381 C 
ATOM     19  O   UNL     1     -14.364  15.819  72.362  0.00  0.00    -0.244 OA
ATOM     20  O   UNL     1     -12.904  16.357  73.976  0.00  0.00    -0.244 OA
ENDBRANCH  17  18
ENDBRANCH   4  17
BRANCH  10  21
ATOM     21  C   UNL     1     -10.765  13.148  64.685  0.00  0.00    +0.188 C 
BRANCH  21  22
ATOM     22  C   UNL     1     -12.187  13.532  64.531  0.00  0.00    +0.381 C 
ATOM     23  O   UNL     1     -13.154  12.526  64.593  0.00  0.00    -0.244 OA
ATOM     24  O   UNL     1     -12.501  14.592  63.911  0.00  0.00    -0.244 OA
ENDBRANCH  21  22
ENDBRANCH  10  21
BRANCH   7  25
ATOM     25  C   UNL     1     -10.611  17.635  67.747  0.00  0.00    +0.188 C 
BRANCH  25  26
ATOM     26  C   UNL     1      -9.500  18.422  68.316  0.00  0.00    +0.381 C 
ATOM     27  O   UNL     1      -8.170  18.261  67.964  0.00  0.00    -0.244 OA
ATOM     28  O   UNL     1      -9.810  19.435  69.004  0.00  0.00    -0.244 OA
ENDBRANCH  25  26
ENDBRANCH   7  25
TORSDOF 8
ENDMDL
MODEL 3
REMARK VINA RESULT:      -6.7      1.247      5.324
REMARK  Name = 
REMARK  8 active torsions:
REMARK  status: ('A' for Active; 'I' for Inactive)
REMARK    1  A    between atoms: C_2  and  C_4
REMARK    2  A    between atoms: C_4  and  N_5
REMARK    3  A    between atoms: N_8  and  C_9
REMARK    4  A    between atoms: C_9  and  C_10
REMARK    5  A    between atoms: N_15  and  C_16
REMARK    6  A    between atoms: C_16  and  C_17
REMARK    7  A    between atoms: N_22  and  C_23
REMARK    8  A    between atoms: C_23  and  C_24
REMARK                            x       y       z     vdW  Elec       q    Type
REMARK                         _______ _______ _______ _____ _____    ______ ____
ROOT
ATOM      1  N   UNL     1     -11.144  16.348  67.747  0.00  0.00    -0.261 NA
ATOM      2  C   UNL     1     -10.545  15.217  67.093  0.00  0.00    +0.090 C 
ATOM      3  C   UNL     1     -11.550  14.289  66.455  0.00  0.00    +0.090 C 
ATOM      4  N   UNL     1     -10.845  13.083  66.101  0.00  0.00    -0.261 NA
ATOM      5  C   UNL     1     -11.412  11.891  66.658  0.00  0.00    +0.090 C 
ATOM      6  C   UNL     1     -10.843  11.715  68.061  0.00  0.00    +0.090 C 
ATOM      7  N   UNL     1     -11.837  11.926  69.081  0.00  0.00    -0.261 NA
ATOM      8  C   UNL     1     -11.359  12.720  70.185  0.00  0.00    +0.090 C 
ATOM      9  C   UNL     1     -12.302  13.882  70.383  0.00  0.00    +0.090 C 
ATOM     10  N   UNL     1     -11.671  14.984  71.099  0.00  0.00    -0.261 NA
ATOM     11  C   UNL     1     -11.221  16.029  70.182  0.00  0.00    +0.090 C 
ATOM     12  C   UNL     1     -11.965  15.975  68.866  0.00  0.00    +0.090 C 
ENDROOT
BRANCH   1  13
ATOM     13  C   UNL     1     -10.091  17.278  68.091  0.00  0.00    +0.188 C 
BRANCH  13  15
ATOM     14  O   UNL     1      -9.739  18.397  65.976  0.00  0.00    -0.244 OA
ATOM     15  C   UNL     1     -10.199  18.429  67.156  0.00  0.00    +0.381 C 
ATOM     16  O   UNL     1     -10.978  19.531  67.474  0.00  0.00    -0.244 OA
ENDBRANCH  13  15
ENDBRANCH   1  13
BRANCH   4  17
ATOM     17  C   UNL     1     -10.497  12.995  64.714  0.00  0.00    +0.188 C 
BRANCH  17  18
ATOM     18  C   UNL     1     -11.446  12.179  63.913  0.00  0.00    +0.381 C 
ATOM     19  O   UNL     1     -12.486  12.884  63.297  0.00  0.00    -0.244 OA
ATOM     20  O   UNL     1     -10.923  11.281  63.188  0.00  0.00    -0.244 OA
ENDBRANCH  17  18
ENDBRANCH   4  17
BRANCH  10  21
ATOM     21  C   UNL     1     -12.670  15.531  72.007  0.00  0.00    +0.188 C 
BRANCH  21  22
ATOM     22  C   UNL     1     -13.955  14.799  71.936  0.00  0.00    +0.381 C 
ATOM     23  O   UNL     1     -15.075  15.476  71.448  0.00  0.00    -0.244 OA
ATOM     24  O   UNL     1     -14.169  13.805  72.693  0.00  0.00    -0.244 OA
ENDBRANCH  21  22
ENDBRANCH  10  21
BRANCH   7  25
ATOM     25  C   UNL     1     -12.472  10.708  69.512  0.00  0.00    +0.188 C 
BRANCH  25  26
ATOM     26  C   UNL     1     -12.223  10.381  70.929  0.00  0.00    +0.381 C 
ATOM     27  O   UNL     1     -13.133  10.599  71.951  0.00  0.00    -0.244 OA
ATOM     28  O   UNL     1     -11.207   9.675  71.185  0.00  0.00    -0.244 OA
ENDBRANCH  25  26
ENDBRANCH   7  25
TORSDOF 8
ENDMDL
MODEL 4
REMARK VINA RESULT:      -6.6      1.620      6.174
REMARK  Name = 
REMARK  8 active torsions:
REMARK  status: ('A' for Active; 'I' for Inactive)
REMARK    1  A    between atoms: C_2  and  C_4
REMARK    2  A    between atoms: C_4  and  N_5
REMARK    3  A    between atoms: N_8  and  C_9
REMARK    4  A    between atoms: C_9  and  C_10
REMARK    5  A    between atoms: N_15  and  C_16
REMARK    6  A    between atoms: C_16  and  C_17
REMARK    7  A    between atoms: N_22  and  C_23
REMARK    8  A    between atoms: C_23  and  C_24
REMARK                            x       y       z     vdW  Elec       q    Type
REMARK                         _______ _______ _______ _____ _____    ______ ____
ROOT
ATOM      1  N   UNL     1     -10.796  15.337  70.043  0.00  0.00    -0.261 NA
ATOM      2  C   UNL     1     -11.639  14.245  69.637  0.00  0.00    +0.090 C 
ATOM      3  C   UNL     1     -10.869  13.027  69.186  0.00  0.00    +0.090 C 
ATOM      4  N   UNL     1     -11.813  12.144  68.549  0.00  0.00    -0.261 NA
ATOM      5  C   UNL     1     -11.458  11.779  67.210  0.00  0.00    +0.090 C 
ATOM      6  C   UNL     1     -11.972  12.869  66.277  0.00  0.00    +0.090 C 
ATOM      7  N   UNL     1     -10.902  13.636  65.695  0.00  0.00    -0.261 NA
ATOM      8  C   UNL     1     -11.156  15.054  65.691  0.00  0.00    +0.090 C 
ATOM      9  C   UNL     1      -9.996  15.750  66.361  0.00  0.00    +0.090 C 
ATOM     10  N   UNL     1     -10.361  17.073  66.854  0.00  0.00    -0.261 NA
ATOM     11  C   UNL     1     -10.650  17.048  68.286  0.00  0.00    +0.090 C 
ATOM     12  C   UNL     1     -10.003  15.861  68.965  0.00  0.00    +0.090 C 
ENDROOT
BRANCH   1  13
ATOM     13  C   UNL     1     -11.629  16.332  70.681  0.00  0.00    +0.188 C 
BRANCH  13  15
ATOM     14  O   UNL     1     -11.620  15.164  72.799  0.00  0.00    -0.244 OA
ATOM     15  C   UNL     1     -12.279  15.678  71.848  0.00  0.00    +0.381 C 
ATOM     16  O   UNL     1     -13.650  15.767  72.038  0.00  0.00    -0.244 OA
ENDBRANCH  13  15
ENDBRANCH   1  13
BRANCH   4  17
ATOM     17  C   UNL     1     -12.247  11.057  69.376  0.00  0.00    +0.188 C 
BRANCH  17  18
ATOM     18  C   UNL     1     -11.132  10.326  70.031  0.00  0.00    +0.381 C 
ATOM     19  O   UNL     1     -11.358   9.927  71.353  0.00  0.00    -0.244 OA
ATOM     20  O   UNL     1     -10.550   9.455  69.316  0.00  0.00    -0.244 OA
ENDBRANCH  17  18
ENDBRANCH   4  17
BRANCH  10  21
ATOM     21  C   UNL     1      -9.227  17.951  66.602  0.00  0.00    +0.188 C 
BRANCH  21  22
ATOM     22  C   UNL     1      -9.634  19.366  66.448  0.00  0.00    +0.381 C 
ATOM     23  O   UNL     1      -9.285  20.268  67.456  0.00  0.00    -0.244 OA
ATOM     24  O   UNL     1     -10.628  19.672  65.722  0.00  0.00    -0.244 OA
ENDBRANCH  21  22
ENDBRANCH  10  21
BRANCH   7  25
ATOM     25  C   UNL     1     -10.492  13.145  64.404  0.00  0.00    +0.188 C 
BRANCH  25  26
ATOM     26  C   UNL     1     -11.606  12.619  63.591  0.00  0.00    +0.381 C 
ATOM     27  O   UNL     1     -12.557  13.411  62.968  0.00  0.00    -0.244 OA
ATOM     28  O   UNL     1     -11.561  11.395  63.281  0.00  0.00    -0.244 OA
ENDBRANCH  25  26
ENDBRANCH   7  25
TORSDOF 8
ENDMDL
MODEL 5
REMARK VINA RESULT:      -6.5      1.127      5.362
REMARK  Name = 
REMARK  8 active torsions:
REMARK  status: ('A' for Active; 'I' for Inactive)
REMARK    1  A    between atoms: C_2  and  C_4
REMARK    2  A    between atoms: C_4  and  N_5
REMARK    3  A    between atoms: N_8  and  C_9
REMARK    4  A    between atoms: C_9  and  C_10
REMARK    5  A    between atoms: N_15  and  C_16
REMARK    6  A    between atoms: C_16  and  C_17
REMARK    7  A    between atoms: N_22  and  C_23
REMARK    8  A    between atoms: C_23  and  C_24
REMARK                            x       y       z     vdW  Elec       q    Type
REMARK                         _______ _______ _______ _____ _____    ______ ____
ROOT
ATOM      1  N   UNL     1     -10.707  12.706  66.476  0.00  0.00    -0.261 NA
ATOM      2  C   UNL     1     -11.139  14.072  66.605  0.00  0.00    +0.090 C 
ATOM      3  C   UNL     1     -10.170  14.939  67.371  0.00  0.00    +0.090 C 
ATOM      4  N   UNL     1     -10.852  16.174  67.666  0.00  0.00    -0.261 NA
ATOM      5  C   UNL     1     -10.886  16.503  69.060  0.00  0.00    +0.090 C 
ATOM      6  C   UNL     1     -12.082  15.789  69.679  0.00  0.00    +0.090 C 
ATOM      7  N   UNL     1     -11.682  14.731  70.570  0.00  0.00    -0.261 NA
ATOM      8  C   UNL     1     -12.455  13.526  70.403  0.00  0.00    +0.090 C 
ATOM      9  C   UNL     1     -11.504  12.377  70.167  0.00  0.00    +0.090 C 
ATOM     10  N   UNL     1     -12.157  11.254  69.503  0.00  0.00    -0.261 NA
ATOM     11  C   UNL     1     -11.880  11.249  68.068  0.00  0.00    +0.090 C 
ATOM     12  C   UNL     1     -10.625  12.025  67.738  0.00  0.00    +0.090 C 
ENDROOT
BRANCH   1  13
ATOM     13  C   UNL     1     -11.575  12.049  65.524  0.00  0.00    +0.188 C 
BRANCH  13  15
ATOM     14  O   UNL     1     -10.212  12.531  63.584  0.00  0.00    -0.244 OA
ATOM     15  C   UNL     1     -11.314  12.664  64.195  0.00  0.00    +0.381 C 
ATOM     16  O   UNL     1     -12.339  13.260  63.475  0.00  0.00    -0.244 OA
ENDBRANCH  13  15
ENDBRANCH   1  13
BRANCH   4  17
ATOM     17  C   UNL     1     -10.499  17.258  66.799  0.00  0.00    +0.188 C 
BRANCH  17  18
ATOM     18  C   UNL     1     -10.232  18.531  67.516  0.00  0.00    +0.381 C 
ATOM     19  O   UNL     1      -8.911  18.990  67.473  0.00  0.00    -0.244 OA
ATOM     20  O   UNL     1     -11.104  19.439  67.367  0.00  0.00    -0.244 OA
ENDBRANCH  17  18
ENDBRANCH   4  17
BRANCH  10  21
ATOM     21  C   UNL     1     -11.628  10.038  70.104  0.00  0.00    +0.188 C 
BRANCH  21  22
ATOM     22  C   UNL     1     -12.273   9.726  71.400  0.00  0.00    +0.381 C 
ATOM     23  O   UNL     1     -11.663   8.783  72.232  0.00  0.00    -0.244 OA
ATOM     24  O   UNL     1     -13.516   9.912  71.559  0.00  0.00    -0.244 OA
ENDBRANCH  21  22
ENDBRANCH  10  21
BRANCH   7  25
ATOM     25  C   UNL     1     -11.603  15.150  71.946  0.00  0.00    +0.188 C 
BRANCH  25  26
ATOM     26  C   UNL     1     -12.901  15.121  72.648  0.00  0.00    +0.381 C 
ATOM     27  O   UNL     1     -13.963  15.961  72.357  0.00  0.00    -0.244 OA
ATOM     28  O   UNL     1     -13.118  14.138  73.411  0.00  0.00    -0.244 OA
ENDBRANCH  25  26
ENDBRANCH   7  25
TORSDOF 8
ENDMDL
MODEL 6
REMARK VINA RESULT:      -6.4      1.756      5.398
REMARK  Name = 
REMARK  8 active torsions:
REMARK  status: ('A' for Active; 'I' for Inactive)
REMARK    1  A    between atoms: C_2  and  C_4
REMARK    2  A    between atoms: C_4  and  N_5
REMARK    3  A    between atoms: N_8  and  C_9
REMARK    4  A    between atoms: C_9  and  C_10
REMARK    5  A    between atoms: N_15  and  C_16
REMARK    6  A    between atoms: C_16  and  C_17
REMARK    7  A    between atoms: N_22  and  C_23
REMARK    8  A    between atoms: C_23  and  C_24
REMARK                            x       y       z     vdW  Elec       q    Type
REMARK                         _______ _______ _______ _____ _____    ______ ____
ROOT
ATOM      1  N   UNL     1     -11.961  11.312  69.577  0.00  0.00    -0.261 NA
ATOM      2  C   UNL     1     -11.562  12.613  70.041  0.00  0.00    +0.090 C 
ATOM      3  C   UNL     1     -12.378  13.738  69.452  0.00  0.00    +0.090 C 
ATOM      4  N   UNL     1     -11.694  14.966  69.771  0.00  0.00    -0.261 NA
ATOM      5  C   UNL     1     -11.378  15.771  68.629  0.00  0.00    +0.090 C 
ATOM      6  C   UNL     1     -10.054  15.276  68.060  0.00  0.00    +0.090 C 
ATOM      7  N   UNL     1     -10.218  14.625  66.786  0.00  0.00    -0.261 NA
ATOM      8  C   UNL     1      -9.455  13.409  66.667  0.00  0.00    +0.090 C 
ATOM      9  C   UNL     1     -10.391  12.294  66.270  0.00  0.00    +0.090 C 
ATOM     10  N   UNL     1      -9.854  10.981  66.607  0.00  0.00    -0.261 NA
ATOM     11  C   UNL     1     -10.427  10.473  67.852  0.00  0.00    +0.090 C 
ATOM     12  C   UNL     1     -11.751  11.133  68.167  0.00  0.00    +0.090 C 
ENDROOT
BRANCH   1  13
ATOM     13  C   UNL     1     -11.291  10.321  70.389  0.00  0.00    +0.188 C 
BRANCH  13  15
ATOM     14  O   UNL     1     -12.371   8.407  71.400  0.00  0.00    -0.244 OA
ATOM     15  C   UNL     1     -12.330   9.661  71.224  0.00  0.00    +0.381 C 
ATOM     16  O   UNL     1     -13.196  10.412  72.004  0.00  0.00    -0.244 OA
ENDBRANCH  13  15
ENDBRANCH   1  13
BRANCH   4  17
ATOM     17  C   UNL     1     -12.261  15.682  70.875  0.00  0.00    +0.188 C 
BRANCH  17  18
ATOM     18  C   UNL     1     -13.437  15.007  71.481  0.00  0.00    +0.381 C 
ATOM     19  O   UNL     1     -13.215  14.390  72.717  0.00  0.00    -0.244 OA
ATOM     20  O   UNL     1     -14.534  15.636  71.402  0.00  0.00    -0.244 OA
ENDBRANCH  17  18
ENDBRANCH   4  17
BRANCH  10  21
ATOM     21  C   UNL     1     -10.199  10.084  65.512  0.00  0.00    +0.188 C 
BRANCH  21  22
ATOM     22  C   UNL     1      -9.239  10.173  64.389  0.00  0.00    +0.381 C 
ATOM     23  O   UNL     1      -7.882  10.316  64.689  0.00  0.00    -0.244 OA
ATOM     24  O   UNL     1      -9.620  10.577  63.250  0.00  0.00    -0.244 OA
ENDBRANCH  21  22
ENDBRANCH  10  21
BRANCH   7  25
ATOM     25  C   UNL     1     -10.020  15.513  65.669  0.00  0.00    +0.188 C 
BRANCH  25  26
ATOM     26  C   UNL     1     -11.204  15.637  64.797  0.00  0.00    +0.381 C 
ATOM     27  O   UNL     1     -12.262  14.743  64.786  0.00  0.00    -0.244 OA
ATOM     28  O   UNL     1     -11.349  16.731  64.181  0.00  0.00    -0.244 OA
ENDBRANCH  25  26
ENDBRANCH   7  25
TORSDOF 8
ENDMDL
MODEL 7
REMARK VINA RESULT:      -6.3      2.033      6.373
REMARK  Name = 
REMARK  8 active torsions:
REMARK  status: ('A' for Active; 'I' for Inactive)
REMARK    1  A    between atoms: C_2  and  C_4
REMARK    2  A    between atoms: C_4  and  N_5
REMARK    3  A    between atoms: N_8  and  C_9
REMARK    4  A    between atoms: C_9  and  C_10
REMARK    5  A    between atoms: N_15  and  C_16
REMARK    6  A    between atoms: C_16  and  C_17
REMARK    7  A    between atoms: N_22  and  C_23
REMARK    8  A    between atoms: C_23  and  C_24
REMARK                            x       y       z     vdW  Elec       q    Type
REMARK                         _______ _______ _______ _____ _____    ______ ____
ROOT
ATOM      1  N   UNL     1     -10.788  14.432  66.801  0.00  0.00    -0.261 NA
ATOM      2  C   UNL     1     -11.838  14.451  67.783  0.00  0.00    +0.090 C 
ATOM      3  C   UNL     1     -11.332  14.515  69.204  0.00  0.00    +0.090 C 
ATOM      4  N   UNL     1     -12.455  14.239  70.064  0.00  0.00    -0.261 NA
ATOM      5  C   UNL     1     -12.243  13.148  70.967  0.00  0.00    +0.090 C 
ATOM      6  C   UNL     1     -12.592  11.859  70.233  0.00  0.00    +0.090 C 
ATOM      7  N   UNL     1     -11.429  11.054  69.963  0.00  0.00    -0.261 NA
ATOM      8  C   UNL     1     -11.415  10.506  68.630  0.00  0.00    +0.090 C 
ATOM      9  C   UNL     1     -10.114  10.889  67.969  0.00  0.00    +0.090 C 
ATOM     10  N   UNL     1     -10.201  10.834  66.514  0.00  0.00    -0.261 NA
ATOM     11  C   UNL     1     -10.416  12.161  65.941  0.00  0.00    +0.090 C 
ATOM     12  C   UNL     1      -9.967  13.255  66.885  0.00  0.00    +0.090 C 
ENDROOT
BRANCH   1  13
ATOM     13  C   UNL     1     -11.387  14.624  65.499  0.00  0.00    +0.188 C 
BRANCH  13  15
ATOM     14  O   UNL     1      -9.890  16.522  65.411  0.00  0.00    -0.244 OA
ATOM     15  C   UNL     1     -10.951  15.958  65.008  0.00  0.00    +0.381 C 
ATOM     16  O   UNL     1     -11.594  16.567  63.942  0.00  0.00    -0.244 OA
ENDBRANCH  13  15
ENDBRANCH   1  13
BRANCH   4  17
ATOM     17  C   UNL     1     -13.040  15.406  70.654  0.00  0.00    +0.188 C 
BRANCH  17  18
ATOM     18  C   UNL     1     -13.978  15.105  71.765  0.00  0.00    +0.381 C 
ATOM     19  O   UNL     1     -13.774  15.824  72.948  0.00  0.00    -0.244 OA
ATOM     20  O   UNL     1     -15.196  14.975  71.437  0.00  0.00    -0.244 OA
ENDBRANCH  17  18
ENDBRANCH   4  17
BRANCH  10  21
ATOM     21  C   UNL     1      -8.938  10.294  66.031  0.00  0.00    +0.188 C 
BRANCH  21  22
ATOM     22  C   UNL     1      -9.130   9.267  64.982  0.00  0.00    +0.381 C 
ATOM     23  O   UNL     1      -8.602   7.992  65.200  0.00  0.00    -0.244 OA
ATOM     24  O   UNL     1      -9.322   9.610  63.777  0.00  0.00    -0.244 OA
ENDBRANCH  21  22
ENDBRANCH  10  21
BRANCH   7  25
ATOM     25  C   UNL     1     -11.184  10.057  70.973  0.00  0.00    +0.188 C 
BRANCH  25  26
ATOM     26  C   UNL     1     -12.042   8.864  70.845  0.00  0.00    +0.381 C 
ATOM     27  O   UNL     1     -11.589   7.617  70.444  0.00  0.00    -0.244 OA
ATOM     28  O   UNL     1     -13.208   8.941  71.327  0.00  0.00    -0.244 OA
ENDBRANCH  25  26
ENDBRANCH   7  25
TORSDOF 8
ENDMDL
MODEL 8
REMARK VINA RESULT:      -6.1      2.157      8.065
REMARK  Name = 
REMARK  8 active torsions:
REMARK  status: ('A' for Active; 'I' for Inactive)
REMARK    1  A    between atoms: C_2  and  C_4
REMARK    2  A    between atoms: C_4  and  N_5
REMARK    3  A    between atoms: N_8  and  C_9
REMARK    4  A    between atoms: C_9  and  C_10
REMARK    5  A    between atoms: N_15  and  C_16
REMARK    6  A    between atoms: C_16  and  C_17
REMARK    7  A    between atoms: N_22  and  C_23
REMARK    8  A    between atoms: C_23  and  C_24
REMARK                            x       y       z     vdW  Elec       q    Type
REMARK                         _______ _______ _______ _____ _____    ______ ____
ROOT
ATOM      1  N   UNL     1     -11.125  10.436  67.898  0.00  0.00    -0.261 NA
ATOM      2  C   UNL     1     -11.193  10.467  69.334  0.00  0.00    +0.090 C 
ATOM      3  C   UNL     1     -12.601  10.568  69.867  0.00  0.00    +0.090 C 
ATOM      4  N   UNL     1     -12.498  10.878  71.271  0.00  0.00    -0.261 NA
ATOM      5  C   UNL     1     -13.204  12.062  71.660  0.00  0.00    +0.090 C 
ATOM      6  C   UNL     1     -12.287  13.255  71.414  0.00  0.00    +0.090 C 
ATOM      7  N   UNL     1     -12.748  14.079  70.327  0.00  0.00    -0.261 NA
ATOM      8  C   UNL     1     -11.691  14.492  69.439  0.00  0.00    +0.090 C 
ATOM      9  C   UNL     1     -12.070  14.104  68.031  0.00  0.00    +0.090 C 
ATOM     10  N   UNL     1     -10.907  14.010  67.156  0.00  0.00    -0.261 NA
ATOM     11  C   UNL     1     -10.475  12.624  66.990  0.00  0.00    +0.090 C 
ATOM     12  C   UNL     1     -11.594  11.651  67.290  0.00  0.00    +0.090 C 
ENDROOT
BRANCH   1  13
ATOM     13  C   UNL     1      -9.773  10.088  67.520  0.00  0.00    +0.188 C 
BRANCH  13  15
ATOM     14  O   UNL     1     -10.482   7.925  66.699  0.00  0.00    -0.244 OA
ATOM     15  C   UNL     1      -9.709   8.604  67.439  0.00  0.00    +0.381 C 
ATOM     16  O   UNL     1      -8.669   7.905  68.033  0.00  0.00    -0.244 OA
ENDBRANCH  13  15
ENDBRANCH   1  13
BRANCH   4  17
ATOM     17  C   UNL     1     -12.691   9.750  72.134  0.00  0.00    +0.188 C 
BRANCH  17  18
ATOM     18  C   UNL     1     -13.754   8.822  71.673  0.00  0.00    +0.381 C 
ATOM     19  O   UNL     1     -13.322   7.560  71.250  0.00  0.00    -0.244 OA
ATOM     20  O   UNL     1     -14.810   8.803  72.374  0.00  0.00    -0.244 OA
ENDBRANCH  17  18
ENDBRANCH   4  17
BRANCH  10  21
ATOM     21  C   UNL     1     -11.299  14.555  65.864  0.00  0.00    +0.188 C 
BRANCH  21  22
ATOM     22  C   UNL     1     -10.536  15.774  65.513  0.00  0.00    +0.381 C 
ATOM     23  O   UNL     1     -11.007  16.571  64.467  0.00  0.00    -0.244 OA
ATOM     24  O   UNL     1      -9.301  15.859  65.788  0.00  0.00    -0.244 OA
ENDBRANCH  21  22
ENDBRANCH  10  21
BRANCH   7  25
ATOM     25  C   UNL     1     -13.565  15.182  70.763  0.00  0.00    +0.188 C 
BRANCH  25  26
ATOM     26  C   UNL     1     -13.095  15.808  72.014  0.00  0.00    +0.381 C 
ATOM     27  O   UNL     1     -11.843  16.381  72.176  0.00  0.00    -0.244 OA
ATOM     28  O   UNL     1     -13.959  16.014  72.912  0.00  0.00    -0.244 OA
ENDBRANCH  25  26
ENDBRANCH   7  25
TORSDOF 8
ENDMDL
MODEL 9
REMARK VINA RESULT:      -6.1      1.221      5.318
REMARK  Name = 
REMARK  8 active torsions:
REMARK  status: ('A' for Active; 'I' for Inactive)
REMARK    1  A    between atoms: C_2  and  C_4
REMARK    2  A    between atoms: C_4  and  N_5
REMARK    3  A    between atoms: N_8  and  C_9
REMARK    4  A    between atoms: C_9  and  C_10
REMARK    5  A    between atoms: N_15  and  C_16
REMARK    6  A    between atoms: C_16  and  C_17
REMARK    7  A    between atoms: N_22  and  C_23
REMARK    8  A    between atoms: C_23  and  C_24
REMARK                            x       y       z     vdW  Elec       q    Type
REMARK                         _______ _______ _______ _____ _____    ______ ____
ROOT
ATOM      1  N   UNL     1     -11.475  11.917  69.495  0.00  0.00    -0.261 NA
ATOM      2  C   UNL     1     -11.515  12.000  68.060  0.00  0.00    +0.090 C 
ATOM      3  C   UNL     1     -10.196  12.398  67.444  0.00  0.00    +0.090 C 
ATOM      4  N   UNL     1     -10.455  12.717  66.063  0.00  0.00    -0.261 NA
ATOM      5  C   UNL     1     -10.030  14.030  65.678  0.00  0.00    +0.090 C 
ATOM      6  C   UNL     1     -11.148  15.005  66.029  0.00  0.00    +0.090 C 
ATOM      7  N   UNL     1     -10.787  15.877  67.116  0.00  0.00    -0.261 NA
ATOM      8  C   UNL     1     -11.841  16.043  68.084  0.00  0.00    +0.090 C 
ATOM      9  C   UNL     1     -11.295  15.703  69.450  0.00  0.00    +0.090 C 
ATOM     10  N   UNL     1     -12.352  15.352  70.391  0.00  0.00    -0.261 NA
ATOM     11  C   UNL     1     -12.486  13.904  70.528  0.00  0.00    +0.090 C 
ATOM     12  C   UNL     1     -11.218  13.186  70.120  0.00  0.00    +0.090 C 
ENDROOT
BRANCH   1  13
ATOM     13  C   UNL     1     -12.700  11.293  69.943  0.00  0.00    +0.188 C 
BRANCH  13  15
ATOM     14  O   UNL     1     -13.188   9.994  71.924  0.00  0.00    -0.244 OA
ATOM     15  C   UNL     1     -12.344  10.382  71.063  0.00  0.00    +0.381 C 
ATOM     16  O   UNL     1     -11.104   9.764  71.109  0.00  0.00    -0.244 OA
ENDBRANCH  13  15
ENDBRANCH   1  13
BRANCH   4  17
ATOM     17  C   UNL     1     -10.101  11.675  65.145  0.00  0.00    +0.188 C 
BRANCH  17  18
ATOM     18  C   UNL     1     -10.438  11.986  63.733  0.00  0.00    +0.381 C 
ATOM     19  O   UNL     1      -9.519  11.542  62.775  0.00  0.00    -0.244 OA
ATOM     20  O   UNL     1     -11.652  11.821  63.407  0.00  0.00    -0.244 OA
ENDBRANCH  17  18
ENDBRANCH   4  17
BRANCH  10  21
ATOM     21  C   UNL     1     -11.989  15.932  71.677  0.00  0.00    +0.188 C 
BRANCH  21  22
ATOM     22  C   UNL     1     -12.970  15.608  72.737  0.00  0.00    +0.381 C 
ATOM     23  O   UNL     1     -14.291  16.028  72.567  0.00  0.00    -0.244 OA
ATOM     24  O   UNL     1     -12.583  15.398  73.926  0.00  0.00    -0.244 OA
ENDBRANCH  21  22
ENDBRANCH  10  21
BRANCH   7  25
ATOM     25  C   UNL     1     -10.240  17.134  66.675  0.00  0.00    +0.188 C 
BRANCH  25  26
ATOM     26  C   UNL     1      -8.778  17.236  66.852  0.00  0.00    +0.381 C 
ATOM     27  O   UNL     1      -7.854  17.046  65.837  0.00  0.00    -0.244 OA
ATOM     28  O   UNL     1      -8.366  17.727  67.941  0.00  0.00    -0.244 OA
ENDBRANCH  25  26
ENDBRANCH   7  25
TORSDOF 8
ENDMDL
