MODEL 1
REMARK VINA RESULT:      -3.8      0.000      0.000
REMARK  Name = 
REMARK  4 active torsions:
REMARK  status: ('A' for Active; 'I' for Inactive)
REMARK    1  A    between atoms: C_2  and  O_4
REMARK    2  A    between atoms: O_4  and  C_5
REMARK    3  A    between atoms: C_5  and  C_7
REMARK    4  A    between atoms: C_7  and  N_8
REMARK                            x       y       z     vdW  Elec       q    Type
REMARK                         _______ _______ _______ _____ _____    ______ ____
ROOT
ATOM      1  C   UNL     1      -9.836  16.166  66.749  0.00  0.00    +0.223 C 
ATOM      2  C   UNL     1      -8.589  15.068  66.971  0.00  0.00    +0.054 C 
ENDROOT
BRANCH   1   3
ATOM      3  O   UNL     1      -9.880  15.851  65.215  0.00  0.00    -0.446 OA
BRANCH   3   5
ATOM      4  C   UNL     1     -11.900  14.492  64.707  0.00  0.00    +0.121 C 
ATOM      5  C   UNL     1     -11.185  15.803  64.765  0.00  0.00    +0.318 C 
ATOM      6  O   UNL     1     -11.600  16.673  63.958  0.00  0.00    -0.250 OA
ENDBRANCH   3   5
ENDBRANCH   1   3
BRANCH   1   7
ATOM      7  C   UNL     1      -8.751  17.417  66.500  0.00  0.00    +0.153 C 
BRANCH   7   8
ATOM      8  N   UNL     1      -9.486  18.517  67.092  0.00  0.00    +0.313 N 
ATOM      9  C   UNL     1      -8.493  19.433  67.612  0.00  0.00    +0.171 C 
ATOM     10  C   UNL     1     -10.345  19.192  66.154  0.00  0.00    +0.171 C 
ATOM     11  C   UNL     1     -10.255  18.026  68.228  0.00  0.00    +0.171 C 
ENDBRANCH   7   8
ENDBRANCH   1   7
TORSDOF 4
ENDMDL
MODEL 2
REMARK VINA RESULT:      -3.8      3.087      3.942
REMARK  Name = 
REMARK  4 active torsions:
REMARK  status: ('A' for Active; 'I' for Inactive)
REMARK    1  A    between atoms: C_2  and  O_4
REMARK    2  A    between atoms: O_4  and  C_5
REMARK    3  A    between atoms: C_5  and  C_7
REMARK    4  A    between atoms: C_7  and  N_8
REMARK                            x       y       z     vdW  Elec       q    Type
REMARK                         _______ _______ _______ _____ _____    ______ ____
ROOT
ATOM      1  C   UNL     1     -11.858  13.121  67.268  0.00  0.00    +0.223 C 
ATOM      2  C   UNL     1     -11.667  11.819  68.305  0.00  0.00    +0.054 C 
ENDROOT
BRANCH   1   3
ATOM      3  O   UNL     1     -12.058  12.159  66.048  0.00  0.00    -0.446 OA
BRANCH   3   5
ATOM      4  C   UNL     1     -12.035  12.644  63.609  0.00  0.00    +0.121 C 
ATOM      5  C   UNL     1     -12.606  12.836  64.977  0.00  0.00    +0.318 C 
ATOM      6  O   UNL     1     -13.186  13.935  65.162  0.00  0.00    -0.250 OA
ENDBRANCH   3   5
ENDBRANCH   1   3
BRANCH   1   7
ATOM      7  C   UNL     1     -10.209  13.197  66.986  0.00  0.00    +0.153 C 
BRANCH   7   8
ATOM      8  N   UNL     1      -9.995  14.627  67.089  0.00  0.00    +0.313 N 
ATOM      9  C   UNL     1      -9.749  15.096  65.741  0.00  0.00    +0.171 C 
ATOM     10  C   UNL     1     -11.115  15.325  67.664  0.00  0.00    +0.171 C 
ATOM     11  C   UNL     1      -8.784  14.879  67.859  0.00  0.00    +0.171 C 
ENDBRANCH   7   8
ENDBRANCH   1   7
TORSDOF 4
ENDMDL
MODEL 3
REMARK VINA RESULT:      -3.7      3.304      4.623
REMARK  Name = 
REMARK  4 active torsions:
REMARK  status: ('A' for Active; 'I' for Inactive)
REMARK    1  A    between atoms: C_2  and  O_4
REMARK    2  A    between atoms: O_4  and  C_5
REMARK    3  A    between atoms: C_5  and  C_7
REMARK    4  A    between atoms: C_7  and  N_8
REMARK                            x       y       z     vdW  Elec       q    Type
REMARK                         _______ _______ _______ _____ _____    ______ ____
ROOT
ATOM      1  C   UNL     1     -10.721  14.209  65.139  0.00  0.00    +0.223 C 
ATOM      2  C   UNL     1     -10.943  15.860  64.950  0.00  0.00    +0.054 C 
ENDROOT
BRANCH   1   3
ATOM      3  O   UNL     1     -11.931  13.908  64.191  0.00  0.00    -0.446 OA
BRANCH   3   5
ATOM      4  C   UNL     1     -10.709  11.880  63.431  0.00  0.00    +0.121 C 
ATOM      5  C   UNL     1     -11.966  12.569  63.856  0.00  0.00    +0.318 C 
ATOM      6  O   UNL     1     -13.027  12.062  63.414  0.00  0.00    -0.250 OA
ENDBRANCH   3   5
ENDBRANCH   1   3
BRANCH   1   7
ATOM      7  C   UNL     1     -11.720  14.183  66.484  0.00  0.00    +0.153 C 
BRANCH   7   8
ATOM      8  N   UNL     1     -10.899  13.416  67.399  0.00  0.00    +0.313 N 
ATOM      9  C   UNL     1     -11.678  12.249  67.758  0.00  0.00    +0.171 C 
ATOM     10  C   UNL     1      -9.638  13.019  66.830  0.00  0.00    +0.171 C 
ATOM     11  C   UNL     1     -10.690  14.185  68.619  0.00  0.00    +0.171 C 
ENDBRANCH   7   8
ENDBRANCH   1   7
TORSDOF 4
ENDMDL
MODEL 4
REMARK VINA RESULT:      -3.7      2.705      4.329
REMARK  Name = 
REMARK  4 active torsions:
REMARK  status: ('A' for Active; 'I' for Inactive)
REMARK    1  A    between atoms: C_2  and  O_4
REMARK    2  A    between atoms: O_4  and  C_5
REMARK    3  A    between atoms: C_5  and  C_7
REMARK    4  A    between atoms: C_7  and  N_8
REMARK                            x       y       z     vdW  Elec       q    Type
REMARK                         _______ _______ _______ _____ _____    ______ ____
ROOT
ATOM      1  C   UNL     1     -11.888  14.136  66.076  0.00  0.00    +0.223 C 
ATOM      2  C   UNL     1     -12.636  13.099  64.992  0.00  0.00    +0.054 C 
ENDROOT
BRANCH   1   3
ATOM      3  O   UNL     1     -10.861  14.586  64.982  0.00  0.00    -0.446 OA
BRANCH   3   5
ATOM      4  C   UNL     1     -10.292  16.679  66.200  0.00  0.00    +0.121 C 
ATOM      5  C   UNL     1     -10.737  15.962  64.966  0.00  0.00    +0.318 C 
ATOM      6  O   UNL     1     -11.437  16.644  64.177  0.00  0.00    -0.250 OA
ENDBRANCH   3   5
ENDBRANCH   1   3
BRANCH   1   7
ATOM      7  C   UNL     1     -10.858  12.922  66.598  0.00  0.00    +0.153 C 
BRANCH   7   8
ATOM      8  N   UNL     1     -10.837  13.197  68.020  0.00  0.00    +0.313 N 
ATOM      9  C   UNL     1      -9.520  13.724  68.310  0.00  0.00    +0.171 C 
ATOM     10  C   UNL     1     -11.851  14.132  68.430  0.00  0.00    +0.171 C 
ATOM     11  C   UNL     1     -10.970  11.945  68.754  0.00  0.00    +0.171 C 
ENDBRANCH   7   8
ENDBRANCH   1   7
TORSDOF 4
ENDMDL
MODEL 5
REMARK VINA RESULT:      -3.5      2.162      4.075
REMARK  Name = 
REMARK  4 active torsions:
REMARK  status: ('A' for Active; 'I' for Inactive)
REMARK    1  A    between atoms: C_2  and  O_4
REMARK    2  A    between atoms: O_4  and  C_5
REMARK    3  A    between atoms: C_5  and  C_7
REMARK    4  A    between atoms: C_7  and  N_8
REMARK                            x       y       z     vdW  Elec       q    Type
REMARK                         _______ _______ _______ _____ _____    ______ ____
ROOT
ATOM      1  C   UNL     1      -9.965  16.597  68.091  0.00  0.00    +0.223 C 
ATOM      2  C   UNL     1     -10.700  16.336  69.574  0.00  0.00    +0.054 C 
ENDROOT
BRANCH   1   3
ATOM      3  O   UNL     1     -10.959  17.765  67.771  0.00  0.00    -0.446 OA
BRANCH   3   5
ATOM      4  C   UNL     1     -10.061  20.054  67.396  0.00  0.00    +0.121 C 
ATOM      5  C   UNL     1     -10.379  18.676  66.910  0.00  0.00    +0.318 C 
ATOM      6  O   UNL     1     -10.573  18.579  65.673  0.00  0.00    -0.250 OA
ENDBRANCH   3   5
ENDBRANCH   1   3
BRANCH   1   7
ATOM      7  C   UNL     1     -10.970  15.485  67.345  0.00  0.00    +0.153 C 
BRANCH   7   8
ATOM      8  N   UNL     1     -10.035  14.868  66.426  0.00  0.00    +0.313 N 
ATOM      9  C   UNL     1     -10.562  15.101  65.098  0.00  0.00    +0.171 C 
ATOM     10  C   UNL     1      -8.702  15.401  66.535  0.00  0.00    +0.171 C 
ATOM     11  C   UNL     1     -10.029  13.427  66.640  0.00  0.00    +0.171 C 
ENDBRANCH   7   8
ENDBRANCH   1   7
TORSDOF 4
ENDMDL
MODEL 6
REMARK VINA RESULT:      -3.5      4.534      5.817
REMARK  Name = 
REMARK  4 active torsions:
REMARK  status: ('A' for Active; 'I' for Inactive)
REMARK    1  A    between atoms: C_2  and  O_4
REMARK    2  A    between atoms: O_4  and  C_5
REMARK    3  A    between atoms: C_5  and  C_7
REMARK    4  A    between atoms: C_7  and  N_8
REMARK                            x       y       z     vdW  Elec       q    Type
REMARK                         _______ _______ _______ _____ _____    ______ ____
ROOT
ATOM      1  C   UNL     1     -11.204  13.005  66.163  0.00  0.00    +0.223 C 
ATOM      2  C   UNL     1     -12.068  14.152  67.028  0.00  0.00    +0.054 C 
ENDROOT
BRANCH   1   3
ATOM      3  O   UNL     1     -12.505  12.538  65.426  0.00  0.00    -0.446 OA
BRANCH   3   5
ATOM      4  C   UNL     1     -11.260  11.663  63.459  0.00  0.00    +0.121 C 
ATOM      5  C   UNL     1     -12.316  12.536  64.058  0.00  0.00    +0.318 C 
ATOM      6  O   UNL     1     -12.611  13.554  63.384  0.00  0.00    -0.250 OA
ENDBRANCH   3   5
ENDBRANCH   1   3
BRANCH   1   7
ATOM      7  C   UNL     1     -11.431  11.861  67.367  0.00  0.00    +0.153 C 
BRANCH   7   8
ATOM      8  N   UNL     1     -10.177  11.141  67.277  0.00  0.00    +0.313 N 
ATOM      9  C   UNL     1      -9.711  10.971  68.638  0.00  0.00    +0.171 C 
ATOM     10  C   UNL     1     -10.305   9.862  66.629  0.00  0.00    +0.171 C 
ATOM     11  C   UNL     1      -9.195  11.968  66.587  0.00  0.00    +0.171 C 
ENDBRANCH   7   8
ENDBRANCH   1   7
TORSDOF 4
ENDMDL
MODEL 7
REMARK VINA RESULT:      -3.5      1.703      2.211
REMARK  Name = 
REMARK  4 active torsions:
REMARK  status: ('A' for Active; 'I' for Inactive)
REMARK    1  A    between atoms: C_2  and  O_4
REMARK    2  A    between atoms: O_4  and  C_5
REMARK    3  A    between atoms: C_5  and  C_7
REMARK    4  A    between atoms: C_7  and  N_8
REMARK                            x       y       z     vdW  Elec       q    Type
REMARK                         _______ _______ _______ _____ _____    ______ ____
ROOT
ATOM      1  C   UNL     1     -10.753  14.953  66.373  0.00  0.00    +0.223 C 
ATOM      2  C   UNL     1      -9.678  13.668  66.328  0.00  0.00    +0.054 C 
ENDROOT
BRANCH   1   3
ATOM      3  O   UNL     1     -11.099  14.754  64.858  0.00  0.00    -0.446 OA
BRANCH   3   5
ATOM      4  C   UNL     1     -12.063  12.888  63.526  0.00  0.00    +0.121 C 
ATOM      5  C   UNL     1     -12.093  13.807  64.705  0.00  0.00    +0.318 C 
ATOM      6  O   UNL     1     -13.232  14.012  65.192  0.00  0.00    -0.250 OA
ENDBRANCH   3   5
ENDBRANCH   1   3
BRANCH   1   7
ATOM      7  C   UNL     1      -9.539  16.042  65.992  0.00  0.00    +0.153 C 
BRANCH   7   8
ATOM      8  N   UNL     1      -9.793  17.068  66.983  0.00  0.00    +0.313 N 
ATOM      9  C   UNL     1     -10.261  18.227  66.253  0.00  0.00    +0.171 C 
ATOM     10  C   UNL     1     -10.764  16.672  67.969  0.00  0.00    +0.171 C 
ATOM     11  C   UNL     1      -8.538  17.441  67.623  0.00  0.00    +0.171 C 
ENDBRANCH   7   8
ENDBRANCH   1   7
TORSDOF 4
ENDMDL
MODEL 8
REMARK VINA RESULT:      -3.5      4.056      5.040
REMARK  Name = 
REMARK  4 active torsions:
REMARK  status: ('A' for Active; 'I' for Inactive)
REMARK    1  A    between atoms: C_2  and  O_4
REMARK    2  A    between atoms: O_4  and  C_5
REMARK    3  A    between atoms: C_5  and  C_7
REMARK    4  A    between atoms: C_7  and  N_8
REMARK                            x       y       z     vdW  Elec       q    Type
REMARK                         _______ _______ _______ _____ _____    ______ ____
ROOT
ATOM      1  C   UNL     1     -11.017  15.293  69.677  0.00  0.00    +0.223 C 
ATOM      2  C   UNL     1     -11.742  13.799  69.448  0.00  0.00    +0.054 C 
ENDROOT
BRANCH   1   3
ATOM      3  O   UNL     1     -12.388  15.926  70.095  0.00  0.00    -0.446 OA
BRANCH   3   5
ATOM      4  C   UNL     1     -13.982  15.380  71.924  0.00  0.00    +0.121 C 
ATOM      5  C   UNL     1     -12.614  15.749  71.445  0.00  0.00    +0.318 C 
ATOM      6  O   UNL     1     -11.902  16.356  72.284  0.00  0.00    -0.250 OA
ENDBRANCH   3   5
ENDBRANCH   1   3
BRANCH   1   7
ATOM      7  C   UNL     1     -11.269  15.712  68.074  0.00  0.00    +0.153 C 
BRANCH   7   8
ATOM      8  N   UNL     1     -10.065  16.474  67.815  0.00  0.00    +0.313 N 
ATOM      9  C   UNL     1     -10.475  17.861  67.738  0.00  0.00    +0.171 C 
ATOM     10  C   UNL     1      -9.060  16.306  68.832  0.00  0.00    +0.171 C 
ATOM     11  C   UNL     1      -9.536  16.109  66.507  0.00  0.00    +0.171 C 
ENDBRANCH   7   8
ENDBRANCH   1   7
TORSDOF 4
ENDMDL
MODEL 9
REMARK VINA RESULT:      -3.5      1.692      2.838
REMARK  Name = 
REMARK  4 active torsions:
REMARK  status: ('A' for Active; 'I' for Inactive)
REMARK    1  A    between atoms: C_2  and  O_4
REMARK    2  A    between atoms: O_4  and  C_5
REMARK    3  A    between atoms: C_5  and  C_7
REMARK    4  A    between atoms: C_7  and  N_8
REMARK                            x       y       z     vdW  Elec       q    Type
REMARK                         _______ _______ _______ _____ _____    ______ ____
ROOT
ATOM      1  C   UNL     1      -9.395  18.493  66.470  0.00  0.00    +0.223 C 
ATOM      2  C   UNL     1     -10.489  19.759  66.582  0.00  0.00    +0.054 C 
ENDROOT
BRANCH   1   3
ATOM      3  O   UNL     1     -10.540  17.446  66.686  0.00  0.00    -0.446 OA
BRANCH   3   5
ATOM      4  C   UNL     1      -9.512  15.355  65.818  0.00  0.00    +0.121 C 
ATOM      5  C   UNL     1     -10.500  16.471  65.709  0.00  0.00    +0.318 C 
ATOM      6  O   UNL     1     -10.871  16.742  64.540  0.00  0.00    -0.250 OA
ENDBRANCH   3   5
ENDBRANCH   1   3
BRANCH   1   7
ATOM      7  C   UNL     1      -9.088  18.553  68.116  0.00  0.00    +0.153 C 
BRANCH   7   8
ATOM      8  N   UNL     1      -7.680  18.212  68.127  0.00  0.00    +0.313 N 
ATOM      9  C   UNL     1      -7.585  16.911  68.756  0.00  0.00    +0.171 C 
ATOM     10  C   UNL     1      -7.097  18.174  66.812  0.00  0.00    +0.171 C 
ATOM     11  C   UNL     1      -6.963  19.154  68.977  0.00  0.00    +0.171 C 
ENDBRANCH   7   8
ENDBRANCH   1   7
TORSDOF 4
ENDMDL
