MODEL 1
REMARK VINA RESULT:      -6.0      0.000      0.000
REMARK  Name = 
REMARK  6 active torsions:
REMARK  status: ('A' for Active; 'I' for Inactive)
REMARK    1  A    between atoms: C_2  and  N_3
REMARK    2  A    between atoms: N_3  and  C_4
REMARK    3  A    between atoms: C_6  and  C_8
REMARK    4  A    between atoms: C_8  and  C_9
REMARK    5  A    between atoms: C_11  and  C_12
REMARK    6  A    between atoms: C_18  and  N_19
REMARK                            x       y       z     vdW  Elec       q    Type
REMARK                         _______ _______ _______ _____ _____    ______ ____
ROOT
ATOM      1  C   UNL     1      -8.621  17.189  68.285  0.00  0.00    +0.122 C 
ATOM      2  C   UNL     1      -8.294  16.453  67.221  0.00  0.00    +0.015 C 
ENDROOT
BRANCH   2   3
ATOM      3  C   UNL     1      -9.115  15.387  66.700  0.00  0.00    +0.010 A 
ATOM      4  C   UNL     1      -9.938  15.688  65.623  0.00  0.00    +0.079 A 
ATOM      5  C   UNL     1     -10.714  14.704  65.077  0.00  0.00    +0.332 A 
ATOM      6  C   UNL     1     -10.348  13.373  65.176  0.00  0.00    +0.303 A 
ATOM      7  O   UNL     1     -10.630  12.505  64.118  0.00  0.00    -0.277 OA
ATOM      8  C   UNL     1      -9.409  13.050  66.149  0.00  0.00    +0.241 A 
ATOM      9  O   UNL     1      -9.016  11.728  66.269  0.00  0.00    -0.283 OA
ATOM     10  C   UNL     1      -8.896  14.049  66.967  0.00  0.00    +0.046 A 
BRANCH   5  11
ATOM     11  N   UNL     1     -11.942  15.014  64.409  0.00  0.00    +0.084 N 
ATOM     12  O   UNL     1     -13.125  14.421  64.808  0.00  0.00    -0.576 OA
ATOM     13  O   UNL     1     -12.077  16.155  63.898  0.00  0.00    +0.042 OA
ENDBRANCH   5  11
ENDBRANCH   2   3
BRANCH   1  15
ATOM     14  N   UNL     1      -8.371  19.480  67.219  0.00  0.00    -0.276 N 
ATOM     15  C   UNL     1      -8.081  18.553  68.271  0.00  0.00    +0.259 C 
ATOM     16  O   UNL     1      -7.162  18.781  69.107  0.00  0.00    -0.269 OA
BRANCH  14  18
ATOM     17  C   UNL     1     -10.544  19.618  66.084  0.00  0.00    +0.023 C 
ATOM     18  C   UNL     1      -9.663  20.163  67.172  0.00  0.00    +0.094 C 
ENDBRANCH  14  18
BRANCH  14  19
ATOM     19  C   UNL     1      -7.239  20.293  66.780  0.00  0.00    +0.094 C 
ATOM     20  C   UNL     1      -6.766  19.928  65.405  0.00  0.00    +0.023 C 
ENDBRANCH  14  19
ENDBRANCH   1  15
BRANCH   1  21
ATOM     21  C   UNL     1      -9.936  16.950  68.838  0.00  0.00    +0.105 C 
ATOM     22  N   UNL     1     -11.061  16.880  69.145  0.00  0.00    -0.191 NA
ENDBRANCH   1  21
TORSDOF 6
ENDMDL
MODEL 2
REMARK VINA RESULT:      -5.9      1.387      2.547
REMARK  Name = 
REMARK  6 active torsions:
REMARK  status: ('A' for Active; 'I' for Inactive)
REMARK    1  A    between atoms: C_2  and  N_3
REMARK    2  A    between atoms: N_3  and  C_4
REMARK    3  A    between atoms: C_6  and  C_8
REMARK    4  A    between atoms: C_8  and  C_9
REMARK    5  A    between atoms: C_11  and  C_12
REMARK    6  A    between atoms: C_18  and  N_19
REMARK                            x       y       z     vdW  Elec       q    Type
REMARK                         _______ _______ _______ _____ _____    ______ ____
ROOT
ATOM      1  C   UNL     1      -9.079  16.654  67.805  0.00  0.00    +0.122 C 
ATOM      2  C   UNL     1      -8.791  16.001  66.678  0.00  0.00    +0.015 C 
ENDROOT
BRANCH   2   3
ATOM      3  C   UNL     1      -9.720  15.136  65.991  0.00  0.00    +0.010 A 
ATOM      4  C   UNL     1     -10.000  13.910  66.579  0.00  0.00    +0.079 A 
ATOM      5  C   UNL     1     -10.894  13.068  65.980  0.00  0.00    +0.332 A 
ATOM      6  C   UNL     1     -11.892  13.561  65.157  0.00  0.00    +0.303 A 
ATOM      7  O   UNL     1     -13.142  12.936  65.147  0.00  0.00    -0.277 OA
ATOM      8  C   UNL     1     -11.722  14.849  64.663  0.00  0.00    +0.241 A 
ATOM      9  O   UNL     1     -12.705  15.374  63.843  0.00  0.00    -0.283 OA
ATOM     10  C   UNL     1     -10.582  15.568  65.001  0.00  0.00    +0.046 A 
BRANCH   5  11
ATOM     11  N   UNL     1     -10.814  11.650  66.162  0.00  0.00    +0.084 N 
ATOM     12  O   UNL     1     -11.535  11.031  67.164  0.00  0.00    -0.576 OA
ATOM     13  O   UNL     1     -10.590  10.927  65.158  0.00  0.00    +0.042 OA
ENDBRANCH   5  11
ENDBRANCH   2   3
BRANCH   1  15
ATOM     14  N   UNL     1      -8.469  19.005  67.064  0.00  0.00    -0.276 N 
ATOM     15  C   UNL     1      -8.348  17.914  67.983  0.00  0.00    +0.259 C 
ATOM     16  O   UNL     1      -7.432  17.891  68.852  0.00  0.00    -0.269 OA
BRANCH  14  18
ATOM     17  C   UNL     1     -10.596  19.563  65.972  0.00  0.00    +0.023 C 
ATOM     18  C   UNL     1      -9.647  19.870  67.096  0.00  0.00    +0.094 C 
ENDBRANCH  14  18
BRANCH  14  19
ATOM     19  C   UNL     1      -7.219  19.694  66.752  0.00  0.00    +0.094 C 
ATOM     20  C   UNL     1      -6.689  19.341  65.395  0.00  0.00    +0.023 C 
ENDBRANCH  14  19
ENDBRANCH   1  15
BRANCH   1  21
ATOM     21  C   UNL     1     -10.449  16.556  68.259  0.00  0.00    +0.105 C 
ATOM     22  N   UNL     1     -11.493  16.575  68.785  0.00  0.00    -0.191 NA
ENDBRANCH   1  21
TORSDOF 6
ENDMDL
MODEL 3
REMARK VINA RESULT:      -5.6      1.903      2.401
REMARK  Name = 
REMARK  6 active torsions:
REMARK  status: ('A' for Active; 'I' for Inactive)
REMARK    1  A    between atoms: C_2  and  N_3
REMARK    2  A    between atoms: N_3  and  C_4
REMARK    3  A    between atoms: C_6  and  C_8
REMARK    4  A    between atoms: C_8  and  C_9
REMARK    5  A    between atoms: C_11  and  C_12
REMARK    6  A    between atoms: C_18  and  N_19
REMARK                            x       y       z     vdW  Elec       q    Type
REMARK                         _______ _______ _______ _____ _____    ______ ____
ROOT
ATOM      1  C   UNL     1      -8.732  17.704  67.439  0.00  0.00    +0.122 C 
ATOM      2  C   UNL     1      -8.705  16.416  67.096  0.00  0.00    +0.015 C 
ENDROOT
BRANCH   2   3
ATOM      3  C   UNL     1      -9.886  15.600  66.950  0.00  0.00    +0.010 A 
ATOM      4  C   UNL     1     -10.370  15.406  65.663  0.00  0.00    +0.079 A 
ATOM      5  C   UNL     1     -11.471  14.619  65.471  0.00  0.00    +0.332 A 
ATOM      6  C   UNL     1     -11.792  13.618  66.371  0.00  0.00    +0.303 A 
ATOM      7  O   UNL     1     -12.361  12.431  65.900  0.00  0.00    -0.277 OA
ATOM      8  C   UNL     1     -11.209  13.692  67.631  0.00  0.00    +0.241 A 
ATOM      9  O   UNL     1     -11.505  12.702  68.551  0.00  0.00    -0.283 OA
ATOM     10  C   UNL     1     -10.355  14.746  67.930  0.00  0.00    +0.046 A 
BRANCH   5  11
ATOM     11  N   UNL     1     -12.340  14.820  64.351  0.00  0.00    +0.084 N 
ATOM     12  O   UNL     1     -12.524  16.084  63.827  0.00  0.00    -0.576 OA
ATOM     13  O   UNL     1     -12.475  13.885  63.521  0.00  0.00    +0.042 OA
ENDBRANCH   5  11
ENDBRANCH   2   3
BRANCH   1  15
ATOM     14  N   UNL     1      -7.047  19.595  67.639  0.00  0.00    -0.276 N 
ATOM     15  C   UNL     1      -7.614  18.498  66.914  0.00  0.00    +0.259 C 
ATOM     16  O   UNL     1      -7.344  18.313  65.694  0.00  0.00    -0.269 OA
BRANCH  14  18
ATOM     17  C   UNL     1      -5.519  17.982  68.682  0.00  0.00    +0.023 C 
ATOM     18  C   UNL     1      -6.137  19.349  68.757  0.00  0.00    +0.094 C 
ENDBRANCH  14  18
BRANCH  14  19
ATOM     19  C   UNL     1      -6.713  20.765  66.831  0.00  0.00    +0.094 C 
ATOM     20  C   UNL     1      -5.246  21.073  66.842  0.00  0.00    +0.023 C 
ENDBRANCH  14  19
ENDBRANCH   1  15
BRANCH   1  21
ATOM     21  C   UNL     1     -10.044  18.304  67.540  0.00  0.00    +0.105 C 
ATOM     22  N   UNL     1     -11.014  18.955  67.564  0.00  0.00    -0.191 NA
ENDBRANCH   1  21
TORSDOF 6
ENDMDL
MODEL 4
REMARK VINA RESULT:      -5.6      2.304      3.100
REMARK  Name = 
REMARK  6 active torsions:
REMARK  status: ('A' for Active; 'I' for Inactive)
REMARK    1  A    between atoms: C_2  and  N_3
REMARK    2  A    between atoms: N_3  and  C_4
REMARK    3  A    between atoms: C_6  and  C_8
REMARK    4  A    between atoms: C_8  and  C_9
REMARK    5  A    between atoms: C_11  and  C_12
REMARK    6  A    between atoms: C_18  and  N_19
REMARK                            x       y       z     vdW  Elec       q    Type
REMARK                         _______ _______ _______ _____ _____    ______ ____
ROOT
ATOM      1  C   UNL     1      -8.445  16.372  66.179  0.00  0.00    +0.122 C 
ATOM      2  C   UNL     1      -9.751  16.363  65.909  0.00  0.00    +0.015 C 
ENDROOT
BRANCH   2   3
ATOM      3  C   UNL     1     -10.634  15.274  66.254  0.00  0.00    +0.010 A 
ATOM      4  C   UNL     1     -10.663  14.183  65.396  0.00  0.00    +0.079 A 
ATOM      5  C   UNL     1     -11.463  13.116  65.694  0.00  0.00    +0.332 A 
ATOM      6  C   UNL     1     -11.814  12.837  67.003  0.00  0.00    +0.303 A 
ATOM      7  O   UNL     1     -11.951  11.505  67.406  0.00  0.00    -0.277 OA
ATOM      8  C   UNL     1     -11.659  13.862  67.929  0.00  0.00    +0.241 A 
ATOM      9  O   UNL     1     -11.995  13.612  69.249  0.00  0.00    -0.283 OA
ATOM     10  C   UNL     1     -11.178  15.096  67.512  0.00  0.00    +0.046 A 
BRANCH   5  11
ATOM     11  N   UNL     1     -11.984  12.269  64.664  0.00  0.00    +0.084 N 
ATOM     12  O   UNL     1     -13.330  12.292  64.354  0.00  0.00    -0.576 OA
ATOM     13  O   UNL     1     -11.233  11.958  63.705  0.00  0.00    +0.042 OA
ENDBRANCH   5  11
ENDBRANCH   2   3
BRANCH   1  15
ATOM     14  N   UNL     1      -8.188  18.514  67.520  0.00  0.00    -0.276 N 
ATOM     15  C   UNL     1      -7.874  17.710  66.377  0.00  0.00    +0.259 C 
ATOM     16  O   UNL     1      -7.287  18.202  65.374  0.00  0.00    -0.269 OA
BRANCH  14  18
ATOM     17  C   UNL     1      -6.082  18.040  68.689  0.00  0.00    +0.023 C 
ATOM     18  C   UNL     1      -7.567  18.232  68.813  0.00  0.00    +0.094 C 
ENDBRANCH  14  18
BRANCH  14  19
ATOM     19  C   UNL     1      -8.393  19.933  67.241  0.00  0.00    +0.094 C 
ATOM     20  C   UNL     1      -9.842  20.313  67.219  0.00  0.00    +0.023 C 
ENDBRANCH  14  19
ENDBRANCH   1  15
BRANCH   1  21
ATOM     21  C   UNL     1      -7.955  15.265  66.970  0.00  0.00    +0.105 C 
ATOM     22  N   UNL     1      -7.519  14.286  67.436  0.00  0.00    -0.191 NA
ENDBRANCH   1  21
TORSDOF 6
ENDMDL
MODEL 5
REMARK VINA RESULT:      -5.6      4.338      7.308
REMARK  Name = 
REMARK  6 active torsions:
REMARK  status: ('A' for Active; 'I' for Inactive)
REMARK    1  A    between atoms: C_2  and  N_3
REMARK    2  A    between atoms: N_3  and  C_4
REMARK    3  A    between atoms: C_6  and  C_8
REMARK    4  A    between atoms: C_8  and  C_9
REMARK    5  A    between atoms: C_11  and  C_12
REMARK    6  A    between atoms: C_18  and  N_19
REMARK                            x       y       z     vdW  Elec       q    Type
REMARK                         _______ _______ _______ _____ _____    ______ ____
ROOT
ATOM      1  C   UNL     1     -10.532  11.248  68.946  0.00  0.00    +0.122 C 
ATOM      2  C   UNL     1     -11.504  11.966  68.381  0.00  0.00    +0.015 C 
ENDROOT
BRANCH   2   3
ATOM      3  C   UNL     1     -11.314  12.797  67.216  0.00  0.00    +0.010 A 
ATOM      4  C   UNL     1     -11.949  12.405  66.045  0.00  0.00    +0.079 A 
ATOM      5  C   UNL     1     -11.821  13.175  64.923  0.00  0.00    +0.332 A 
ATOM      6  C   UNL     1     -11.558  14.530  65.018  0.00  0.00    +0.303 A 
ATOM      7  O   UNL     1     -12.120  15.403  64.082  0.00  0.00    -0.277 OA
ATOM      8  C   UNL     1     -11.058  14.991  66.231  0.00  0.00    +0.241 A 
ATOM      9  O   UNL     1     -10.793  16.344  66.360  0.00  0.00    -0.283 OA
ATOM     10  C   UNL     1     -10.840  14.094  67.269  0.00  0.00    +0.046 A 
BRANCH   5  11
ATOM     11  N   UNL     1     -11.927  12.602  63.615  0.00  0.00    +0.084 N 
ATOM     12  O   UNL     1     -10.816  12.062  62.996  0.00  0.00    -0.576 OA
ATOM     13  O   UNL     1     -13.019  12.081  63.275  0.00  0.00    +0.042 OA
ENDBRANCH   5  11
ENDBRANCH   2   3
BRANCH   1  15
ATOM     14  N   UNL     1     -11.570  10.060  70.936  0.00  0.00    -0.276 N 
ATOM     15  C   UNL     1     -10.991  10.031  69.627  0.00  0.00    +0.259 C 
ATOM     16  O   UNL     1     -10.629   8.944  69.097  0.00  0.00    -0.269 OA
BRANCH  14  18
ATOM     17  C   UNL     1     -13.034  11.842  71.778  0.00  0.00    +0.023 C 
ATOM     18  C   UNL     1     -12.954  10.492  71.122  0.00  0.00    +0.094 C 
ENDBRANCH  14  18
BRANCH  14  19
ATOM     19  C   UNL     1     -11.149   8.978  71.823  0.00  0.00    +0.094 C 
ATOM     20  C   UNL     1     -12.298   8.139  72.296  0.00  0.00    +0.023 C 
ENDBRANCH  14  19
ENDBRANCH   1  15
BRANCH   1  21
ATOM     21  C   UNL     1      -9.266  11.237  68.247  0.00  0.00    +0.105 C 
ATOM     22  N   UNL     1      -8.216  11.054  67.770  0.00  0.00    -0.191 NA
ENDBRANCH   1  21
TORSDOF 6
ENDMDL
MODEL 6
REMARK VINA RESULT:      -5.5      1.505      2.098
REMARK  Name = 
REMARK  6 active torsions:
REMARK  status: ('A' for Active; 'I' for Inactive)
REMARK    1  A    between atoms: C_2  and  N_3
REMARK    2  A    between atoms: N_3  and  C_4
REMARK    3  A    between atoms: C_6  and  C_8
REMARK    4  A    between atoms: C_8  and  C_9
REMARK    5  A    between atoms: C_11  and  C_12
REMARK    6  A    between atoms: C_18  and  N_19
REMARK                            x       y       z     vdW  Elec       q    Type
REMARK                         _______ _______ _______ _____ _____    ______ ____
ROOT
ATOM      1  C   UNL     1      -8.903  17.378  66.975  0.00  0.00    +0.122 C 
ATOM      2  C   UNL     1      -8.632  16.330  66.196  0.00  0.00    +0.015 C 
ENDROOT
BRANCH   2   3
ATOM      3  C   UNL     1      -9.382  15.097  66.219  0.00  0.00    +0.010 A 
ATOM      4  C   UNL     1     -10.350  14.924  65.239  0.00  0.00    +0.079 A 
ATOM      5  C   UNL     1     -11.068  13.761  65.204  0.00  0.00    +0.332 A 
ATOM      6  C   UNL     1     -10.546  12.589  65.721  0.00  0.00    +0.303 A 
ATOM      7  O   UNL     1     -10.846  11.373  65.099  0.00  0.00    -0.277 OA
ATOM      8  C   UNL     1      -9.473  12.709  66.596  0.00  0.00    +0.241 A 
ATOM      9  O   UNL     1      -8.923  11.554  67.126  0.00  0.00    -0.283 OA
ATOM     10  C   UNL     1      -8.986  13.971  66.915  0.00  0.00    +0.046 A 
BRANCH   5  11
ATOM     11  N   UNL     1     -12.390  13.723  64.656  0.00  0.00    +0.084 N 
ATOM     12  O   UNL     1     -13.481  14.042  65.441  0.00  0.00    -0.576 OA
ATOM     13  O   UNL     1     -12.540  13.963  63.431  0.00  0.00    +0.042 OA
ENDBRANCH   5  11
ENDBRANCH   2   3
BRANCH   1  15
ATOM     14  N   UNL     1      -7.178  19.136  66.354  0.00  0.00    -0.276 N 
ATOM     15  C   UNL     1      -8.534  18.676  66.400  0.00  0.00    +0.259 C 
ATOM     16  O   UNL     1      -9.496  19.460  66.169  0.00  0.00    -0.269 OA
BRANCH  14  18
ATOM     17  C   UNL     1      -5.189  17.749  65.970  0.00  0.00    +0.023 C 
ATOM     18  C   UNL     1      -6.254  18.610  65.351  0.00  0.00    +0.094 C 
ENDBRANCH  14  18
BRANCH  14  19
ATOM     19  C   UNL     1      -6.993  20.551  66.666  0.00  0.00    +0.094 C 
ATOM     20  C   UNL     1      -6.270  20.765  67.962  0.00  0.00    +0.023 C 
ENDBRANCH  14  19
ENDBRANCH   1  15
BRANCH   1  21
ATOM     21  C   UNL     1     -10.097  17.272  67.784  0.00  0.00    +0.105 C 
ATOM     22  N   UNL     1     -10.949  17.084  68.561  0.00  0.00    -0.191 NA
ENDBRANCH   1  21
TORSDOF 6
ENDMDL
MODEL 7
REMARK VINA RESULT:      -5.5      2.388      6.692
REMARK  Name = 
REMARK  6 active torsions:
REMARK  status: ('A' for Active; 'I' for Inactive)
REMARK    1  A    between atoms: C_2  and  N_3
REMARK    2  A    between atoms: N_3  and  C_4
REMARK    3  A    between atoms: C_6  and  C_8
REMARK    4  A    between atoms: C_8  and  C_9
REMARK    5  A    between atoms: C_11  and  C_12
REMARK    6  A    between atoms: C_18  and  N_19
REMARK                            x       y       z     vdW  Elec       q    Type
REMARK                         _______ _______ _______ _____ _____    ______ ____
ROOT
ATOM      1  C   UNL     1     -11.735  14.332  65.914  0.00  0.00    +0.122 C 
ATOM      2  C   UNL     1     -10.839  15.109  65.303  0.00  0.00    +0.015 C 
ENDROOT
BRANCH   2   3
ATOM      3  C   UNL     1     -10.061  16.120  65.978  0.00  0.00    +0.010 A 
ATOM      4  C   UNL     1      -8.725  15.834  66.225  0.00  0.00    +0.079 A 
ATOM      5  C   UNL     1      -7.941  16.771  66.838  0.00  0.00    +0.332 A 
ATOM      6  C   UNL     1      -8.241  18.119  66.743  0.00  0.00    +0.303 A 
ATOM      7  O   UNL     1      -7.199  19.049  66.682  0.00  0.00    -0.277 OA
ATOM      8  C   UNL     1      -9.533  18.451  66.352  0.00  0.00    +0.241 A 
ATOM      9  O   UNL     1      -9.863  19.791  66.241  0.00  0.00    -0.283 OA
ATOM     10  C   UNL     1     -10.450  17.441  66.087  0.00  0.00    +0.046 A 
BRANCH   5  11
ATOM     11  N   UNL     1      -6.802  16.390  67.617  0.00  0.00    +0.084 N 
ATOM     12  O   UNL     1      -6.903  16.269  68.990  0.00  0.00    -0.576 OA
ATOM     13  O   UNL     1      -5.934  15.649  67.090  0.00  0.00    +0.042 OA
ENDBRANCH   5  11
ENDBRANCH   2   3
BRANCH   1  15
ATOM     14  N   UNL     1     -10.811  12.207  64.874  0.00  0.00    -0.276 N 
ATOM     15  C   UNL     1     -11.917  13.012  65.299  0.00  0.00    +0.259 C 
ATOM     16  O   UNL     1     -13.098  12.734  64.950  0.00  0.00    -0.269 OA
BRANCH  14  18
ATOM     17  C   UNL     1     -10.883  10.851  66.919  0.00  0.00    +0.023 C 
ATOM     18  C   UNL     1     -10.019  11.465  65.853  0.00  0.00    +0.094 C 
ENDBRANCH  14  18
BRANCH  14  19
ATOM     19  C   UNL     1     -11.000  11.519  63.599  0.00  0.00    +0.094 C 
ATOM     20  C   UNL     1      -9.852  10.617  63.256  0.00  0.00    +0.023 C 
ENDBRANCH  14  19
ENDBRANCH   1  15
BRANCH   1  21
ATOM     21  C   UNL     1     -11.809  14.463  67.352  0.00  0.00    +0.105 C 
ATOM     22  N   UNL     1     -11.921  14.379  68.512  0.00  0.00    -0.191 NA
ENDBRANCH   1  21
TORSDOF 6
ENDMDL
MODEL 8
REMARK VINA RESULT:      -5.3      2.947      6.878
REMARK  Name = 
REMARK  6 active torsions:
REMARK  status: ('A' for Active; 'I' for Inactive)
REMARK    1  A    between atoms: C_2  and  N_3
REMARK    2  A    between atoms: N_3  and  C_4
REMARK    3  A    between atoms: C_6  and  C_8
REMARK    4  A    between atoms: C_8  and  C_9
REMARK    5  A    between atoms: C_11  and  C_12
REMARK    6  A    between atoms: C_18  and  N_19
REMARK                            x       y       z     vdW  Elec       q    Type
REMARK                         _______ _______ _______ _____ _____    ______ ____
ROOT
ATOM      1  C   UNL     1     -10.670  12.490  65.324  0.00  0.00    +0.122 C 
ATOM      2  C   UNL     1      -9.895  13.305  66.040  0.00  0.00    +0.015 C 
ENDROOT
BRANCH   2   3
ATOM      3  C   UNL     1     -10.340  14.570  66.575  0.00  0.00    +0.010 A 
ATOM      4  C   UNL     1     -10.381  14.697  67.957  0.00  0.00    +0.079 A 
ATOM      5  C   UNL     1     -10.770  15.884  68.511  0.00  0.00    +0.332 A 
ATOM      6  C   UNL     1     -10.613  17.074  67.821  0.00  0.00    +0.303 A 
ATOM      7  O   UNL     1     -10.298  18.237  68.528  0.00  0.00    -0.277 OA
ATOM      8  C   UNL     1     -10.420  16.985  66.448  0.00  0.00    +0.241 A 
ATOM      9  O   UNL     1     -10.252  18.157  65.730  0.00  0.00    -0.283 OA
ATOM     10  C   UNL     1     -10.401  15.737  65.837  0.00  0.00    +0.046 A 
BRANCH   5  11
ATOM     11  N   UNL     1     -11.376  15.934  69.807  0.00  0.00    +0.084 N 
ATOM     12  O   UNL     1     -12.751  15.931  69.938  0.00  0.00    -0.576 OA
ATOM     13  O   UNL     1     -10.758  15.429  70.779  0.00  0.00    +0.042 OA
ENDBRANCH   5  11
ENDBRANCH   2   3
BRANCH   1  15
ATOM     14  N   UNL     1      -9.972  10.463  66.687  0.00  0.00    -0.276 N 
ATOM     15  C   UNL     1     -10.325  11.067  65.437  0.00  0.00    +0.259 C 
ATOM     16  O   UNL     1     -10.126  10.469  64.343  0.00  0.00    -0.269 OA
BRANCH  14  18
ATOM     17  C   UNL     1     -11.017  11.081  68.820  0.00  0.00    +0.023 C 
ATOM     18  C   UNL     1     -11.008  10.125  67.661  0.00  0.00    +0.094 C 
ENDBRANCH  14  18
BRANCH  14  19
ATOM     19  C   UNL     1      -8.865   9.512  66.624  0.00  0.00    +0.094 C 
ATOM     20  C   UNL     1      -7.529  10.171  66.792  0.00  0.00    +0.023 C 
ENDBRANCH  14  19
ENDBRANCH   1  15
BRANCH   1  21
ATOM     21  C   UNL     1     -12.059  12.878  65.207  0.00  0.00    +0.105 C 
ATOM     22  N   UNL     1     -13.111  13.349  65.016  0.00  0.00    -0.191 NA
ENDBRANCH   1  21
TORSDOF 6
ENDMDL
MODEL 9
REMARK VINA RESULT:      -5.3      1.992      2.704
REMARK  Name = 
REMARK  6 active torsions:
REMARK  status: ('A' for Active; 'I' for Inactive)
REMARK    1  A    between atoms: C_2  and  N_3
REMARK    2  A    between atoms: N_3  and  C_4
REMARK    3  A    between atoms: C_6  and  C_8
REMARK    4  A    between atoms: C_8  and  C_9
REMARK    5  A    between atoms: C_11  and  C_12
REMARK    6  A    between atoms: C_18  and  N_19
REMARK                            x       y       z     vdW  Elec       q    Type
REMARK                         _______ _______ _______ _____ _____    ______ ____
ROOT
ATOM      1  C   UNL     1      -8.624  18.088  66.619  0.00  0.00    +0.122 C 
ATOM      2  C   UNL     1      -8.619  16.764  66.778  0.00  0.00    +0.015 C 
ENDROOT
BRANCH   2   3
ATOM      3  C   UNL     1      -9.803  15.942  66.699  0.00  0.00    +0.010 A 
ATOM      4  C   UNL     1      -9.939  15.130  65.580  0.00  0.00    +0.079 A 
ATOM      5  C   UNL     1     -11.030  14.314  65.473  0.00  0.00    +0.332 A 
ATOM      6  C   UNL     1     -11.697  13.868  66.601  0.00  0.00    +0.303 A 
ATOM      7  O   UNL     1     -12.250  12.585  66.606  0.00  0.00    -0.277 OA
ATOM      8  C   UNL     1     -11.472  14.566  67.782  0.00  0.00    +0.241 A 
ATOM      9  O   UNL     1     -12.119  14.141  68.930  0.00  0.00    -0.283 OA
ATOM     10  C   UNL     1     -10.615  15.660  67.780  0.00  0.00    +0.046 A 
BRANCH   5  11
ATOM     11  N   UNL     1     -11.534  13.915  64.194  0.00  0.00    +0.084 N 
ATOM     12  O   UNL     1     -11.177  12.696  63.651  0.00  0.00    -0.576 OA
ATOM     13  O   UNL     1     -12.663  14.336  63.834  0.00  0.00    +0.042 OA
ENDBRANCH   5  11
ENDBRANCH   2   3
BRANCH   1  15
ATOM     14  N   UNL     1      -7.120  20.050  66.037  0.00  0.00    -0.276 N 
ATOM     15  C   UNL     1      -7.375  18.642  66.083  0.00  0.00    +0.259 C 
ATOM     16  O   UNL     1      -6.648  17.826  65.451  0.00  0.00    -0.269 OA
BRANCH  14  18
ATOM     17  C   UNL     1      -6.188  19.842  68.299  0.00  0.00    +0.023 C 
ATOM     18  C   UNL     1      -6.731  20.769  67.249  0.00  0.00    +0.094 C 
ENDBRANCH  14  18
BRANCH  14  19
ATOM     19  C   UNL     1      -6.470  20.522  64.817  0.00  0.00    +0.094 C 
ATOM     20  C   UNL     1      -5.022  20.851  65.025  0.00  0.00    +0.023 C 
ENDBRANCH  14  19
ENDBRANCH   1  15
BRANCH   1  21
ATOM     21  C   UNL     1      -9.887  18.673  66.226  0.00  0.00    +0.105 C 
ATOM     22  N   UNL     1     -10.812  19.201  65.744  0.00  0.00    -0.191 NA
ENDBRANCH   1  21
TORSDOF 6
ENDMDL
