MODEL 1
REMARK VINA RESULT:      -7.1      0.000      0.000
REMARK  Name = 
REMARK  4 active torsions:
REMARK  status: ('A' for Active; 'I' for Inactive)
REMARK    1  A    between atoms: C_3  and  C_4
REMARK    2  A    between atoms: C_4  and  C_5
REMARK    3  A    between atoms: C_16  and  C_17
REMARK    4  A    between atoms: C_20  and  S_21
REMARK                            x       y       z     vdW  Elec       q    Type
REMARK                         _______ _______ _______ _____ _____    ______ ____
ROOT
ATOM      1  C   UNL     1     -10.938   9.602  68.119  0.00  0.00    +0.031 C 
ATOM      2  C   UNL     1     -11.475  10.671  68.881  0.00  0.00    -0.025 C 
ATOM      3  C   UNL     1     -11.606  12.056  68.415  0.00  0.00    -0.004 C 
ATOM      4  C   UNL     1     -11.074  12.591  67.337  0.00  0.00    -0.000 C 
ATOM      5  C   UNL     1     -12.046  12.823  69.586  0.00  0.00    -0.000 A 
ATOM      6  C   UNL     1     -12.291  11.904  70.580  0.00  0.00    -0.002 A 
ATOM      7  C   UNL     1     -12.900  12.287  71.747  0.00  0.00    +0.029 A 
ATOM      8  C   UNL     1     -13.372  13.588  71.849  0.00  0.00    +0.140 A 
ATOM      9  C   UNL     1     -12.884  14.523  70.973  0.00  0.00    +0.030 A 
ATOM     10  F   UNL     1     -14.338  13.876  72.766  0.00  0.00    -0.204 F 
ATOM     11  C   UNL     1     -12.300  14.178  69.760  0.00  0.00    +0.002 A 
ATOM     12  C   UNL     1     -11.687  10.640  70.196  0.00  0.00    -0.015 C 
ENDROOT
BRANCH   4  13
ATOM     13  C   UNL     1     -10.673  14.002  67.253  0.00  0.00    +0.000 A 
ATOM     14  C   UNL     1     -11.197  14.731  66.192  0.00  0.00    +0.001 A 
ATOM     15  C   UNL     1     -10.562  15.895  65.774  0.00  0.00    +0.009 A 
ATOM     16  C   UNL     1      -9.437  16.379  66.432  0.00  0.00    +0.056 A 
ATOM     17  C   UNL     1      -8.922  15.563  67.409  0.00  0.00    +0.009 A 
ATOM     18  C   UNL     1      -9.333  14.253  67.528  0.00  0.00    +0.001 A 
BRANCH  16  19
ATOM     19  S   UNL     1      -9.200  18.174  66.497  0.00  0.00    +0.066 S 
ATOM     20  O   UNL     1     -10.483  18.645  65.750  0.00  0.00    -0.251 OA
ATOM     21  C   UNL     1      -9.700  18.542  68.230  0.00  0.00    +0.111 C 
ENDBRANCH  16  19
ENDBRANCH   4  13
BRANCH  12  22
ATOM     22  C   UNL     1     -11.225   9.556  71.116  0.00  0.00    +0.140 C 
BRANCH  22  23
ATOM     23  C   UNL     1     -12.394   8.642  71.314  0.00  0.00    +0.369 C 
ATOM     24  O   UNL     1     -13.112   8.842  72.498  0.00  0.00    -0.245 OA
ATOM     25  O   UNL     1     -12.173   7.426  71.026  0.00  0.00    -0.245 OA
ENDBRANCH  22  23
ENDBRANCH  12  22
TORSDOF 4
ENDMDL
MODEL 2
REMARK VINA RESULT:      -6.9      1.385      1.703
REMARK  Name = 
REMARK  4 active torsions:
REMARK  status: ('A' for Active; 'I' for Inactive)
REMARK    1  A    between atoms: C_3  and  C_4
REMARK    2  A    between atoms: C_4  and  C_5
REMARK    3  A    between atoms: C_16  and  C_17
REMARK    4  A    between atoms: C_20  and  S_21
REMARK                            x       y       z     vdW  Elec       q    Type
REMARK                         _______ _______ _______ _____ _____    ______ ____
ROOT
ATOM      1  C   UNL     1     -10.563   9.278  66.972  0.00  0.00    +0.031 C 
ATOM      2  C   UNL     1     -11.079  10.208  67.910  0.00  0.00    -0.025 C 
ATOM      3  C   UNL     1     -11.274  11.641  67.658  0.00  0.00    -0.004 C 
ATOM      4  C   UNL     1     -10.824  12.343  66.640  0.00  0.00    -0.000 C 
ATOM      5  C   UNL     1     -11.660  12.217  68.951  0.00  0.00    -0.000 A 
ATOM      6  C   UNL     1     -11.818  11.157  69.815  0.00  0.00    -0.002 A 
ATOM      7  C   UNL     1     -12.362  11.347  71.058  0.00  0.00    +0.029 A 
ATOM      8  C   UNL     1     -12.861  12.603  71.375  0.00  0.00    +0.140 A 
ATOM      9  C   UNL     1     -12.453  13.670  70.617  0.00  0.00    +0.030 A 
ATOM     10  F   UNL     1     -13.775  12.723  72.378  0.00  0.00    -0.204 F 
ATOM     11  C   UNL     1     -11.937  13.523  69.335  0.00  0.00    +0.002 A 
ATOM     12  C   UNL     1     -11.207   9.982  69.217  0.00  0.00    -0.015 C 
ENDROOT
BRANCH   4  13
ATOM     13  C   UNL     1     -10.467  13.764  66.738  0.00  0.00    +0.000 A 
ATOM     14  C   UNL     1     -11.121  14.627  65.868  0.00  0.00    +0.001 A 
ATOM     15  C   UNL     1     -10.562  15.866  65.574  0.00  0.00    +0.009 A 
ATOM     16  C   UNL     1      -9.382  16.286  66.177  0.00  0.00    +0.056 A 
ATOM     17  C   UNL     1      -8.743  15.349  66.952  0.00  0.00    +0.009 A 
ATOM     18  C   UNL     1      -9.111  14.021  66.905  0.00  0.00    +0.001 A 
BRANCH  16  19
ATOM     19  S   UNL     1      -9.179  18.057  66.500  0.00  0.00    +0.066 S 
ATOM     20  O   UNL     1     -10.425  18.615  65.750  0.00  0.00    -0.251 OA
ATOM     21  C   UNL     1      -9.783  18.180  68.235  0.00  0.00    +0.111 C 
ENDBRANCH  16  19
ENDBRANCH   4  13
BRANCH  12  22
ATOM     22  C   UNL     1     -10.660   8.794  69.942  0.00  0.00    +0.140 C 
BRANCH  22  23
ATOM     23  C   UNL     1      -9.331   9.208  70.492  0.00  0.00    +0.369 C 
ATOM     24  O   UNL     1      -8.221   8.749  69.776  0.00  0.00    -0.245 OA
ATOM     25  O   UNL     1      -9.225   9.115  71.753  0.00  0.00    -0.245 OA
ENDBRANCH  22  23
ENDBRANCH  12  22
TORSDOF 4
ENDMDL
MODEL 3
REMARK VINA RESULT:      -6.8      4.142      8.045
REMARK  Name = 
REMARK  4 active torsions:
REMARK  status: ('A' for Active; 'I' for Inactive)
REMARK    1  A    between atoms: C_3  and  C_4
REMARK    2  A    between atoms: C_4  and  C_5
REMARK    3  A    between atoms: C_16  and  C_17
REMARK    4  A    between atoms: C_20  and  S_21
REMARK                            x       y       z     vdW  Elec       q    Type
REMARK                         _______ _______ _______ _____ _____    ______ ____
ROOT
ATOM      1  C   UNL     1     -13.353  12.876  72.339  0.00  0.00    +0.031 C 
ATOM      2  C   UNL     1     -12.747  12.408  71.146  0.00  0.00    -0.025 C 
ATOM      3  C   UNL     1     -12.583  10.996  70.781  0.00  0.00    -0.004 C 
ATOM      4  C   UNL     1     -12.758   9.944  71.553  0.00  0.00    -0.000 C 
ATOM      5  C   UNL     1     -11.764  10.999  69.563  0.00  0.00    -0.000 A 
ATOM      6  C   UNL     1     -11.621  12.318  69.197  0.00  0.00    -0.002 A 
ATOM      7  C   UNL     1     -11.065  12.649  67.989  0.00  0.00    +0.029 A 
ATOM      8  C   UNL     1     -10.767  11.626  67.098  0.00  0.00    +0.140 A 
ATOM      9  C   UNL     1     -10.673  10.349  67.588  0.00  0.00    +0.030 A 
ATOM     10  F   UNL     1     -10.639  11.915  65.772  0.00  0.00    -0.204 F 
ATOM     11  C   UNL     1     -11.260   9.963  68.787  0.00  0.00    +0.002 A 
ATOM     12  C   UNL     1     -12.011  13.151  70.321  0.00  0.00    -0.015 C 
ENDROOT
BRANCH   4  13
ATOM     13  C   UNL     1     -11.996   8.698  71.398  0.00  0.00    +0.000 A 
ATOM     14  C   UNL     1     -12.731   7.519  71.416  0.00  0.00    +0.001 A 
ATOM     15  C   UNL     1     -12.101   6.317  71.717  0.00  0.00    +0.009 A 
ATOM     16  C   UNL     1     -10.731   6.259  71.952  0.00  0.00    +0.056 A 
ATOM     17  C   UNL     1     -10.086   7.471  72.011  0.00  0.00    +0.009 A 
ATOM     18  C   UNL     1     -10.797   8.648  72.101  0.00  0.00    +0.001 A 
BRANCH  16  19
ATOM     19  S   UNL     1      -9.849   4.757  71.457  0.00  0.00    +0.066 S 
ATOM     20  O   UNL     1     -10.266   4.678  69.958  0.00  0.00    -0.251 OA
ATOM     21  C   UNL     1      -8.132   5.392  71.266  0.00  0.00    +0.111 C 
ENDBRANCH  16  19
ENDBRANCH   4  13
BRANCH  12  22
ATOM     22  C   UNL     1     -11.543  14.543  70.605  0.00  0.00    +0.140 C 
BRANCH  22  23
ATOM     23  C   UNL     1     -12.543  15.463  69.975  0.00  0.00    +0.369 C 
ATOM     24  O   UNL     1     -12.026  16.333  69.011  0.00  0.00    -0.245 OA
ATOM     25  O   UNL     1     -13.361  15.994  70.787  0.00  0.00    -0.245 OA
ENDBRANCH  22  23
ENDBRANCH  12  22
TORSDOF 4
ENDMDL
MODEL 4
REMARK VINA RESULT:      -6.8      1.317      1.745
REMARK  Name = 
REMARK  4 active torsions:
REMARK  status: ('A' for Active; 'I' for Inactive)
REMARK    1  A    between atoms: C_3  and  C_4
REMARK    2  A    between atoms: C_4  and  C_5
REMARK    3  A    between atoms: C_16  and  C_17
REMARK    4  A    between atoms: C_20  and  S_21
REMARK                            x       y       z     vdW  Elec       q    Type
REMARK                         _______ _______ _______ _____ _____    ______ ____
ROOT
ATOM      1  C   UNL     1     -10.275   8.509  66.848  0.00  0.00    +0.031 C 
ATOM      2  C   UNL     1     -10.824   9.400  67.805  0.00  0.00    -0.025 C 
ATOM      3  C   UNL     1     -11.099  10.823  67.574  0.00  0.00    -0.004 C 
ATOM      4  C   UNL     1     -10.703  11.559  66.557  0.00  0.00    -0.000 C 
ATOM      5  C   UNL     1     -11.493  11.363  68.880  0.00  0.00    -0.000 A 
ATOM      6  C   UNL     1     -11.581  10.287  69.733  0.00  0.00    -0.002 A 
ATOM      7  C   UNL     1     -12.115  10.434  70.987  0.00  0.00    +0.029 A 
ATOM      8  C   UNL     1     -12.673  11.659  71.326  0.00  0.00    +0.140 A 
ATOM      9  C   UNL     1     -12.335  12.754  70.574  0.00  0.00    +0.030 A 
ATOM     10  F   UNL     1     -13.576  11.719  72.345  0.00  0.00    -0.204 F 
ATOM     11  C   UNL     1     -11.833  12.649  69.283  0.00  0.00    +0.002 A 
ATOM     12  C   UNL     1     -10.919   9.153  69.111  0.00  0.00    -0.015 C 
ENDROOT
BRANCH   4  13
ATOM     13  C   UNL     1     -10.420  12.995  66.667  0.00  0.00    +0.000 A 
ATOM     14  C   UNL     1     -11.132  13.833  65.816  0.00  0.00    +0.001 A 
ATOM     15  C   UNL     1     -10.644  15.102  65.528  0.00  0.00    +0.009 A 
ATOM     16  C   UNL     1      -9.478  15.578  66.119  0.00  0.00    +0.056 A 
ATOM     17  C   UNL     1      -8.779  14.667  66.873  0.00  0.00    +0.009 A 
ATOM     18  C   UNL     1      -9.077  13.323  66.816  0.00  0.00    +0.001 A 
BRANCH  16  19
ATOM     19  S   UNL     1      -9.364  17.353  66.459  0.00  0.00    +0.066 S 
ATOM     20  O   UNL     1     -10.472  17.886  65.502  0.00  0.00    -0.251 OA
ATOM     21  C   UNL     1     -10.258  17.473  68.063  0.00  0.00    +0.111 C 
ENDBRANCH  16  19
ENDBRANCH   4  13
BRANCH  12  22
ATOM     22  C   UNL     1     -10.298   7.988  69.813  0.00  0.00    +0.140 C 
BRANCH  22  23
ATOM     23  C   UNL     1     -11.352   6.927  69.886  0.00  0.00    +0.369 C 
ATOM     24  O   UNL     1     -12.072   6.884  71.084  0.00  0.00    -0.245 OA
ATOM     25  O   UNL     1     -10.998   5.794  69.439  0.00  0.00    -0.245 OA
ENDBRANCH  22  23
ENDBRANCH  12  22
TORSDOF 4
ENDMDL
MODEL 5
REMARK VINA RESULT:      -6.7      3.502      7.939
REMARK  Name = 
REMARK  4 active torsions:
REMARK  status: ('A' for Active; 'I' for Inactive)
REMARK    1  A    between atoms: C_3  and  C_4
REMARK    2  A    between atoms: C_4  and  C_5
REMARK    3  A    between atoms: C_16  and  C_17
REMARK    4  A    between atoms: C_20  and  S_21
REMARK                            x       y       z     vdW  Elec       q    Type
REMARK                         _______ _______ _______ _____ _____    ______ ____
ROOT
ATOM      1  C   UNL     1     -10.837  16.177  69.332  0.00  0.00    +0.031 C 
ATOM      2  C   UNL     1     -11.091  15.326  68.226  0.00  0.00    -0.025 C 
ATOM      3  C   UNL     1     -11.573  13.943  68.318  0.00  0.00    -0.004 C 
ATOM      4  C   UNL     1     -11.645  13.191  69.396  0.00  0.00    -0.000 C 
ATOM      5  C   UNL     1     -11.523  13.419  66.949  0.00  0.00    -0.000 A 
ATOM      6  C   UNL     1     -11.191  14.482  66.140  0.00  0.00    -0.002 A 
ATOM      7  C   UNL     1     -11.249  14.364  64.776  0.00  0.00    +0.029 A 
ATOM      8  C   UNL     1     -11.769  13.195  64.236  0.00  0.00    +0.140 A 
ATOM      9  C   UNL     1     -11.835  12.086  65.041  0.00  0.00    +0.030 A 
ATOM     10  F   UNL     1     -12.246  13.205  62.961  0.00  0.00    -0.204 F 
ATOM     11  C   UNL     1     -11.822  12.166  66.428  0.00  0.00    +0.002 A 
ATOM     12  C   UNL     1     -10.685  15.556  66.978  0.00  0.00    -0.015 C 
ENDROOT
BRANCH   4  13
ATOM     13  C   UNL     1     -11.486  11.732  69.370  0.00  0.00    +0.000 A 
ATOM     14  C   UNL     1     -12.287  11.008  70.246  0.00  0.00    +0.001 A 
ATOM     15  C   UNL     1     -11.918   9.719  70.613  0.00  0.00    +0.009 A 
ATOM     16  C   UNL     1     -10.787   9.112  70.079  0.00  0.00    +0.056 A 
ATOM     17  C   UNL     1      -9.995   9.915  69.295  0.00  0.00    +0.009 A 
ATOM     18  C   UNL     1     -10.174  11.281  69.273  0.00  0.00    +0.001 A 
BRANCH  16  19
ATOM     19  S   UNL     1     -10.822   7.317  69.837  0.00  0.00    +0.066 S 
ATOM     20  O   UNL     1      -9.554   6.909  70.645  0.00  0.00    -0.251 OA
ATOM     21  C   UNL     1     -12.126   6.816  71.036  0.00  0.00    +0.111 C 
ENDBRANCH  16  19
ENDBRANCH   4  13
BRANCH  12  22
ATOM     22  C   UNL     1      -9.741  16.639  66.566  0.00  0.00    +0.140 C 
BRANCH  22  23
ATOM     23  C   UNL     1     -10.586  17.793  66.125  0.00  0.00    +0.369 C 
ATOM     24  O   UNL     1     -10.991  17.757  64.787  0.00  0.00    -0.245 OA
ATOM     25  O   UNL     1     -10.188  18.929  66.529  0.00  0.00    -0.245 OA
ENDBRANCH  22  23
ENDBRANCH  12  22
TORSDOF 4
ENDMDL
MODEL 6
REMARK VINA RESULT:      -6.6      2.440      3.414
REMARK  Name = 
REMARK  4 active torsions:
REMARK  status: ('A' for Active; 'I' for Inactive)
REMARK    1  A    between atoms: C_3  and  C_4
REMARK    2  A    between atoms: C_4  and  C_5
REMARK    3  A    between atoms: C_16  and  C_17
REMARK    4  A    between atoms: C_20  and  S_21
REMARK                            x       y       z     vdW  Elec       q    Type
REMARK                         _______ _______ _______ _____ _____    ______ ____
ROOT
ATOM      1  C   UNL     1     -11.580  12.723  65.506  0.00  0.00    +0.031 C 
ATOM      2  C   UNL     1     -11.655  13.392  66.753  0.00  0.00    -0.025 C 
ATOM      3  C   UNL     1     -11.366  14.815  66.967  0.00  0.00    -0.004 C 
ATOM      4  C   UNL     1     -10.795  15.650  66.125  0.00  0.00    -0.000 C 
ATOM      5  C   UNL     1     -11.409  15.010  68.420  0.00  0.00    -0.000 A 
ATOM      6  C   UNL     1     -11.846  13.820  68.957  0.00  0.00    -0.002 A 
ATOM      7  C   UNL     1     -12.176  13.735  70.285  0.00  0.00    +0.029 A 
ATOM      8  C   UNL     1     -12.178  14.899  71.040  0.00  0.00    +0.140 A 
ATOM      9  C   UNL     1     -11.497  15.986  70.555  0.00  0.00    +0.030 A 
ATOM     10  F   UNL     1     -12.899  14.942  72.195  0.00  0.00    -0.204 F 
ATOM     11  C   UNL     1     -11.182  16.131  69.209  0.00  0.00    +0.002 A 
ATOM     12  C   UNL     1     -11.735  12.790  67.939  0.00  0.00    -0.015 C 
ENDROOT
BRANCH   4  13
ATOM     13  C   UNL     1      -9.961  16.780  66.554  0.00  0.00    +0.000 A 
ATOM     14  C   UNL     1     -10.452  18.051  66.279  0.00  0.00    +0.001 A 
ATOM     15  C   UNL     1      -9.581  19.133  66.236  0.00  0.00    +0.009 A 
ATOM     16  C   UNL     1      -8.228  18.982  66.515  0.00  0.00    +0.056 A 
ATOM     17  C   UNL     1      -7.796  17.690  66.687  0.00  0.00    +0.009 A 
ATOM     18  C   UNL     1      -8.596  16.623  66.336  0.00  0.00    +0.001 A 
BRANCH  16  19
ATOM     19  S   UNL     1      -7.366  20.365  67.308  0.00  0.00    +0.066 S 
ATOM     20  O   UNL     1      -6.640  19.609  68.460  0.00  0.00    -0.251 OA
ATOM     21  C   UNL     1      -5.948  20.613  66.161  0.00  0.00    +0.111 C 
ENDBRANCH  16  19
ENDBRANCH   4  13
BRANCH  12  22
ATOM     22  C   UNL     1     -11.569  11.322  68.170  0.00  0.00    +0.140 C 
BRANCH  22  23
ATOM     23  C   UNL     1     -10.159  11.122  68.632  0.00  0.00    +0.369 C 
ATOM     24  O   UNL     1      -9.219  10.944  67.613  0.00  0.00    -0.245 OA
ATOM     25  O   UNL     1     -10.030  10.333  69.618  0.00  0.00    -0.245 OA
ENDBRANCH  22  23
ENDBRANCH  12  22
TORSDOF 4
ENDMDL
MODEL 7
REMARK VINA RESULT:      -6.5      4.809      7.901
REMARK  Name = 
REMARK  4 active torsions:
REMARK  status: ('A' for Active; 'I' for Inactive)
REMARK    1  A    between atoms: C_3  and  C_4
REMARK    2  A    between atoms: C_4  and  C_5
REMARK    3  A    between atoms: C_16  and  C_17
REMARK    4  A    between atoms: C_20  and  S_21
REMARK                            x       y       z     vdW  Elec       q    Type
REMARK                         _______ _______ _______ _____ _____    ______ ____
ROOT
ATOM      1  C   UNL     1      -6.048  15.824  69.862  0.00  0.00    +0.031 C 
ATOM      2  C   UNL     1      -6.987  16.697  69.256  0.00  0.00    -0.025 C 
ATOM      3  C   UNL     1      -8.326  16.309  68.797  0.00  0.00    -0.004 C 
ATOM      4  C   UNL     1      -8.804  15.090  68.664  0.00  0.00    -0.000 C 
ATOM      5  C   UNL     1      -8.855  17.484  68.096  0.00  0.00    -0.000 A 
ATOM      6  C   UNL     1      -7.941  18.495  68.290  0.00  0.00    -0.002 A 
ATOM      7  C   UNL     1      -8.235  19.781  67.919  0.00  0.00    +0.029 A 
ATOM      8  C   UNL     1      -9.516  20.058  67.460  0.00  0.00    +0.140 A 
ATOM      9  C   UNL     1     -10.291  19.010  67.036  0.00  0.00    +0.030 A 
ATOM     10  F   UNL     1      -9.975  21.340  67.504  0.00  0.00    -0.204 F 
ATOM     11  C   UNL     1     -10.053  17.698  67.425  0.00  0.00    +0.002 A 
ATOM     12  C   UNL     1      -6.704  17.908  68.776  0.00  0.00    -0.015 C 
ENDROOT
BRANCH   4  13
ATOM     13  C   UNL     1      -9.799  14.723  67.648  0.00  0.00    +0.000 A 
ATOM     14  C   UNL     1     -10.971  14.141  68.114  0.00  0.00    +0.001 A 
ATOM     15  C   UNL     1     -11.752  13.377  67.254  0.00  0.00    +0.009 A 
ATOM     16  C   UNL     1     -11.412  13.225  65.914  0.00  0.00    +0.056 A 
ATOM     17  C   UNL     1     -10.197  13.749  65.546  0.00  0.00    +0.009 A 
ATOM     18  C   UNL     1      -9.280  14.146  66.495  0.00  0.00    +0.001 A 
BRANCH  16  19
ATOM     19  S   UNL     1     -12.757  13.057  64.712  0.00  0.00    +0.066 S 
ATOM     20  O   UNL     1     -12.596  14.397  63.934  0.00  0.00    -0.251 OA
ATOM     21  C   UNL     1     -12.008  11.901  63.492  0.00  0.00    +0.111 C 
ENDBRANCH  16  19
ENDBRANCH   4  13
BRANCH  12  22
ATOM     22  C   UNL     1      -5.328  18.472  68.624  0.00  0.00    +0.140 C 
BRANCH  22  23
ATOM     23  C   UNL     1      -5.075  19.307  69.841  0.00  0.00    +0.369 C 
ATOM     24  O   UNL     1      -5.231  20.685  69.661  0.00  0.00    -0.245 OA
ATOM     25  O   UNL     1      -4.052  18.971  70.513  0.00  0.00    -0.245 OA
ENDBRANCH  22  23
ENDBRANCH  12  22
TORSDOF 4
ENDMDL
MODEL 8
REMARK VINA RESULT:      -6.4      3.903      5.707
REMARK  Name = 
REMARK  4 active torsions:
REMARK  status: ('A' for Active; 'I' for Inactive)
REMARK    1  A    between atoms: C_3  and  C_4
REMARK    2  A    between atoms: C_4  and  C_5
REMARK    3  A    between atoms: C_16  and  C_17
REMARK    4  A    between atoms: C_20  and  S_21
REMARK                            x       y       z     vdW  Elec       q    Type
REMARK                         _______ _______ _______ _____ _____    ______ ____
ROOT
ATOM      1  C   UNL     1     -13.074  12.284  71.890  0.00  0.00    +0.031 C 
ATOM      2  C   UNL     1     -12.490  13.138  70.921  0.00  0.00    -0.025 C 
ATOM      3  C   UNL     1     -11.950  12.701  69.628  0.00  0.00    -0.004 C 
ATOM      4  C   UNL     1     -11.714  11.468  69.235  0.00  0.00    -0.000 C 
ATOM      5  C   UNL     1     -11.308  13.888  69.051  0.00  0.00    -0.000 A 
ATOM      6  C   UNL     1     -11.609  14.937  69.890  0.00  0.00    -0.002 A 
ATOM      7  C   UNL     1     -11.314  16.226  69.527  0.00  0.00    +0.029 A 
ATOM      8  C   UNL     1     -10.822  16.455  68.250  0.00  0.00    +0.140 A 
ATOM      9  C   UNL     1     -10.295  15.393  67.560  0.00  0.00    +0.030 A 
ATOM     10  F   UNL     1     -10.933  17.700  67.707  0.00  0.00    -0.204 F 
ATOM     11  C   UNL     1     -10.604  14.074  67.868  0.00  0.00    +0.002 A 
ATOM     12  C   UNL     1     -12.106  14.394  71.142  0.00  0.00    -0.015 C 
ENDROOT
BRANCH   4  13
ATOM     13  C   UNL     1     -10.635  11.113  68.305  0.00  0.00    +0.000 A 
ATOM     14  C   UNL     1     -11.012  10.442  67.147  0.00  0.00    +0.001 A 
ATOM     15  C   UNL     1     -10.074   9.693  66.446  0.00  0.00    +0.009 A 
ATOM     16  C   UNL     1      -8.744   9.643  66.849  0.00  0.00    +0.056 A 
ATOM     17  C   UNL     1      -8.462  10.250  68.049  0.00  0.00    +0.009 A 
ATOM     18  C   UNL     1      -9.473  10.636  68.902  0.00  0.00    +0.001 A 
BRANCH  16  19
ATOM     19  S   UNL     1      -7.475   9.479  65.567  0.00  0.00    +0.066 S 
ATOM     20  O   UNL     1      -8.158  10.260  64.406  0.00  0.00    -0.251 OA
ATOM     21  C   UNL     1      -6.249  10.741  66.108  0.00  0.00    +0.111 C 
ENDBRANCH  16  19
ENDBRANCH   4  13
BRANCH  12  22
ATOM     22  C   UNL     1     -12.051  15.052  72.484  0.00  0.00    +0.140 C 
BRANCH  22  23
ATOM     23  C   UNL     1     -13.443  15.510  72.790  0.00  0.00    +0.369 C 
ATOM     24  O   UNL     1     -14.244  15.768  71.673  0.00  0.00    -0.245 OA
ATOM     25  O   UNL     1     -13.528  16.374  73.715  0.00  0.00    -0.245 OA
ENDBRANCH  22  23
ENDBRANCH  12  22
TORSDOF 4
ENDMDL
MODEL 9
REMARK VINA RESULT:      -6.3      4.171      8.131
REMARK  Name = 
REMARK  4 active torsions:
REMARK  status: ('A' for Active; 'I' for Inactive)
REMARK    1  A    between atoms: C_3  and  C_4
REMARK    2  A    between atoms: C_4  and  C_5
REMARK    3  A    between atoms: C_16  and  C_17
REMARK    4  A    between atoms: C_20  and  S_21
REMARK                            x       y       z     vdW  Elec       q    Type
REMARK                         _______ _______ _______ _____ _____    ______ ____
ROOT
ATOM      1  C   UNL     1     -11.978  14.543  67.763  0.00  0.00    +0.031 C 
ATOM      2  C   UNL     1     -11.497  13.490  66.944  0.00  0.00    -0.025 C 
ATOM      3  C   UNL     1     -11.278  12.109  67.389  0.00  0.00    -0.004 C 
ATOM      4  C   UNL     1     -11.275  11.657  68.625  0.00  0.00    -0.000 C 
ATOM      5  C   UNL     1     -10.623  11.434  66.262  0.00  0.00    -0.000 A 
ATOM      6  C   UNL     1     -10.624  12.332  65.220  0.00  0.00    -0.002 A 
ATOM      7  C   UNL     1     -10.253  11.939  63.961  0.00  0.00    +0.029 A 
ATOM      8  C   UNL     1      -9.996  10.593  63.739  0.00  0.00    +0.140 A 
ATOM      9  C   UNL     1      -9.748   9.795  64.826  0.00  0.00    +0.030 A 
ATOM     10  F   UNL     1     -10.060  10.103  62.469  0.00  0.00    -0.204 F 
ATOM     11  C   UNL     1     -10.147  10.137  66.112  0.00  0.00    +0.002 A 
ATOM     12  C   UNL     1     -10.928  13.650  65.750  0.00  0.00    -0.015 C 
ENDROOT
BRANCH   4  13
ATOM     13  C   UNL     1     -10.450  10.525  69.065  0.00  0.00    +0.000 A 
ATOM     14  C   UNL     1     -10.976   9.736  70.081  0.00  0.00    +0.001 A 
ATOM     15  C   UNL     1     -10.129   8.947  70.851  0.00  0.00    +0.009 A 
ATOM     16  C   UNL     1      -8.764   8.888  70.592  0.00  0.00    +0.056 A 
ATOM     17  C   UNL     1      -8.301   9.761  69.638  0.00  0.00    +0.009 A 
ATOM     18  C   UNL     1      -9.091  10.794  69.180  0.00  0.00    +0.001 A 
BRANCH  16  19
ATOM     19  S   UNL     1      -7.905   7.328  70.923  0.00  0.00    +0.066 S 
ATOM     20  O   UNL     1      -8.618   6.898  72.239  0.00  0.00    -0.251 OA
ATOM     21  C   UNL     1      -8.741   6.196  69.736  0.00  0.00    +0.111 C 
ENDBRANCH  16  19
ENDBRANCH   4  13
BRANCH  12  22
ATOM     22  C   UNL     1     -10.531  14.964  65.157  0.00  0.00    +0.140 C 
BRANCH  22  23
ATOM     23  C   UNL     1     -11.760  15.526  64.511  0.00  0.00    +0.369 C 
ATOM     24  O   UNL     1     -12.560  14.594  63.843  0.00  0.00    -0.245 OA
ATOM     25  O   UNL     1     -11.581  16.616  63.887  0.00  0.00    -0.245 OA
ENDBRANCH  22  23
ENDBRANCH  12  22
TORSDOF 4
ENDMDL
