MODEL 1
REMARK VINA RESULT:      -7.4      0.000      0.000
REMARK  Name = 
REMARK  4 active torsions:
REMARK  status: ('A' for Active; 'I' for Inactive)
REMARK    1  A    between atoms: C_2  and  C_4
REMARK    2  A    between atoms: C_4  and  C_5
REMARK    3  A    between atoms: C_5  and  C_6
REMARK    4  A    between atoms: C_5  and  C_12
REMARK                            x       y       z     vdW  Elec       q    Type
REMARK                         _______ _______ _______ _____ _____    ______ ____
ROOT
ATOM      1  C   UNL     1     -10.890  15.022  68.443  0.00  0.00    +0.097 A 
ATOM      2  C   UNL     1     -11.348  16.276  68.843  0.00  0.00    +0.345 A 
ATOM      3  O   UNL     1     -11.207  17.313  68.170  0.00  0.00    -0.245 OA
ATOM      4  O   UNL     1     -11.880  16.359  70.048  0.00  0.00    -0.421 OA
ATOM      5  C   UNL     1     -12.339  15.280  70.659  0.00  0.00    +0.152 A 
ATOM      6  C   UNL     1     -12.154  14.005  70.139  0.00  0.00    +0.073 A 
ATOM      7  C   UNL     1     -12.477  12.885  70.867  0.00  0.00    +0.006 A 
ATOM      8  C   UNL     1     -13.392  13.079  71.897  0.00  0.00    +0.000 A 
ATOM      9  C   UNL     1     -14.011  14.306  72.097  0.00  0.00    +0.003 A 
ATOM     10  C   UNL     1     -13.327  15.421  71.626  0.00  0.00    +0.038 A 
ATOM     11  C   UNL     1     -11.524  13.902  68.906  0.00  0.00    +0.201 A 
ATOM     12  O   UNL     1     -10.713  12.783  68.663  0.00  0.00    -0.287 OA
ENDROOT
BRANCH   1  13
ATOM     13  C   UNL     1     -10.638  15.052  66.826  0.00  0.00    +0.061 C 
BRANCH  13  14
ATOM     14  C   UNL     1     -11.097  13.499  66.537  0.00  0.00    -0.018 A 
ATOM     15  C   UNL     1     -10.161  12.759  65.817  0.00  0.00    -0.004 A 
ATOM     16  C   UNL     1     -10.540  11.741  64.950  0.00  0.00    -0.000 A 
ATOM     17  C   UNL     1     -11.657  12.037  64.176  0.00  0.00    -0.000 A 
ATOM     18  C   UNL     1     -12.666  12.709  64.852  0.00  0.00    -0.000 A 
ATOM     19  C   UNL     1     -12.238  13.674  65.736  0.00  0.00    -0.004 A 
ENDBRANCH  13  14
BRANCH  13  20
ATOM     20  C   UNL     1      -9.022  14.693  67.061  0.00  0.00    +0.074 C 
BRANCH  20  22
ATOM     21  C   UNL     1      -6.975  16.206  67.006  0.00  0.00    +0.072 C 
ATOM     22  C   UNL     1      -8.351  15.916  66.561  0.00  0.00    +0.152 C 
ATOM     23  O   UNL     1      -8.910  16.660  65.759  0.00  0.00    -0.296 OA
ENDBRANCH  20  22
ENDBRANCH  13  20
ENDBRANCH   1  13
TORSDOF 4
ENDMDL
MODEL 2
REMARK VINA RESULT:      -7.2      2.760      4.853
REMARK  Name = 
REMARK  4 active torsions:
REMARK  status: ('A' for Active; 'I' for Inactive)
REMARK    1  A    between atoms: C_2  and  C_4
REMARK    2  A    between atoms: C_4  and  C_5
REMARK    3  A    between atoms: C_5  and  C_6
REMARK    4  A    between atoms: C_5  and  C_12
REMARK                            x       y       z     vdW  Elec       q    Type
REMARK                         _______ _______ _______ _____ _____    ______ ____
ROOT
ATOM      1  C   UNL     1     -10.720  15.651  65.827  0.00  0.00    +0.097 A 
ATOM      2  C   UNL     1     -11.209  16.528  64.861  0.00  0.00    +0.345 A 
ATOM      3  O   UNL     1     -11.904  16.174  63.891  0.00  0.00    -0.245 OA
ATOM      4  O   UNL     1     -10.827  17.788  64.953  0.00  0.00    -0.421 OA
ATOM      5  C   UNL     1     -10.375  18.275  66.096  0.00  0.00    +0.152 A 
ATOM      6  C   UNL     1     -10.142  17.465  67.200  0.00  0.00    +0.073 A 
ATOM      7  C   UNL     1      -9.508  17.950  68.319  0.00  0.00    +0.006 A 
ATOM      8  C   UNL     1      -9.539  19.332  68.477  0.00  0.00    +0.000 A 
ATOM      9  C   UNL     1     -10.258  20.146  67.612  0.00  0.00    +0.003 A 
ATOM     10  C   UNL     1     -10.478  19.640  66.335  0.00  0.00    +0.038 A 
ATOM     11  C   UNL     1     -10.469  16.120  67.087  0.00  0.00    +0.201 A 
ATOM     12  O   UNL     1      -9.684  15.183  67.777  0.00  0.00    -0.287 OA
ENDROOT
BRANCH   1  13
ATOM     13  C   UNL     1     -11.598  14.271  65.768  0.00  0.00    +0.061 C 
BRANCH  13  14
ATOM     14  C   UNL     1     -10.819  13.502  66.996  0.00  0.00    -0.018 A 
ATOM     15  C   UNL     1      -9.827  12.620  66.571  0.00  0.00    -0.004 A 
ATOM     16  C   UNL     1      -9.513  11.469  67.284  0.00  0.00    -0.000 A 
ATOM     17  C   UNL     1     -10.618  10.788  67.783  0.00  0.00    -0.000 A 
ATOM     18  C   UNL     1     -11.617  11.605  68.296  0.00  0.00    -0.000 A 
ATOM     19  C   UNL     1     -11.856  12.757  67.581  0.00  0.00    -0.004 A 
ENDBRANCH  13  14
BRANCH  13  20
ATOM     20  C   UNL     1     -10.604  13.678  64.561  0.00  0.00    +0.074 C 
BRANCH  20  22
ATOM     21  C   UNL     1     -10.987  11.442  63.405  0.00  0.00    +0.072 C 
ATOM     22  C   UNL     1     -11.506  12.754  63.833  0.00  0.00    +0.152 C 
ATOM     23  O   UNL     1     -12.677  13.055  63.620  0.00  0.00    -0.296 OA
ENDBRANCH  20  22
ENDBRANCH  13  20
ENDBRANCH   1  13
TORSDOF 4
ENDMDL
MODEL 3
REMARK VINA RESULT:      -6.9      1.296      1.736
REMARK  Name = 
REMARK  4 active torsions:
REMARK  status: ('A' for Active; 'I' for Inactive)
REMARK    1  A    between atoms: C_2  and  C_4
REMARK    2  A    between atoms: C_4  and  C_5
REMARK    3  A    between atoms: C_5  and  C_6
REMARK    4  A    between atoms: C_5  and  C_12
REMARK                            x       y       z     vdW  Elec       q    Type
REMARK                         _______ _______ _______ _____ _____    ______ ____
ROOT
ATOM      1  C   UNL     1     -11.116  14.064  68.509  0.00  0.00    +0.097 A 
ATOM      2  C   UNL     1     -11.897  14.860  69.344  0.00  0.00    +0.345 A 
ATOM      3  O   UNL     1     -12.205  16.039  69.090  0.00  0.00    -0.245 OA
ATOM      4  O   UNL     1     -12.243  14.341  70.508  0.00  0.00    -0.421 OA
ATOM      5  C   UNL     1     -12.228  13.032  70.695  0.00  0.00    +0.152 A 
ATOM      6  C   UNL     1     -11.711  12.160  69.745  0.00  0.00    +0.073 A 
ATOM      7  C   UNL     1     -11.537  10.825  70.023  0.00  0.00    +0.006 A 
ATOM      8  C   UNL     1     -12.304  10.324  71.071  0.00  0.00    +0.000 A 
ATOM      9  C   UNL     1     -13.256  11.104  71.712  0.00  0.00    +0.003 A 
ATOM     10  C   UNL     1     -13.054  12.479  71.665  0.00  0.00    +0.038 A 
ATOM     11  C   UNL     1     -11.270  12.705  68.546  0.00  0.00    +0.201 A 
ATOM     12  O   UNL     1     -10.181  12.102  67.899  0.00  0.00    -0.287 OA
ENDROOT
BRANCH   1  13
ATOM     13  C   UNL     1     -11.128  14.717  67.008  0.00  0.00    +0.061 C 
BRANCH  13  14
ATOM     14  C   UNL     1     -11.174  13.294  66.185  0.00  0.00    -0.018 A 
ATOM     15  C   UNL     1     -10.259  13.216  65.138  0.00  0.00    -0.004 A 
ATOM     16  C   UNL     1     -10.519  12.481  63.987  0.00  0.00    -0.000 A 
ATOM     17  C   UNL     1     -11.821  12.603  63.515  0.00  0.00    -0.000 A 
ATOM     18  C   UNL     1     -12.796  12.609  64.504  0.00  0.00    -0.000 A 
ATOM     19  C   UNL     1     -12.470  13.310  65.644  0.00  0.00    -0.004 A 
ENDBRANCH  13  14
BRANCH  13  20
ATOM     20  C   UNL     1      -9.459  14.826  67.031  0.00  0.00    +0.074 C 
BRANCH  20  22
ATOM     21  C   UNL     1      -9.005  17.139  67.994  0.00  0.00    +0.072 C 
ATOM     22  C   UNL     1      -9.234  16.276  66.821  0.00  0.00    +0.152 C 
ATOM     23  O   UNL     1      -9.199  16.750  65.688  0.00  0.00    -0.296 OA
ENDBRANCH  20  22
ENDBRANCH  13  20
ENDBRANCH   1  13
TORSDOF 4
ENDMDL
MODEL 4
REMARK VINA RESULT:      -6.9      2.271      5.051
REMARK  Name = 
REMARK  4 active torsions:
REMARK  status: ('A' for Active; 'I' for Inactive)
REMARK    1  A    between atoms: C_2  and  C_4
REMARK    2  A    between atoms: C_4  and  C_5
REMARK    3  A    between atoms: C_5  and  C_6
REMARK    4  A    between atoms: C_5  and  C_12
REMARK                            x       y       z     vdW  Elec       q    Type
REMARK                         _______ _______ _______ _____ _____    ______ ____
ROOT
ATOM      1  C   UNL     1      -9.864  15.689  68.797  0.00  0.00    +0.097 A 
ATOM      2  C   UNL     1      -8.473  15.634  68.852  0.00  0.00    +0.345 A 
ATOM      3  O   UNL     1      -7.824  14.578  68.964  0.00  0.00    -0.245 OA
ATOM      4  O   UNL     1      -7.832  16.788  68.873  0.00  0.00    -0.421 OA
ATOM      5  C   UNL     1      -8.417  17.893  68.444  0.00  0.00    +0.152 A 
ATOM      6  C   UNL     1      -9.762  17.926  68.095  0.00  0.00    +0.073 A 
ATOM      7  C   UNL     1     -10.399  19.113  67.823  0.00  0.00    +0.006 A 
ATOM      8  C   UNL     1      -9.570  20.172  67.462  0.00  0.00    +0.000 A 
ATOM      9  C   UNL     1      -8.204  19.998  67.288  0.00  0.00    +0.003 A 
ATOM     10  C   UNL     1      -7.628  18.939  67.981  0.00  0.00    +0.038 A 
ATOM     11  C   UNL     1     -10.466  16.730  68.145  0.00  0.00    +0.201 A 
ATOM     12  O   UNL     1     -11.823  16.769  68.498  0.00  0.00    -0.287 OA
ENDROOT
BRANCH   1  13
ATOM     13  C   UNL     1     -10.427  14.206  68.393  0.00  0.00    +0.061 C 
BRANCH  13  14
ATOM     14  C   UNL     1     -10.935  14.604  66.880  0.00  0.00    -0.018 A 
ATOM     15  C   UNL     1     -12.214  14.146  66.575  0.00  0.00    -0.004 A 
ATOM     16  C   UNL     1     -12.580  13.797  65.280  0.00  0.00    -0.000 A 
ATOM     17  C   UNL     1     -11.608  13.088  64.584  0.00  0.00    -0.000 A 
ATOM     18  C   UNL     1     -10.309  13.541  64.782  0.00  0.00    -0.000 A 
ATOM     19  C   UNL     1     -10.012  13.921  66.071  0.00  0.00    -0.004 A 
ENDBRANCH  13  14
BRANCH  13  20
ATOM     20  C   UNL     1     -11.885  14.545  69.138  0.00  0.00    +0.074 C 
BRANCH  20  22
ATOM     21  C   UNL     1     -11.746  12.045  69.597  0.00  0.00    +0.072 C 
ATOM     22  C   UNL     1     -12.033  13.409  70.078  0.00  0.00    +0.152 C 
ATOM     23  O   UNL     1     -12.352  13.597  71.249  0.00  0.00    -0.296 OA
ENDBRANCH  20  22
ENDBRANCH  13  20
ENDBRANCH   1  13
TORSDOF 4
ENDMDL
MODEL 5
REMARK VINA RESULT:      -6.8      2.288      5.410
REMARK  Name = 
REMARK  4 active torsions:
REMARK  status: ('A' for Active; 'I' for Inactive)
REMARK    1  A    between atoms: C_2  and  C_4
REMARK    2  A    between atoms: C_4  and  C_5
REMARK    3  A    between atoms: C_5  and  C_6
REMARK    4  A    between atoms: C_5  and  C_12
REMARK                            x       y       z     vdW  Elec       q    Type
REMARK                         _______ _______ _______ _____ _____    ______ ____
ROOT
ATOM      1  C   UNL     1      -9.515  17.446  67.225  0.00  0.00    +0.097 A 
ATOM      2  C   UNL     1      -9.821  18.751  67.606  0.00  0.00    +0.345 A 
ATOM      3  O   UNL     1     -10.953  19.257  67.500  0.00  0.00    -0.245 OA
ATOM      4  O   UNL     1      -8.817  19.502  68.017  0.00  0.00    -0.421 OA
ATOM      5  C   UNL     1      -7.694  18.952  68.447  0.00  0.00    +0.152 A 
ATOM      6  C   UNL     1      -7.460  17.586  68.350  0.00  0.00    +0.073 A 
ATOM      7  C   UNL     1      -6.225  17.053  68.634  0.00  0.00    +0.006 A 
ATOM      8  C   UNL     1      -5.403  17.834  69.441  0.00  0.00    +0.000 A 
ATOM      9  C   UNL     1      -5.853  19.021  70.002  0.00  0.00    +0.003 A 
ATOM     10  C   UNL     1      -6.892  19.660  69.334  0.00  0.00    +0.038 A 
ATOM     11  C   UNL     1      -8.483  16.795  67.844  0.00  0.00    +0.201 A 
ATOM     12  O   UNL     1      -8.141  15.661  67.092  0.00  0.00    -0.287 OA
ENDROOT
BRANCH   1  13
ATOM     13  C   UNL     1     -10.908  16.593  67.128  0.00  0.00    +0.061 C 
BRANCH  13  14
ATOM     14  C   UNL     1     -10.594  15.579  68.384  0.00  0.00    -0.018 A 
ATOM     15  C   UNL     1     -11.051  14.278  68.188  0.00  0.00    -0.004 A 
ATOM     16  C   UNL     1     -11.472  13.479  69.246  0.00  0.00    -0.000 A 
ATOM     17  C   UNL     1     -12.236  14.148  70.196  0.00  0.00    -0.000 A 
ATOM     18  C   UNL     1     -11.790  15.428  70.499  0.00  0.00    -0.000 A 
ATOM     19  C   UNL     1     -11.337  16.160  69.424  0.00  0.00    -0.004 A 
ENDBRANCH  13  14
BRANCH  13  20
ATOM     20  C   UNL     1     -10.233  15.604  65.961  0.00  0.00    +0.074 C 
BRANCH  20  22
ATOM     21  C   UNL     1     -12.044  14.596  64.482  0.00  0.00    +0.072 C 
ATOM     22  C   UNL     1     -11.188  15.743  64.836  0.00  0.00    +0.152 C 
ATOM     23  O   UNL     1     -11.297  16.806  64.230  0.00  0.00    -0.296 OA
ENDBRANCH  20  22
ENDBRANCH  13  20
ENDBRANCH   1  13
TORSDOF 4
ENDMDL
MODEL 6
REMARK VINA RESULT:      -6.8      1.621      4.125
REMARK  Name = 
REMARK  4 active torsions:
REMARK  status: ('A' for Active; 'I' for Inactive)
REMARK    1  A    between atoms: C_2  and  C_4
REMARK    2  A    between atoms: C_4  and  C_5
REMARK    3  A    between atoms: C_5  and  C_6
REMARK    4  A    between atoms: C_5  and  C_12
REMARK                            x       y       z     vdW  Elec       q    Type
REMARK                         _______ _______ _______ _____ _____    ______ ____
ROOT
ATOM      1  C   UNL     1     -11.152  14.476  68.300  0.00  0.00    +0.097 A 
ATOM      2  C   UNL     1     -11.147  13.107  68.560  0.00  0.00    +0.345 A 
ATOM      3  O   UNL     1     -10.461  12.283  67.927  0.00  0.00    -0.245 OA
ATOM      4  O   UNL     1     -11.992  12.672  69.475  0.00  0.00    -0.421 OA
ATOM      5  C   UNL     1     -12.494  13.497  70.378  0.00  0.00    +0.152 A 
ATOM      6  C   UNL     1     -12.280  14.869  70.320  0.00  0.00    +0.073 A 
ATOM      7  C   UNL     1     -12.949  15.730  71.156  0.00  0.00    +0.006 A 
ATOM      8  C   UNL     1     -13.461  15.164  72.320  0.00  0.00    +0.000 A 
ATOM      9  C   UNL     1     -13.211  13.840  72.654  0.00  0.00    +0.003 A 
ATOM     10  C   UNL     1     -12.925  12.985  71.595  0.00  0.00    +0.038 A 
ATOM     11  C   UNL     1     -11.453  15.346  69.311  0.00  0.00    +0.201 A 
ATOM     12  O   UNL     1     -11.729  16.608  68.764  0.00  0.00    -0.287 OA
ENDROOT
BRANCH   1  13
ATOM     13  C   UNL     1      -9.804  14.848  67.449  0.00  0.00    +0.061 C 
BRANCH  13  14
ATOM     14  C   UNL     1      -9.066  15.712  68.639  0.00  0.00    -0.018 A 
ATOM     15  C   UNL     1      -8.502  16.909  68.202  0.00  0.00    -0.004 A 
ATOM     16  C   UNL     1      -7.363  17.444  68.792  0.00  0.00    -0.000 A 
ATOM     17  C   UNL     1      -6.385  16.505  69.099  0.00  0.00    -0.000 A 
ATOM     18  C   UNL     1      -6.872  15.310  69.614  0.00  0.00    -0.000 A 
ATOM     19  C   UNL     1      -8.029  14.848  69.029  0.00  0.00    -0.004 A 
ENDBRANCH  13  14
BRANCH  13  20
ATOM     20  C   UNL     1     -10.584  16.162  66.769  0.00  0.00    +0.074 C 
BRANCH  20  22
ATOM     21  C   UNL     1     -10.335  14.398  64.949  0.00  0.00    +0.072 C 
ATOM     22  C   UNL     1     -10.642  15.788  65.336  0.00  0.00    +0.152 C 
ATOM     23  O   UNL     1     -10.976  16.607  64.484  0.00  0.00    -0.296 OA
ENDBRANCH  20  22
ENDBRANCH  13  20
ENDBRANCH   1  13
TORSDOF 4
ENDMDL
MODEL 7
REMARK VINA RESULT:      -6.7      1.544      4.052
REMARK  Name = 
REMARK  4 active torsions:
REMARK  status: ('A' for Active; 'I' for Inactive)
REMARK    1  A    between atoms: C_2  and  C_4
REMARK    2  A    between atoms: C_4  and  C_5
REMARK    3  A    between atoms: C_5  and  C_6
REMARK    4  A    between atoms: C_5  and  C_12
REMARK                            x       y       z     vdW  Elec       q    Type
REMARK                         _______ _______ _______ _____ _____    ______ ____
ROOT
ATOM      1  C   UNL     1     -11.640  13.196  68.477  0.00  0.00    +0.097 A 
ATOM      2  C   UNL     1     -11.707  12.035  69.244  0.00  0.00    +0.345 A 
ATOM      3  O   UNL     1     -11.211  10.947  68.900  0.00  0.00    -0.245 OA
ATOM      4  O   UNL     1     -12.419  12.095  70.354  0.00  0.00    -0.421 OA
ATOM      5  C   UNL     1     -12.688  13.258  70.922  0.00  0.00    +0.152 A 
ATOM      6  C   UNL     1     -12.371  14.465  70.312  0.00  0.00    +0.073 A 
ATOM      7  C   UNL     1     -12.814  15.661  70.825  0.00  0.00    +0.006 A 
ATOM      8  C   UNL     1     -13.166  15.644  72.171  0.00  0.00    +0.000 A 
ATOM      9  C   UNL     1     -12.977  14.516  72.958  0.00  0.00    +0.003 A 
ATOM     10  C   UNL     1     -12.948  13.299  72.286  0.00  0.00    +0.038 A 
ATOM     11  C   UNL     1     -11.691  14.412  69.102  0.00  0.00    +0.201 A 
ATOM     12  O   UNL     1     -11.948  15.408  68.148  0.00  0.00    -0.287 OA
ENDROOT
BRANCH   1  13
ATOM     13  C   UNL     1     -10.429  13.031  67.388  0.00  0.00    +0.061 C 
BRANCH  13  14
ATOM     14  C   UNL     1      -9.610  14.393  67.813  0.00  0.00    -0.018 A 
ATOM     15  C   UNL     1      -9.160  15.143  66.729  0.00  0.00    -0.004 A 
ATOM     16  C   UNL     1      -7.991  15.894  66.789  0.00  0.00    -0.000 A 
ATOM     17  C   UNL     1      -6.939  15.259  67.439  0.00  0.00    -0.000 A 
ATOM     18  C   UNL     1      -7.304  14.553  68.578  0.00  0.00    -0.000 A 
ATOM     19  C   UNL     1      -8.494  13.866  68.485  0.00  0.00    -0.004 A 
ENDBRANCH  13  14
BRANCH  13  20
ATOM     20  C   UNL     1     -11.366  13.776  66.220  0.00  0.00    +0.074 C 
BRANCH  20  22
ATOM     21  C   UNL     1     -10.911  11.498  65.177  0.00  0.00    +0.072 C 
ATOM     22  C   UNL     1     -11.832  12.626  65.408  0.00  0.00    +0.152 C 
ATOM     23  O   UNL     1     -12.976  12.591  64.964  0.00  0.00    -0.296 OA
ENDBRANCH  20  22
ENDBRANCH  13  20
ENDBRANCH   1  13
TORSDOF 4
ENDMDL
MODEL 8
REMARK VINA RESULT:      -6.6      1.513      5.585
REMARK  Name = 
REMARK  4 active torsions:
REMARK  status: ('A' for Active; 'I' for Inactive)
REMARK    1  A    between atoms: C_2  and  C_4
REMARK    2  A    between atoms: C_4  and  C_5
REMARK    3  A    between atoms: C_5  and  C_6
REMARK    4  A    between atoms: C_5  and  C_12
REMARK                            x       y       z     vdW  Elec       q    Type
REMARK                         _______ _______ _______ _____ _____    ______ ____
ROOT
ATOM      1  C   UNL     1      -9.930  15.050  66.525  0.00  0.00    +0.097 A 
ATOM      2  C   UNL     1      -9.780  16.305  65.938  0.00  0.00    +0.345 A 
ATOM      3  O   UNL     1     -10.728  16.990  65.513  0.00  0.00    -0.245 OA
ATOM      4  O   UNL     1      -8.545  16.731  65.752  0.00  0.00    -0.421 OA
ATOM      5  C   UNL     1      -7.543  16.221  66.447  0.00  0.00    +0.152 A 
ATOM      6  C   UNL     1      -7.711  15.126  67.286  0.00  0.00    +0.073 A 
ATOM      7  C   UNL     1      -6.633  14.497  67.862  0.00  0.00    +0.006 A 
ATOM      8  C   UNL     1      -5.470  15.255  67.950  0.00  0.00    +0.000 A 
ATOM      9  C   UNL     1      -5.444  16.592  67.575  0.00  0.00    +0.003 A 
ATOM     10  C   UNL     1      -6.399  16.985  66.643  0.00  0.00    +0.038 A 
ATOM     11  C   UNL     1      -8.997  14.620  67.427  0.00  0.00    +0.201 A 
ATOM     12  O   UNL     1      -9.152  13.239  67.625  0.00  0.00    -0.287 OA
ENDROOT
BRANCH   1  13
ATOM     13  C   UNL     1     -11.485  14.886  67.010  0.00  0.00    +0.061 C 
BRANCH  13  14
ATOM     14  C   UNL     1     -11.156  14.608  68.598  0.00  0.00    -0.018 A 
ATOM     15  C   UNL     1     -11.910  13.580  69.160  0.00  0.00    -0.004 A 
ATOM     16  C   UNL     1     -12.278  13.587  70.500  0.00  0.00    -0.000 A 
ATOM     17  C   UNL     1     -12.680  14.830  70.975  0.00  0.00    -0.000 A 
ATOM     18  C   UNL     1     -11.921  15.898  70.515  0.00  0.00    -0.000 A 
ATOM     19  C   UNL     1     -11.540  15.820  69.194  0.00  0.00    -0.004 A 
ENDBRANCH  13  14
BRANCH  13  20
ATOM     20  C   UNL     1     -11.465  13.274  66.566  0.00  0.00    +0.074 C 
BRANCH  20  22
ATOM     21  C   UNL     1     -11.951  12.283  64.271  0.00  0.00    +0.072 C 
ATOM     22  C   UNL     1     -12.256  13.282  65.313  0.00  0.00    +0.152 C 
ATOM     23  O   UNL     1     -13.176  14.080  65.153  0.00  0.00    -0.296 OA
ENDBRANCH  20  22
ENDBRANCH  13  20
ENDBRANCH   1  13
TORSDOF 4
ENDMDL
MODEL 9
REMARK VINA RESULT:      -6.6      2.389      4.691
REMARK  Name = 
REMARK  4 active torsions:
REMARK  status: ('A' for Active; 'I' for Inactive)
REMARK    1  A    between atoms: C_2  and  C_4
REMARK    2  A    between atoms: C_4  and  C_5
REMARK    3  A    between atoms: C_5  and  C_6
REMARK    4  A    between atoms: C_5  and  C_12
REMARK                            x       y       z     vdW  Elec       q    Type
REMARK                         _______ _______ _______ _____ _____    ______ ____
ROOT
ATOM      1  C   UNL     1     -10.854  15.497  67.091  0.00  0.00    +0.097 A 
ATOM      2  C   UNL     1     -10.740  15.730  68.460  0.00  0.00    +0.345 A 
ATOM      3  O   UNL     1     -10.676  14.827  69.314  0.00  0.00    -0.245 OA
ATOM      4  O   UNL     1     -10.795  16.988  68.857  0.00  0.00    -0.421 OA
ATOM      5  C   UNL     1     -10.542  17.973  68.013  0.00  0.00    +0.152 A 
ATOM      6  C   UNL     1     -10.358  17.749  66.654  0.00  0.00    +0.073 A 
ATOM      7  C   UNL     1     -10.274  18.794  65.764  0.00  0.00    +0.006 A 
ATOM      8  C   UNL     1      -9.920  20.023  66.311  0.00  0.00    +0.000 A 
ATOM      9  C   UNL     1      -9.572  20.150  67.649  0.00  0.00    +0.003 A 
ATOM     10  C   UNL     1     -10.090  19.189  68.510  0.00  0.00    +0.038 A 
ATOM     11  C   UNL     1     -10.377  16.432  66.214  0.00  0.00    +0.201 A 
ATOM     12  O   UNL     1     -10.889  16.164  64.935  0.00  0.00    -0.287 OA
ENDROOT
BRANCH   1  13
ATOM     13  C   UNL     1     -10.381  13.960  66.784  0.00  0.00    +0.061 C 
BRANCH  13  14
ATOM     14  C   UNL     1     -11.022  13.867  65.272  0.00  0.00    -0.018 A 
ATOM     15  C   UNL     1     -12.294  13.301  65.231  0.00  0.00    -0.004 A 
ATOM     16  C   UNL     1     -12.737  12.566  64.138  0.00  0.00    -0.000 A 
ATOM     17  C   UNL     1     -11.782  11.707  63.604  0.00  0.00    -0.000 A 
ATOM     18  C   UNL     1     -10.499  12.236  63.541  0.00  0.00    -0.000 A 
ATOM     19  C   UNL     1     -10.127  12.998  64.626  0.00  0.00    -0.004 A 
ENDBRANCH  13  14
BRANCH  13  20
ATOM     20  C   UNL     1     -11.741  13.376  67.562  0.00  0.00    +0.074 C 
BRANCH  20  22
ATOM     21  C   UNL     1      -9.900  11.709  68.124  0.00  0.00    +0.072 C 
ATOM     22  C   UNL     1     -11.332  11.997  67.921  0.00  0.00    +0.152 C 
ATOM     23  O   UNL     1     -12.169  11.114  68.085  0.00  0.00    -0.296 OA
ENDBRANCH  20  22
ENDBRANCH  13  20
ENDBRANCH   1  13
TORSDOF 4
ENDMDL
