MODEL 1
REMARK VINA RESULT:      -6.3      0.000      0.000
REMARK  Name = 
REMARK  5 active torsions:
REMARK  status: ('A' for Active; 'I' for Inactive)
REMARK    1  A    between atoms: C_2  and  C_3
REMARK    2  A    between atoms: C_3  and  C_4
REMARK    3  A    between atoms: C_4  and  C_5
REMARK    4  A    between atoms: C_5  and  C_6
REMARK    5  A    between atoms: C_6  and  N_7
REMARK                            x       y       z     vdW  Elec       q    Type
REMARK                         _______ _______ _______ _____ _____    ______ ____
ROOT
ATOM      1  N   UNL     1      -8.563  15.922  66.125  0.00  0.00    -0.186 NA
ATOM      2  C   UNL     1      -9.961  15.770  66.020  0.00  0.00    +0.343 C 
ATOM      3  N   UNL     1     -10.596  14.829  65.153  0.00  0.00    -0.208 N 
ATOM      4  C   UNL     1     -11.602  15.313  64.392  0.00  0.00    +0.360 A 
ATOM      5  O   UNL     1     -11.613  16.502  63.958  0.00  0.00    -0.244 OA
ATOM      6  N   UNL     1     -12.443  14.434  63.825  0.00  0.00    -0.151 NA
ATOM      7  C   UNL     1     -12.196  13.102  63.801  0.00  0.00    +0.312 A 
ATOM      8  O   UNL     1     -13.228  12.162  63.718  0.00  0.00    -0.263 OA
ATOM      9  C   UNL     1     -10.977  12.677  64.314  0.00  0.00    +0.215 A 
ATOM     10  F   UNL     1     -10.505  11.483  63.853  0.00  0.00    -0.197 F 
ATOM     11  C   UNL     1     -10.183  13.548  65.045  0.00  0.00    +0.123 A 
ATOM     12  O   UNL     1     -10.675  16.414  66.834  0.00  0.00    -0.247 OA
ENDROOT
BRANCH   1  13
ATOM     13  C   UNL     1      -8.023  17.222  66.453  0.00  0.00    +0.117 C 
BRANCH  13  14
ATOM     14  C   UNL     1      -7.768  17.378  67.936  0.00  0.00    +0.023 C 
BRANCH  14  15
ATOM     15  C   UNL     1      -7.958  18.793  68.415  0.00  0.00    +0.002 C 
BRANCH  15  16
ATOM     16  C   UNL     1      -9.448  19.100  68.434  0.00  0.00    +0.000 C 
BRANCH  16  18
ATOM     17  C   UNL     1     -10.523  19.841  66.316  0.00  0.00    +0.000 C 
ATOM     18  C   UNL     1      -9.713  20.279  67.508  0.00  0.00    +0.000 C 
ENDBRANCH  16  18
ENDBRANCH  15  16
ENDBRANCH  14  15
ENDBRANCH  13  14
ENDBRANCH   1  13
TORSDOF 5
ENDMDL
MODEL 2
REMARK VINA RESULT:      -6.1      4.330      4.953
REMARK  Name = 
REMARK  5 active torsions:
REMARK  status: ('A' for Active; 'I' for Inactive)
REMARK    1  A    between atoms: C_2  and  C_3
REMARK    2  A    between atoms: C_3  and  C_4
REMARK    3  A    between atoms: C_4  and  C_5
REMARK    4  A    between atoms: C_5  and  C_6
REMARK    5  A    between atoms: C_6  and  N_7
REMARK                            x       y       z     vdW  Elec       q    Type
REMARK                         _______ _______ _______ _____ _____    ______ ____
ROOT
ATOM      1  N   UNL     1     -11.334  15.708  68.598  0.00  0.00    -0.186 NA
ATOM      2  C   UNL     1     -10.850  14.476  68.114  0.00  0.00    +0.343 C 
ATOM      3  N   UNL     1     -11.357  13.826  66.948  0.00  0.00    -0.208 N 
ATOM      4  C   UNL     1     -11.648  12.513  67.082  0.00  0.00    +0.360 A 
ATOM      5  O   UNL     1     -12.066  12.019  68.170  0.00  0.00    -0.244 OA
ATOM      6  N   UNL     1     -11.798  11.782  65.967  0.00  0.00    -0.151 NA
ATOM      7  C   UNL     1     -11.890  12.342  64.737  0.00  0.00    +0.312 A 
ATOM      8  O   UNL     1     -11.519  11.649  63.580  0.00  0.00    -0.263 OA
ATOM      9  C   UNL     1     -11.915  13.730  64.676  0.00  0.00    +0.215 A 
ATOM     10  F   UNL     1     -12.502  14.281  63.575  0.00  0.00    -0.197 F 
ATOM     11  C   UNL     1     -11.596  14.485  65.794  0.00  0.00    +0.123 A 
ATOM     12  O   UNL     1      -9.830  13.995  68.675  0.00  0.00    -0.247 OA
ENDROOT
BRANCH   1  13
ATOM     13  C   UNL     1     -11.288  15.970  70.019  0.00  0.00    +0.117 C 
BRANCH  13  14
ATOM     14  C   UNL     1     -12.585  15.608  70.710  0.00  0.00    +0.023 C 
BRANCH  14  15
ATOM     15  C   UNL     1     -12.543  14.250  71.357  0.00  0.00    +0.002 C 
BRANCH  15  16
ATOM     16  C   UNL     1     -13.406  14.286  72.609  0.00  0.00    +0.000 C 
BRANCH  16  18
ATOM     17  C   UNL     1     -12.452  15.705  74.416  0.00  0.00    +0.000 C 
ATOM     18  C   UNL     1     -13.344  15.685  73.203  0.00  0.00    +0.000 C 
ENDBRANCH  16  18
ENDBRANCH  15  16
ENDBRANCH  14  15
ENDBRANCH  13  14
ENDBRANCH   1  13
TORSDOF 5
ENDMDL
MODEL 3
REMARK VINA RESULT:      -6.1      5.111      7.147
REMARK  Name = 
REMARK  5 active torsions:
REMARK  status: ('A' for Active; 'I' for Inactive)
REMARK    1  A    between atoms: C_2  and  C_3
REMARK    2  A    between atoms: C_3  and  C_4
REMARK    3  A    between atoms: C_4  and  C_5
REMARK    4  A    between atoms: C_5  and  C_6
REMARK    5  A    between atoms: C_6  and  N_7
REMARK                            x       y       z     vdW  Elec       q    Type
REMARK                         _______ _______ _______ _____ _____    ______ ____
ROOT
ATOM      1  N   UNL     1     -11.870  11.798  68.292  0.00  0.00    -0.186 NA
ATOM      2  C   UNL     1     -11.753  13.194  68.128  0.00  0.00    +0.343 C 
ATOM      3  N   UNL     1     -11.541  13.832  66.868  0.00  0.00    -0.208 N 
ATOM      4  C   UNL     1     -10.558  14.758  66.833  0.00  0.00    +0.360 A 
ATOM      5  O   UNL     1      -9.515  14.668  67.546  0.00  0.00    -0.244 OA
ATOM      6  N   UNL     1     -10.535  15.616  65.801  0.00  0.00    -0.151 NA
ATOM      7  C   UNL     1     -11.310  15.452  64.701  0.00  0.00    +0.312 A 
ATOM      8  O   UNL     1     -11.699  16.533  63.905  0.00  0.00    -0.263 OA
ATOM      9  C   UNL     1     -12.076  14.295  64.637  0.00  0.00    +0.215 A 
ATOM     10  F   UNL     1     -12.435  13.871  63.391  0.00  0.00    -0.197 F 
ATOM     11  C   UNL     1     -12.232  13.495  65.758  0.00  0.00    +0.123 A 
ATOM     12  O   UNL     1     -11.978  13.914  69.137  0.00  0.00    -0.247 OA
ENDROOT
BRANCH   1  13
ATOM     13  C   UNL     1     -11.428  11.199  69.530  0.00  0.00    +0.117 C 
BRANCH  13  14
ATOM     14  C   UNL     1     -12.579  10.636  70.335  0.00  0.00    +0.023 C 
BRANCH  14  15
ATOM     15  C   UNL     1     -12.135   9.630  71.364  0.00  0.00    +0.002 C 
BRANCH  15  16
ATOM     16  C   UNL     1     -13.364   9.117  72.099  0.00  0.00    +0.000 C 
BRANCH  16  18
ATOM     17  C   UNL     1     -15.007   7.276  71.785  0.00  0.00    +0.000 C 
ATOM     18  C   UNL     1     -13.547   7.642  71.771  0.00  0.00    +0.000 C 
ENDBRANCH  16  18
ENDBRANCH  15  16
ENDBRANCH  14  15
ENDBRANCH  13  14
ENDBRANCH   1  13
TORSDOF 5
ENDMDL
MODEL 4
REMARK VINA RESULT:      -6.0      3.730      6.271
REMARK  Name = 
REMARK  5 active torsions:
REMARK  status: ('A' for Active; 'I' for Inactive)
REMARK    1  A    between atoms: C_2  and  C_3
REMARK    2  A    between atoms: C_3  and  C_4
REMARK    3  A    between atoms: C_4  and  C_5
REMARK    4  A    between atoms: C_5  and  C_6
REMARK    5  A    between atoms: C_6  and  N_7
REMARK                            x       y       z     vdW  Elec       q    Type
REMARK                         _______ _______ _______ _____ _____    ______ ____
ROOT
ATOM      1  N   UNL     1      -9.938  10.849  66.008  0.00  0.00    -0.186 NA
ATOM      2  C   UNL     1     -10.537  11.537  64.933  0.00  0.00    +0.343 C 
ATOM      3  N   UNL     1     -10.922  12.912  64.984  0.00  0.00    -0.208 N 
ATOM      4  C   UNL     1     -12.168  13.193  64.545  0.00  0.00    +0.360 A 
ATOM      5  O   UNL     1     -13.133  12.383  64.677  0.00  0.00    -0.244 OA
ATOM      6  N   UNL     1     -12.462  14.469  64.252  0.00  0.00    -0.151 NA
ATOM      7  C   UNL     1     -11.645  15.498  64.585  0.00  0.00    +0.312 A 
ATOM      8  O   UNL     1     -11.640  16.699  63.868  0.00  0.00    -0.263 OA
ATOM      9  C   UNL     1     -10.516  15.190  65.333  0.00  0.00    +0.215 A 
ATOM     10  F   UNL     1      -9.990  16.200  66.086  0.00  0.00    -0.197 F 
ATOM     11  C   UNL     1     -10.122  13.871  65.496  0.00  0.00    +0.123 A 
ATOM     12  O   UNL     1     -10.615  10.931  63.831  0.00  0.00    -0.247 OA
ENDROOT
BRANCH   1  13
ATOM     13  C   UNL     1     -10.176   9.431  66.152  0.00  0.00    +0.117 C 
BRANCH  13  14
ATOM     14  C   UNL     1     -10.651   9.070  67.543  0.00  0.00    +0.023 C 
BRANCH  14  15
ATOM     15  C   UNL     1     -10.370  10.149  68.554  0.00  0.00    +0.002 C 
BRANCH  15  16
ATOM     16  C   UNL     1     -11.691  10.596  69.162  0.00  0.00    +0.000 C 
BRANCH  16  18
ATOM     17  C   UNL     1     -12.837  10.884  71.351  0.00  0.00    +0.000 C 
ATOM     18  C   UNL     1     -11.716  10.186  70.628  0.00  0.00    +0.000 C 
ENDBRANCH  16  18
ENDBRANCH  15  16
ENDBRANCH  14  15
ENDBRANCH  13  14
ENDBRANCH   1  13
TORSDOF 5
ENDMDL
MODEL 5
REMARK VINA RESULT:      -5.9      1.157      1.684
REMARK  Name = 
REMARK  5 active torsions:
REMARK  status: ('A' for Active; 'I' for Inactive)
REMARK    1  A    between atoms: C_2  and  C_3
REMARK    2  A    between atoms: C_3  and  C_4
REMARK    3  A    between atoms: C_4  and  C_5
REMARK    4  A    between atoms: C_5  and  C_6
REMARK    5  A    between atoms: C_6  and  N_7
REMARK                            x       y       z     vdW  Elec       q    Type
REMARK                         _______ _______ _______ _____ _____    ______ ____
ROOT
ATOM      1  N   UNL     1      -8.491  16.309  66.113  0.00  0.00    -0.186 NA
ATOM      2  C   UNL     1      -9.891  16.151  66.045  0.00  0.00    +0.343 C 
ATOM      3  N   UNL     1     -10.541  15.142  65.272  0.00  0.00    -0.208 N 
ATOM      4  C   UNL     1     -11.560  15.561  64.489  0.00  0.00    +0.360 A 
ATOM      5  O   UNL     1     -11.577  16.709  63.956  0.00  0.00    -0.244 OA
ATOM      6  N   UNL     1     -12.411  14.640  64.013  0.00  0.00    -0.151 NA
ATOM      7  C   UNL     1     -12.165  13.309  64.099  0.00  0.00    +0.312 A 
ATOM      8  O   UNL     1     -13.199  12.368  64.113  0.00  0.00    -0.263 OA
ATOM      9  C   UNL     1     -10.938  12.927  64.625  0.00  0.00    +0.215 A 
ATOM     10  F   UNL     1     -10.475  11.698  64.259  0.00  0.00    -0.197 F 
ATOM     11  C   UNL     1     -10.131  13.855  65.266  0.00  0.00    +0.123 A 
ATOM     12  O   UNL     1     -10.590  16.864  66.813  0.00  0.00    -0.247 OA
ENDROOT
BRANCH   1  13
ATOM     13  C   UNL     1      -7.944  17.630  66.320  0.00  0.00    +0.117 C 
BRANCH  13  14
ATOM     14  C   UNL     1      -7.536  17.862  67.759  0.00  0.00    +0.023 C 
BRANCH  14  15
ATOM     15  C   UNL     1      -7.700  19.295  68.189  0.00  0.00    +0.002 C 
BRANCH  15  16
ATOM     16  C   UNL     1      -6.673  19.595  69.270  0.00  0.00    +0.000 C 
BRANCH  16  18
ATOM     17  C   UNL     1      -6.177  21.200  67.437  0.00  0.00    +0.000 C 
ATOM     18  C   UNL     1      -5.677  20.609  68.728  0.00  0.00    +0.000 C 
ENDBRANCH  16  18
ENDBRANCH  15  16
ENDBRANCH  14  15
ENDBRANCH  13  14
ENDBRANCH   1  13
TORSDOF 5
ENDMDL
MODEL 6
REMARK VINA RESULT:      -5.8      4.856      7.440
REMARK  Name = 
REMARK  5 active torsions:
REMARK  status: ('A' for Active; 'I' for Inactive)
REMARK    1  A    between atoms: C_2  and  C_3
REMARK    2  A    between atoms: C_3  and  C_4
REMARK    3  A    between atoms: C_4  and  C_5
REMARK    4  A    between atoms: C_5  and  C_6
REMARK    5  A    between atoms: C_6  and  N_7
REMARK                            x       y       z     vdW  Elec       q    Type
REMARK                         _______ _______ _______ _____ _____    ______ ____
ROOT
ATOM      1  N   UNL     1     -12.002  14.028  67.743  0.00  0.00    -0.186 NA
ATOM      2  C   UNL     1     -11.267  14.463  68.865  0.00  0.00    +0.343 C 
ATOM      3  N   UNL     1     -11.846  14.721  70.145  0.00  0.00    -0.208 N 
ATOM      4  C   UNL     1     -11.501  15.892  70.724  0.00  0.00    +0.360 A 
ATOM      5  O   UNL     1     -11.254  16.935  70.049  0.00  0.00    -0.244 OA
ATOM      6  N   UNL     1     -11.730  16.039  72.037  0.00  0.00    -0.151 NA
ATOM      7  C   UNL     1     -12.484  15.163  72.746  0.00  0.00    +0.312 A 
ATOM      8  O   UNL     1     -12.308  14.984  74.122  0.00  0.00    -0.263 OA
ATOM      9  C   UNL     1     -13.096  14.139  72.036  0.00  0.00    +0.215 A 
ATOM     10  F   UNL     1     -14.213  13.592  72.597  0.00  0.00    -0.197 F 
ATOM     11  C   UNL     1     -12.735  13.885  70.722  0.00  0.00    +0.123 A 
ATOM     12  O   UNL     1     -10.012  14.498  68.754  0.00  0.00    -0.247 OA
ENDROOT
BRANCH   1  13
ATOM     13  C   UNL     1     -11.556  14.408  66.423  0.00  0.00    +0.117 C 
BRANCH  13  14
ATOM     14  C   UNL     1     -12.528  13.979  65.345  0.00  0.00    +0.023 C 
BRANCH  14  15
ATOM     15  C   UNL     1     -12.409  12.519  65.000  0.00  0.00    +0.002 C 
BRANCH  15  16
ATOM     16  C   UNL     1     -12.025  12.400  63.532  0.00  0.00    +0.000 C 
BRANCH  16  18
ATOM     17  C   UNL     1     -10.391  10.999  64.778  0.00  0.00    +0.000 C 
ATOM     18  C   UNL     1     -10.792  11.516  63.422  0.00  0.00    +0.000 C 
ENDBRANCH  16  18
ENDBRANCH  15  16
ENDBRANCH  14  15
ENDBRANCH  13  14
ENDBRANCH   1  13
TORSDOF 5
ENDMDL
MODEL 7
REMARK VINA RESULT:      -5.8      4.747      6.693
REMARK  Name = 
REMARK  5 active torsions:
REMARK  status: ('A' for Active; 'I' for Inactive)
REMARK    1  A    between atoms: C_2  and  C_3
REMARK    2  A    between atoms: C_3  and  C_4
REMARK    3  A    between atoms: C_4  and  C_5
REMARK    4  A    between atoms: C_5  and  C_6
REMARK    5  A    between atoms: C_6  and  N_7
REMARK                            x       y       z     vdW  Elec       q    Type
REMARK                         _______ _______ _______ _____ _____    ______ ____
ROOT
ATOM      1  N   UNL     1     -11.440  16.367  68.601  0.00  0.00    -0.186 NA
ATOM      2  C   UNL     1     -10.089  16.557  68.246  0.00  0.00    +0.343 C 
ATOM      3  N   UNL     1      -9.598  17.721  67.579  0.00  0.00    -0.208 N 
ATOM      4  C   UNL     1      -8.802  17.498  66.510  0.00  0.00    +0.360 A 
ATOM      5  O   UNL     1      -8.949  16.493  65.753  0.00  0.00    -0.244 OA
ATOM      6  N   UNL     1      -8.051  18.514  66.060  0.00  0.00    -0.151 NA
ATOM      7  C   UNL     1      -8.222  19.789  66.484  0.00  0.00    +0.312 A 
ATOM      8  O   UNL     1      -7.180  20.721  66.461  0.00  0.00    -0.263 OA
ATOM      9  C   UNL     1      -9.281  20.028  67.350  0.00  0.00    +0.215 A 
ATOM     10  F   UNL     1      -9.773  21.301  67.375  0.00  0.00    -0.197 F 
ATOM     11  C   UNL     1      -9.952  18.971  67.945  0.00  0.00    +0.123 A 
ATOM     12  O   UNL     1      -9.258  15.705  68.659  0.00  0.00    -0.247 OA
ENDROOT
BRANCH   1  13
ATOM     13  C   UNL     1     -11.972  15.023  68.640  0.00  0.00    +0.117 C 
BRANCH  13  14
ATOM     14  C   UNL     1     -12.283  14.572  70.050  0.00  0.00    +0.023 C 
BRANCH  14  15
ATOM     15  C   UNL     1     -12.632  15.715  70.965  0.00  0.00    +0.002 C 
BRANCH  15  16
ATOM     16  C   UNL     1     -13.790  15.285  71.854  0.00  0.00    +0.000 C 
BRANCH  16  18
ATOM     17  C   UNL     1     -12.386  15.366  73.905  0.00  0.00    +0.000 C 
ATOM     18  C   UNL     1     -13.235  14.488  73.025  0.00  0.00    +0.000 C 
ENDBRANCH  16  18
ENDBRANCH  15  16
ENDBRANCH  14  15
ENDBRANCH  13  14
ENDBRANCH   1  13
TORSDOF 5
ENDMDL
MODEL 8
REMARK VINA RESULT:      -5.8      4.772      6.526
REMARK  Name = 
REMARK  5 active torsions:
REMARK  status: ('A' for Active; 'I' for Inactive)
REMARK    1  A    between atoms: C_2  and  C_3
REMARK    2  A    between atoms: C_3  and  C_4
REMARK    3  A    between atoms: C_4  and  C_5
REMARK    4  A    between atoms: C_5  and  C_6
REMARK    5  A    between atoms: C_6  and  N_7
REMARK                            x       y       z     vdW  Elec       q    Type
REMARK                         _______ _______ _______ _____ _____    ______ ____
ROOT
ATOM      1  N   UNL     1     -11.762  12.628  67.974  0.00  0.00    -0.186 NA
ATOM      2  C   UNL     1     -11.294  13.655  68.818  0.00  0.00    +0.343 C 
ATOM      3  N   UNL     1     -12.054  14.207  69.895  0.00  0.00    -0.208 N 
ATOM      4  C   UNL     1     -12.102  15.557  69.952  0.00  0.00    +0.360 A 
ATOM      5  O   UNL     1     -12.078  16.281  68.914  0.00  0.00    -0.244 OA
ATOM      6  N   UNL     1     -12.500  16.126  71.100  0.00  0.00    -0.151 NA
ATOM      7  C   UNL     1     -13.058  15.414  72.110  0.00  0.00    +0.312 A 
ATOM      8  O   UNL     1     -12.986  15.840  73.440  0.00  0.00    -0.263 OA
ATOM      9  C   UNL     1     -13.291  14.065  71.876  0.00  0.00    +0.215 A 
ATOM     10  F   UNL     1     -14.271  13.478  72.623  0.00  0.00    -0.197 F 
ATOM     11  C   UNL     1     -12.739  13.440  70.769  0.00  0.00    +0.123 A 
ATOM     12  O   UNL     1     -10.092  14.008  68.687  0.00  0.00    -0.247 OA
ENDROOT
BRANCH   1  13
ATOM     13  C   UNL     1     -11.299  12.580  66.606  0.00  0.00    +0.117 C 
BRANCH  13  14
ATOM     14  C   UNL     1     -12.343  13.081  65.631  0.00  0.00    +0.023 C 
BRANCH  14  15
ATOM     15  C   UNL     1     -11.837  14.195  64.755  0.00  0.00    +0.002 C 
BRANCH  15  16
ATOM     16  C   UNL     1     -10.382  14.464  65.109  0.00  0.00    +0.000 C 
BRANCH  16  18
ATOM     17  C   UNL     1      -8.882  16.155  66.148  0.00  0.00    +0.000 C 
ATOM     18  C   UNL     1     -10.252  15.907  65.573  0.00  0.00    +0.000 C 
ENDBRANCH  16  18
ENDBRANCH  15  16
ENDBRANCH  14  15
ENDBRANCH  13  14
ENDBRANCH   1  13
TORSDOF 5
ENDMDL
MODEL 9
REMARK VINA RESULT:      -5.6      4.279      7.568
REMARK  Name = 
REMARK  5 active torsions:
REMARK  status: ('A' for Active; 'I' for Inactive)
REMARK    1  A    between atoms: C_2  and  C_3
REMARK    2  A    between atoms: C_3  and  C_4
REMARK    3  A    between atoms: C_4  and  C_5
REMARK    4  A    between atoms: C_5  and  C_6
REMARK    5  A    between atoms: C_6  and  N_7
REMARK                            x       y       z     vdW  Elec       q    Type
REMARK                         _______ _______ _______ _____ _____    ______ ____
ROOT
ATOM      1  N   UNL     1      -9.938  10.838  66.008  0.00  0.00    -0.186 NA
ATOM      2  C   UNL     1     -10.501  11.543  64.924  0.00  0.00    +0.343 C 
ATOM      3  N   UNL     1     -10.896  12.914  64.987  0.00  0.00    -0.208 N 
ATOM      4  C   UNL     1     -12.128  13.196  64.506  0.00  0.00    +0.360 A 
ATOM      5  O   UNL     1     -13.091  12.377  64.586  0.00  0.00    -0.244 OA
ATOM      6  N   UNL     1     -12.418  14.475  64.226  0.00  0.00    -0.151 NA
ATOM      7  C   UNL     1     -11.621  15.503  64.609  0.00  0.00    +0.312 A 
ATOM      8  O   UNL     1     -11.598  16.716  63.915  0.00  0.00    -0.263 OA
ATOM      9  C   UNL     1     -10.520  15.188  65.393  0.00  0.00    +0.215 A 
ATOM     10  F   UNL     1     -10.030  16.185  66.185  0.00  0.00    -0.197 F 
ATOM     11  C   UNL     1     -10.123  13.868  65.547  0.00  0.00    +0.123 A 
ATOM     12  O   UNL     1     -10.533  10.957  63.809  0.00  0.00    -0.247 OA
ENDROOT
BRANCH   1  13
ATOM     13  C   UNL     1     -10.172   9.416  66.117  0.00  0.00    +0.117 C 
BRANCH  13  14
ATOM     14  C   UNL     1      -9.441   8.804  67.292  0.00  0.00    +0.023 C 
BRANCH  14  15
ATOM     15  C   UNL     1     -10.343   7.989  68.180  0.00  0.00    +0.002 C 
BRANCH  15  16
ATOM     16  C   UNL     1     -10.777   6.747  67.417  0.00  0.00    +0.000 C 
BRANCH  16  18
ATOM     17  C   UNL     1     -10.726   5.695  69.670  0.00  0.00    +0.000 C 
ATOM     18  C   UNL     1     -10.372   5.518  68.217  0.00  0.00    +0.000 C 
ENDBRANCH  16  18
ENDBRANCH  15  16
ENDBRANCH  14  15
ENDBRANCH  13  14
ENDBRANCH   1  13
TORSDOF 5
ENDMDL
