MODEL 1
REMARK VINA RESULT:      -7.3      0.000      0.000
REMARK  Name = 
REMARK  1 active torsions:
REMARK  status: ('A' for Active; 'I' for Inactive)
REMARK    1  A    between atoms: N_9  and  C_10
REMARK                            x       y       z     vdW  Elec       q    Type
REMARK                         _______ _______ _______ _____ _____    ______ ____
ROOT
ATOM      1  N   UNL     1     -11.031  16.339  69.795  0.00  0.00    -0.128 NA
ATOM      2  C   UNL     1     -10.436  16.953  68.669  0.00  0.00    +0.087 A 
ATOM      3  C   UNL     1     -10.521  16.353  67.422  0.00  0.00    +0.019 A 
ATOM      4  C   UNL     1     -10.694  14.937  66.997  0.00  0.00    +0.122 C 
ATOM      5  N   UNL     1     -11.214  14.992  65.643  0.00  0.00    -0.265 N 
ATOM      6  C   UNL     1     -10.971  16.338  65.211  0.00  0.00    +0.249 C 
ATOM      7  O   UNL     1     -11.309  16.759  64.077  0.00  0.00    -0.270 OA
ATOM      8  C   UNL     1     -10.478  17.164  66.300  0.00  0.00    +0.053 A 
ATOM      9  C   UNL     1      -9.811  18.385  66.370  0.00  0.00    +0.004 A 
ATOM     10  C   UNL     1      -9.260  18.753  67.591  0.00  0.00    +0.002 A 
ATOM     11  C   UNL     1      -9.840  18.206  68.721  0.00  0.00    +0.018 A 
ENDROOT
BRANCH   5  12
ATOM     12  C   UNL     1     -10.573  13.867  64.705  0.00  0.00    +0.155 C 
ATOM     13  C   UNL     1     -12.017  13.393  64.095  0.00  0.00    +0.266 C 
ATOM     14  O   UNL     1     -12.969  13.412  64.908  0.00  0.00    -0.271 OA
ATOM     15  N   UNL     1     -11.664  12.176  63.408  0.00  0.00    -0.143 NA
ATOM     16  C   UNL     1     -10.406  11.539  63.692  0.00  0.00    +0.248 C 
ATOM     17  O   UNL     1      -9.568  11.272  62.778  0.00  0.00    -0.273 OA
ATOM     18  C   UNL     1     -10.043  11.518  65.143  0.00  0.00    +0.089 C 
ATOM     19  C   UNL     1     -10.651  12.699  65.891  0.00  0.00    +0.039 C 
ENDBRANCH   5  12
TORSDOF 1
ENDMDL
MODEL 2
REMARK VINA RESULT:      -7.1      2.299      3.022
REMARK  Name = 
REMARK  1 active torsions:
REMARK  status: ('A' for Active; 'I' for Inactive)
REMARK    1  A    between atoms: N_9  and  C_10
REMARK                            x       y       z     vdW  Elec       q    Type
REMARK                         _______ _______ _______ _____ _____    ______ ____
ROOT
ATOM      1  N   UNL     1      -6.837  18.142  66.218  0.00  0.00    -0.128 NA
ATOM      2  C   UNL     1      -8.150  18.555  66.545  0.00  0.00    +0.087 A 
ATOM      3  C   UNL     1      -9.160  17.617  66.689  0.00  0.00    +0.019 A 
ATOM      4  C   UNL     1      -9.354  16.253  66.125  0.00  0.00    +0.122 C 
ATOM      5  N   UNL     1     -10.294  15.590  67.011  0.00  0.00    -0.265 N 
ATOM      6  C   UNL     1     -10.880  16.647  67.782  0.00  0.00    +0.249 C 
ATOM      7  O   UNL     1     -11.739  16.443  68.675  0.00  0.00    -0.270 OA
ATOM      8  C   UNL     1     -10.218  17.917  67.531  0.00  0.00    +0.053 A 
ATOM      9  C   UNL     1     -10.557  19.250  67.746  0.00  0.00    +0.004 A 
ATOM     10  C   UNL     1      -9.778  20.224  67.135  0.00  0.00    +0.002 A 
ATOM     11  C   UNL     1      -8.474  19.874  66.836  0.00  0.00    +0.018 A 
ENDROOT
BRANCH   5  12
ATOM     12  C   UNL     1     -11.347  14.691  66.209  0.00  0.00    +0.155 C 
ATOM     13  C   UNL     1     -11.178  13.404  67.207  0.00  0.00    +0.266 C 
ATOM     14  O   UNL     1     -10.018  13.214  67.637  0.00  0.00    -0.271 OA
ATOM     15  N   UNL     1     -11.868  12.370  66.476  0.00  0.00    -0.143 NA
ATOM     16  C   UNL     1     -12.163  12.562  65.082  0.00  0.00    +0.248 C 
ATOM     17  O   UNL     1     -13.342  12.464  64.625  0.00  0.00    -0.273 OA
ATOM     18  C   UNL     1     -11.051  13.188  64.300  0.00  0.00    +0.089 C 
ATOM     19  C   UNL     1     -10.187  14.087  65.176  0.00  0.00    +0.039 C 
ENDBRANCH   5  12
TORSDOF 1
ENDMDL
MODEL 3
REMARK VINA RESULT:      -7.0      3.450      4.755
REMARK  Name = 
REMARK  1 active torsions:
REMARK  status: ('A' for Active; 'I' for Inactive)
REMARK    1  A    between atoms: N_9  and  C_10
REMARK                            x       y       z     vdW  Elec       q    Type
REMARK                         _______ _______ _______ _____ _____    ______ ____
ROOT
ATOM      1  N   UNL     1     -11.691  16.209  71.316  0.00  0.00    -0.128 NA
ATOM      2  C   UNL     1     -12.319  14.942  71.294  0.00  0.00    +0.087 A 
ATOM      3  C   UNL     1     -12.174  14.111  70.194  0.00  0.00    +0.019 A 
ATOM      4  C   UNL     1     -11.887  14.384  68.758  0.00  0.00    +0.122 C 
ATOM      5  N   UNL     1     -11.357  13.144  68.220  0.00  0.00    -0.265 N 
ATOM      6  C   UNL     1     -11.698  12.146  69.192  0.00  0.00    +0.249 C 
ATOM      7  O   UNL     1     -11.381  10.938  69.065  0.00  0.00    -0.270 OA
ATOM      8  C   UNL     1     -12.266  12.743  70.388  0.00  0.00    +0.053 A 
ATOM      9  C   UNL     1     -13.026  12.259  71.451  0.00  0.00    +0.004 A 
ATOM     10  C   UNL     1     -13.618  13.185  72.299  0.00  0.00    +0.002 A 
ATOM     11  C   UNL     1     -13.010  14.425  72.381  0.00  0.00    +0.018 A 
ENDROOT
BRANCH   5  12
ATOM     12  C   UNL     1     -11.898  12.848  66.745  0.00  0.00    +0.155 C 
ATOM     13  C   UNL     1     -10.407  12.553  66.135  0.00  0.00    +0.266 C 
ATOM     14  O   UNL     1      -9.492  13.268  66.601  0.00  0.00    -0.271 OA
ATOM     15  N   UNL     1     -10.667  12.524  64.717  0.00  0.00    -0.143 NA
ATOM     16  C   UNL     1     -11.900  13.063  64.210  0.00  0.00    +0.248 C 
ATOM     17  O   UNL     1     -12.685  12.378  63.486  0.00  0.00    -0.273 OA
ATOM     18  C   UNL     1     -12.320  14.346  64.855  0.00  0.00    +0.089 C 
ATOM     19  C   UNL     1     -11.807  14.448  66.288  0.00  0.00    +0.039 C 
ENDBRANCH   5  12
TORSDOF 1
ENDMDL
MODEL 4
REMARK VINA RESULT:      -6.6      2.863      6.229
REMARK  Name = 
REMARK  1 active torsions:
REMARK  status: ('A' for Active; 'I' for Inactive)
REMARK    1  A    between atoms: N_9  and  C_10
REMARK                            x       y       z     vdW  Elec       q    Type
REMARK                         _______ _______ _______ _____ _____    ______ ____
ROOT
ATOM      1  N   UNL     1     -12.448  14.749  63.906  0.00  0.00    -0.128 NA
ATOM      2  C   UNL     1     -11.999  14.064  65.060  0.00  0.00    +0.087 A 
ATOM      3  C   UNL     1     -11.380  14.759  66.086  0.00  0.00    +0.019 A 
ATOM      4  C   UNL     1     -10.614  16.036  66.118  0.00  0.00    +0.122 C 
ATOM      5  N   UNL     1     -10.668  16.494  67.495  0.00  0.00    -0.265 N 
ATOM      6  C   UNL     1     -11.096  15.349  68.246  0.00  0.00    +0.249 C 
ATOM      7  O   UNL     1     -11.270  15.379  69.489  0.00  0.00    -0.270 OA
ATOM      8  C   UNL     1     -11.474  14.252  67.372  0.00  0.00    +0.053 A 
ATOM      9  C   UNL     1     -11.644  12.881  67.549  0.00  0.00    +0.004 A 
ATOM     10  C   UNL     1     -11.762  12.090  66.413  0.00  0.00    +0.002 A 
ATOM     11  C   UNL     1     -12.237  12.713  65.273  0.00  0.00    +0.018 A 
ENDROOT
BRANCH   5  12
ATOM     12  C   UNL     1      -9.278  17.122  67.975  0.00  0.00    +0.155 C 
ATOM     13  C   UNL     1      -9.951  18.540  68.442  0.00  0.00    +0.266 C 
ATOM     14  O   UNL     1     -10.888  18.946  67.719  0.00  0.00    -0.271 OA
ATOM     15  N   UNL     1      -8.787  19.361  68.666  0.00  0.00    -0.143 NA
ATOM     16  C   UNL     1      -7.515  18.948  68.138  0.00  0.00    +0.248 C 
ATOM     17  O   UNL     1      -6.491  18.819  68.877  0.00  0.00    -0.273 OA
ATOM     18  C   UNL     1      -7.578  18.389  66.752  0.00  0.00    +0.089 C 
ATOM     19  C   UNL     1      -8.929  17.743  66.469  0.00  0.00    +0.039 C 
ENDBRANCH   5  12
TORSDOF 1
ENDMDL
MODEL 5
REMARK VINA RESULT:      -6.5      3.379      5.504
REMARK  Name = 
REMARK  1 active torsions:
REMARK  status: ('A' for Active; 'I' for Inactive)
REMARK    1  A    between atoms: N_9  and  C_10
REMARK                            x       y       z     vdW  Elec       q    Type
REMARK                         _______ _______ _______ _____ _____    ______ ____
ROOT
ATOM      1  N   UNL     1     -11.859  16.571  73.214  0.00  0.00    -0.128 NA
ATOM      2  C   UNL     1     -12.365  15.488  72.459  0.00  0.00    +0.087 A 
ATOM      3  C   UNL     1     -11.961  15.304  71.146  0.00  0.00    +0.019 A 
ATOM      4  C   UNL     1     -11.451  16.244  70.110  0.00  0.00    +0.122 C 
ATOM      5  N   UNL     1     -10.733  15.423  69.152  0.00  0.00    -0.265 N 
ATOM      6  C   UNL     1     -11.155  14.081  69.429  0.00  0.00    +0.249 C 
ATOM      7  O   UNL     1     -10.721  13.087  68.796  0.00  0.00    -0.270 OA
ATOM      8  C   UNL     1     -11.972  14.019  70.630  0.00  0.00    +0.053 A 
ATOM      9  C   UNL     1     -12.863  13.085  71.154  0.00  0.00    +0.004 A 
ATOM     10  C   UNL     1     -13.669  13.482  72.212  0.00  0.00    +0.002 A 
ATOM     11  C   UNL     1     -13.191  14.512  73.002  0.00  0.00    +0.018 A 
ENDROOT
BRANCH   5  12
ATOM     12  C   UNL     1     -10.981  15.899  67.645  0.00  0.00    +0.155 C 
ATOM     13  C   UNL     1      -9.469  15.508  67.154  0.00  0.00    +0.266 C 
ATOM     14  O   UNL     1      -8.567  15.715  67.997  0.00  0.00    -0.271 OA
ATOM     15  N   UNL     1      -9.412  16.124  65.851  0.00  0.00    -0.143 NA
ATOM     16  C   UNL     1     -10.388  17.117  65.492  0.00  0.00    +0.248 C 
ATOM     17  O   UNL     1     -11.103  17.008  64.450  0.00  0.00    -0.273 OA
ATOM     18  C   UNL     1     -10.707  18.088  66.585  0.00  0.00    +0.089 C 
ATOM     19  C   UNL     1     -10.511  17.466  67.963  0.00  0.00    +0.039 C 
ENDBRANCH   5  12
TORSDOF 1
ENDMDL
MODEL 6
REMARK VINA RESULT:      -6.4      2.814      5.682
REMARK  Name = 
REMARK  1 active torsions:
REMARK  status: ('A' for Active; 'I' for Inactive)
REMARK    1  A    between atoms: N_9  and  C_10
REMARK                            x       y       z     vdW  Elec       q    Type
REMARK                         _______ _______ _______ _____ _____    ______ ____
ROOT
ATOM      1  N   UNL     1     -11.345  11.811  65.643  0.00  0.00    -0.128 NA
ATOM      2  C   UNL     1     -11.320  12.232  66.993  0.00  0.00    +0.087 A 
ATOM      3  C   UNL     1     -11.036  13.552  67.306  0.00  0.00    +0.019 A 
ATOM      4  C   UNL     1     -10.268  14.612  66.596  0.00  0.00    +0.122 C 
ATOM      5  N   UNL     1     -10.742  15.872  67.138  0.00  0.00    -0.265 N 
ATOM      6  C   UNL     1     -11.437  15.517  68.341  0.00  0.00    +0.249 C 
ATOM      7  O   UNL     1     -12.001  16.364  69.076  0.00  0.00    -0.270 OA
ATOM      8  C   UNL     1     -11.559  14.076  68.477  0.00  0.00    +0.053 A 
ATOM      9  C   UNL     1     -11.835  13.218  69.539  0.00  0.00    +0.004 A 
ATOM     10  C   UNL     1     -11.614  11.860  69.350  0.00  0.00    +0.002 A 
ATOM     11  C   UNL     1     -11.670  11.400  68.047  0.00  0.00    +0.018 A 
ENDROOT
BRANCH   5  12
ATOM     12  C   UNL     1      -9.556  16.925  67.342  0.00  0.00    +0.155 C 
ATOM     13  C   UNL     1     -10.160  17.987  66.251  0.00  0.00    +0.266 C 
ATOM     14  O   UNL     1     -10.703  17.469  65.250  0.00  0.00    -0.271 OA
ATOM     15  N   UNL     1      -9.062  18.909  66.096  0.00  0.00    -0.143 NA
ATOM     16  C   UNL     1      -7.751  18.535  66.555  0.00  0.00    +0.248 C 
ATOM     17  O   UNL     1      -7.097  19.251  67.373  0.00  0.00    -0.273 OA
ATOM     18  C   UNL     1      -7.374  17.120  66.250  0.00  0.00    +0.089 C 
ATOM     19  C   UNL     1      -8.600  16.217  66.176  0.00  0.00    +0.039 C 
ENDBRANCH   5  12
TORSDOF 1
ENDMDL
MODEL 7
REMARK VINA RESULT:      -6.4      3.653      4.420
REMARK  Name = 
REMARK  1 active torsions:
REMARK  status: ('A' for Active; 'I' for Inactive)
REMARK    1  A    between atoms: N_9  and  C_10
REMARK                            x       y       z     vdW  Elec       q    Type
REMARK                         _______ _______ _______ _____ _____    ______ ____
ROOT
ATOM      1  N   UNL     1     -14.298  13.124  72.500  0.00  0.00    -0.128 NA
ATOM      2  C   UNL     1     -13.291  14.100  72.319  0.00  0.00    +0.087 A 
ATOM      3  C   UNL     1     -12.525  14.107  71.164  0.00  0.00    +0.019 A 
ATOM      4  C   UNL     1     -12.150  13.036  70.200  0.00  0.00    +0.122 C 
ATOM      5  N   UNL     1     -11.792  13.720  68.971  0.00  0.00    -0.265 N 
ATOM      6  C   UNL     1     -11.604  15.089  69.353  0.00  0.00    +0.249 C 
ATOM      7  O   UNL     1     -11.297  15.988  68.533  0.00  0.00    -0.270 OA
ATOM      8  C   UNL     1     -11.996  15.313  70.734  0.00  0.00    +0.053 A 
ATOM      9  C   UNL     1     -11.738  16.312  71.670  0.00  0.00    +0.004 A 
ATOM     10  C   UNL     1     -12.074  16.062  72.994  0.00  0.00    +0.002 A 
ATOM     11  C   UNL     1     -13.084  15.143  73.213  0.00  0.00    +0.018 A 
ENDROOT
BRANCH   5  12
ATOM     12  C   UNL     1     -10.529  13.050  68.254  0.00  0.00    +0.155 C 
ATOM     13  C   UNL     1     -11.202  13.110  66.762  0.00  0.00    +0.266 C 
ATOM     14  O   UNL     1     -12.435  12.903  66.727  0.00  0.00    -0.271 OA
ATOM     15  N   UNL     1     -10.297  12.289  65.996  0.00  0.00    -0.143 NA
ATOM     16  C   UNL     1      -9.377  11.419  66.678  0.00  0.00    +0.248 C 
ATOM     17  O   UNL     1      -8.127  11.468  66.470  0.00  0.00    -0.273 OA
ATOM     18  C   UNL     1      -9.966  10.703  67.852  0.00  0.00    +0.089 C 
ATOM     19  C   UNL     1     -11.098  11.502  68.487  0.00  0.00    +0.039 C 
ENDBRANCH   5  12
TORSDOF 1
ENDMDL
MODEL 8
REMARK VINA RESULT:      -6.4      2.455      3.076
REMARK  Name = 
REMARK  1 active torsions:
REMARK  status: ('A' for Active; 'I' for Inactive)
REMARK    1  A    between atoms: N_9  and  C_10
REMARK                            x       y       z     vdW  Elec       q    Type
REMARK                         _______ _______ _______ _____ _____    ______ ____
ROOT
ATOM      1  N   UNL     1      -6.328  16.556  68.577  0.00  0.00    -0.128 NA
ATOM      2  C   UNL     1      -7.519  17.300  68.411  0.00  0.00    +0.087 A 
ATOM      3  C   UNL     1      -8.722  16.649  68.184  0.00  0.00    +0.019 A 
ATOM      4  C   UNL     1      -9.051  15.325  67.588  0.00  0.00    +0.122 C 
ATOM      5  N   UNL     1     -10.377  14.991  68.079  0.00  0.00    -0.265 N 
ATOM      6  C   UNL     1     -10.901  16.225  68.589  0.00  0.00    +0.249 C 
ATOM      7  O   UNL     1     -12.038  16.315  69.114  0.00  0.00    -0.270 OA
ATOM      8  C   UNL     1      -9.891  17.270  68.591  0.00  0.00    +0.053 A 
ATOM      9  C   UNL     1      -9.929  18.660  68.669  0.00  0.00    +0.004 A 
ATOM     10  C   UNL     1      -8.764  19.358  68.378  0.00  0.00    +0.002 A 
ATOM     11  C   UNL     1      -7.574  18.679  68.566  0.00  0.00    +0.018 A 
ENDROOT
BRANCH   5  12
ATOM     12  C   UNL     1     -11.279  14.301  66.953  0.00  0.00    +0.155 C 
ATOM     13  C   UNL     1     -11.471  12.912  67.800  0.00  0.00    +0.266 C 
ATOM     14  O   UNL     1     -10.470  12.550  68.459  0.00  0.00    -0.271 OA
ATOM     15  N   UNL     1     -12.053  12.040  66.810  0.00  0.00    -0.143 NA
ATOM     16  C   UNL     1     -11.984  12.398  65.419  0.00  0.00    +0.248 C 
ATOM     17  O   UNL     1     -13.022  12.480  64.695  0.00  0.00    -0.273 OA
ATOM     18  C   UNL     1     -10.666  12.965  64.996  0.00  0.00    +0.089 C 
ATOM     19  C   UNL     1      -9.962  13.671  66.150  0.00  0.00    +0.039 C 
ENDBRANCH   5  12
TORSDOF 1
ENDMDL
MODEL 9
REMARK VINA RESULT:      -6.3      2.376      6.013
REMARK  Name = 
REMARK  1 active torsions:
REMARK  status: ('A' for Active; 'I' for Inactive)
REMARK    1  A    between atoms: N_9  and  C_10
REMARK                            x       y       z     vdW  Elec       q    Type
REMARK                         _______ _______ _______ _____ _____    ______ ____
ROOT
ATOM      1  N   UNL     1      -9.049  11.723  65.645  0.00  0.00    -0.128 NA
ATOM      2  C   UNL     1     -10.259  12.423  65.434  0.00  0.00    +0.087 A 
ATOM      3  C   UNL     1     -10.309  13.797  65.604  0.00  0.00    +0.019 A 
ATOM      4  C   UNL     1      -9.501  14.739  66.427  0.00  0.00    +0.122 C 
ATOM      5  N   UNL     1      -9.673  16.044  65.815  0.00  0.00    -0.265 N 
ATOM      6  C   UNL     1     -10.810  15.899  64.953  0.00  0.00    +0.249 C 
ATOM      7  O   UNL     1     -11.247  16.836  64.241  0.00  0.00    -0.270 OA
ATOM      8  C   UNL     1     -11.245  14.515  64.876  0.00  0.00    +0.053 A 
ATOM      9  C   UNL     1     -12.419  13.884  64.473  0.00  0.00    +0.004 A 
ATOM     10  C   UNL     1     -12.572  12.539  64.783  0.00  0.00    +0.002 A 
ATOM     11  C   UNL     1     -11.410  11.809  64.957  0.00  0.00    +0.018 A 
ENDROOT
BRANCH   5  12
ATOM     12  C   UNL     1      -9.809  17.207  66.904  0.00  0.00    +0.155 C 
ATOM     13  C   UNL     1      -8.710  18.175  66.171  0.00  0.00    +0.266 C 
ATOM     14  O   UNL     1      -7.741  17.579  65.648  0.00  0.00    -0.271 OA
ATOM     15  N   UNL     1      -8.493  19.189  67.174  0.00  0.00    -0.143 NA
ATOM     16  C   UNL     1      -8.918  18.952  68.527  0.00  0.00    +0.248 C 
ATOM     17  O   UNL     1      -9.695  19.749  69.136  0.00  0.00    -0.273 OA
ATOM     18  C   UNL     1      -8.640  17.568  69.024  0.00  0.00    +0.089 C 
ATOM     19  C   UNL     1      -8.631  16.554  67.886  0.00  0.00    +0.039 C 
ENDBRANCH   5  12
TORSDOF 1
ENDMDL
