MODEL 1
REMARK VINA RESULT:      -7.2      0.000      0.000
REMARK  Name = 
REMARK  1 active torsions:
REMARK  status: ('A' for Active; 'I' for Inactive)
REMARK    1  A    between atoms: C_11  and  C_12
REMARK                            x       y       z     vdW  Elec       q    Type
REMARK                         _______ _______ _______ _____ _____    ______ ____
ROOT
ATOM      1  O   UNL     1     -10.292  18.120  67.711  0.00  0.00    -0.268 OA
ATOM      2  C   UNL     1     -10.810  17.349  67.632  0.00  0.00    +0.300 C 
ATOM      3  C   UNL     1      -9.900  16.519  66.552  0.00  0.00    +0.333 C 
ATOM      4  O   UNL     1     -10.272  17.479  65.415  0.00  0.00    -0.186 OA
ATOM      5  N   UNL     1     -11.070  15.490  66.179  0.00  0.00    -0.233 NA
ATOM      6  C   UNL     1     -10.952  14.371  66.847  0.00  0.00    +0.080 C 
ATOM      7  C   UNL     1     -11.274  14.262  68.286  0.00  0.00    +0.034 A 
ATOM      8  C   UNL     1     -11.480  15.318  69.169  0.00  0.00    +0.075 A 
ATOM      9  C   UNL     1     -12.319  15.214  70.278  0.00  0.00    +0.018 A 
ATOM     10  C   UNL     1     -12.486  13.927  70.770  0.00  0.00    +0.013 A 
ATOM     11  C   UNL     1     -12.000  12.850  70.037  0.00  0.00    +0.058 A 
ATOM     12 CL   UNL     1     -12.326  11.248  70.694  0.00  0.00    -0.082 Cl
ATOM     13  C   UNL     1     -11.655  13.027  68.702  0.00  0.00    +0.014 A 
ATOM     14  N   UNL     1     -11.266  16.687  68.803  0.00  0.00    -0.175 NA
ENDROOT
BRANCH   6  15
ATOM     15  C   UNL     1     -11.221  13.103  66.159  0.00  0.00    +0.017 A 
ATOM     16  C   UNL     1     -12.357  12.954  65.393  0.00  0.00    +0.001 A 
ATOM     17  C   UNL     1     -12.353  12.326  64.180  0.00  0.00    +0.000 A 
ATOM     18  C   UNL     1     -11.208  11.662  63.829  0.00  0.00    +0.000 A 
ATOM     19  C   UNL     1     -10.167  11.504  64.728  0.00  0.00    +0.000 A 
ATOM     20  C   UNL     1     -10.147  12.300  65.865  0.00  0.00    +0.001 A 
ENDBRANCH   6  15
TORSDOF 1
ENDMDL
MODEL 2
REMARK VINA RESULT:      -6.9      3.192      4.473
REMARK  Name = 
REMARK  1 active torsions:
REMARK  status: ('A' for Active; 'I' for Inactive)
REMARK    1  A    between atoms: C_11  and  C_12
REMARK                            x       y       z     vdW  Elec       q    Type
REMARK                         _______ _______ _______ _____ _____    ______ ____
ROOT
ATOM      1  O   UNL     1     -13.743  14.328  72.867  0.00  0.00    -0.268 OA
ATOM      2  C   UNL     1     -13.621  13.815  72.098  0.00  0.00    +0.300 C 
ATOM      3  C   UNL     1     -12.408  14.663  71.395  0.00  0.00    +0.333 C 
ATOM      4  O   UNL     1     -13.342  15.834  71.063  0.00  0.00    -0.186 OA
ATOM      5  N   UNL     1     -12.608  13.985  69.958  0.00  0.00    -0.233 NA
ATOM      6  C   UNL     1     -11.767  13.000  69.773  0.00  0.00    +0.080 C 
ATOM      7  C   UNL     1     -11.912  11.690  70.444  0.00  0.00    +0.034 A 
ATOM      8  C   UNL     1     -12.752  11.399  71.516  0.00  0.00    +0.075 A 
ATOM      9  C   UNL     1     -13.292  10.130  71.720  0.00  0.00    +0.018 A 
ATOM     10  C   UNL     1     -12.556   9.084  71.182  0.00  0.00    +0.013 A 
ATOM     11  C   UNL     1     -11.490   9.367  70.335  0.00  0.00    +0.058 A 
ATOM     12 CL   UNL     1     -10.662   7.980  69.632  0.00  0.00    -0.082 Cl
ATOM     13  C   UNL     1     -11.372  10.637  69.781  0.00  0.00    +0.014 A 
ATOM     14  N   UNL     1     -13.504  12.404  72.206  0.00  0.00    -0.175 NA
ENDROOT
BRANCH   6  15
ATOM     15  C   UNL     1     -11.139  12.840  68.457  0.00  0.00    +0.017 A 
ATOM     16  C   UNL     1     -11.917  12.715  67.325  0.00  0.00    +0.001 A 
ATOM     17  C   UNL     1     -11.621  13.349  66.152  0.00  0.00    +0.000 A 
ATOM     18  C   UNL     1     -10.401  13.964  66.070  0.00  0.00    +0.000 A 
ATOM     19  C   UNL     1      -9.454  13.815  67.070  0.00  0.00    +0.000 A 
ATOM     20  C   UNL     1      -9.863  13.319  68.300  0.00  0.00    +0.001 A 
ENDBRANCH   6  15
TORSDOF 1
ENDMDL
MODEL 3
REMARK VINA RESULT:      -6.9      2.397      4.795
REMARK  Name = 
REMARK  1 active torsions:
REMARK  status: ('A' for Active; 'I' for Inactive)
REMARK    1  A    between atoms: C_11  and  C_12
REMARK                            x       y       z     vdW  Elec       q    Type
REMARK                         _______ _______ _______ _____ _____    ______ ____
ROOT
ATOM      1  O   UNL     1     -12.155  12.772  65.761  0.00  0.00    -0.268 OA
ATOM      2  C   UNL     1     -11.662  13.223  66.412  0.00  0.00    +0.300 C 
ATOM      3  C   UNL     1     -11.598  14.708  65.724  0.00  0.00    +0.333 C 
ATOM      4  O   UNL     1     -10.640  14.222  64.630  0.00  0.00    -0.186 OA
ATOM      5  N   UNL     1     -10.404  15.220  66.661  0.00  0.00    -0.233 NA
ATOM      6  C   UNL     1     -10.855  15.919  67.671  0.00  0.00    +0.080 C 
ATOM      7  C   UNL     1     -11.539  15.301  68.828  0.00  0.00    +0.034 A 
ATOM      8  C   UNL     1     -12.023  13.998  68.902  0.00  0.00    +0.075 A 
ATOM      9  C   UNL     1     -12.100  13.296  70.105  0.00  0.00    +0.018 A 
ATOM     10  C   UNL     1     -12.211  14.085  71.240  0.00  0.00    +0.013 A 
ATOM     11  C   UNL     1     -12.036  15.461  71.133  0.00  0.00    +0.058 A 
ATOM     12 CL   UNL     1     -12.113  16.377  72.636  0.00  0.00    -0.082 Cl
ATOM     13  C   UNL     1     -11.442  15.990  69.993  0.00  0.00    +0.014 A 
ATOM     14  N   UNL     1     -12.035  13.110  67.778  0.00  0.00    -0.175 NA
ENDROOT
BRANCH   6  15
ATOM     15  C   UNL     1     -10.125  17.123  68.084  0.00  0.00    +0.017 A 
ATOM     16  C   UNL     1      -8.808  17.035  68.484  0.00  0.00    +0.001 A 
ATOM     17  C   UNL     1      -7.859  17.942  68.106  0.00  0.00    +0.000 A 
ATOM     18  C   UNL     1      -8.300  19.072  67.471  0.00  0.00    +0.000 A 
ATOM     19  C   UNL     1      -9.652  19.350  67.359  0.00  0.00    +0.000 A 
ATOM     20  C   UNL     1     -10.561  18.328  67.596  0.00  0.00    +0.001 A 
ENDBRANCH   6  15
TORSDOF 1
ENDMDL
MODEL 4
REMARK VINA RESULT:      -6.7      2.270      5.344
REMARK  Name = 
REMARK  1 active torsions:
REMARK  status: ('A' for Active; 'I' for Inactive)
REMARK    1  A    between atoms: C_11  and  C_12
REMARK                            x       y       z     vdW  Elec       q    Type
REMARK                         _______ _______ _______ _____ _____    ______ ____
ROOT
ATOM      1  O   UNL     1     -10.551  13.942  66.105  0.00  0.00    -0.268 OA
ATOM      2  C   UNL     1     -10.526  13.755  67.019  0.00  0.00    +0.300 C 
ATOM      3  C   UNL     1     -11.697  14.775  67.539  0.00  0.00    +0.333 C 
ATOM      4  O   UNL     1     -10.825  16.007  67.264  0.00  0.00    -0.186 OA
ATOM      5  N   UNL     1     -11.248  14.695  69.075  0.00  0.00    -0.233 NA
ATOM      6  C   UNL     1     -11.973  13.833  69.740  0.00  0.00    +0.080 C 
ATOM      7  C   UNL     1     -11.815  12.371  69.586  0.00  0.00    +0.034 A 
ATOM      8  C   UNL     1     -11.108  11.717  68.580  0.00  0.00    +0.075 A 
ATOM      9  C   UNL     1     -10.499  10.478  68.778  0.00  0.00    +0.018 A 
ATOM     10  C   UNL     1     -11.067   9.695  69.773  0.00  0.00    +0.013 A 
ATOM     11  C   UNL     1     -12.028  10.251  70.611  0.00  0.00    +0.058 A 
ATOM     12 CL   UNL     1     -12.637   9.213  71.897  0.00  0.00    -0.082 Cl
ATOM     13  C   UNL     1     -12.172  11.633  70.668  0.00  0.00    +0.014 A 
ATOM     14  N   UNL     1     -10.541  12.405  67.459  0.00  0.00    -0.175 NA
ENDROOT
BRANCH   6  15
ATOM     15  C   UNL     1     -12.401  14.167  71.103  0.00  0.00    +0.017 A 
ATOM     16  C   UNL     1     -11.599  14.941  71.914  0.00  0.00    +0.001 A 
ATOM     17  C   UNL     1     -12.094  15.934  72.711  0.00  0.00    +0.000 A 
ATOM     18  C   UNL     1     -13.455  16.010  72.834  0.00  0.00    +0.000 A 
ATOM     19  C   UNL     1     -14.278  15.031  72.303  0.00  0.00    +0.000 A 
ATOM     20  C   UNL     1     -13.748  14.155  71.367  0.00  0.00    +0.001 A 
ENDBRANCH   6  15
TORSDOF 1
ENDMDL
MODEL 5
REMARK VINA RESULT:      -6.7      2.885      4.628
REMARK  Name = 
REMARK  1 active torsions:
REMARK  status: ('A' for Active; 'I' for Inactive)
REMARK    1  A    between atoms: C_11  and  C_12
REMARK                            x       y       z     vdW  Elec       q    Type
REMARK                         _______ _______ _______ _____ _____    ______ ____
ROOT
ATOM      1  O   UNL     1     -12.437  14.074  63.495  0.00  0.00    -0.268 OA
ATOM      2  C   UNL     1     -12.281  14.173  64.409  0.00  0.00    +0.300 C 
ATOM      3  C   UNL     1     -11.941  12.618  64.797  0.00  0.00    +0.333 C 
ATOM      4  O   UNL     1     -13.398  12.187  64.590  0.00  0.00    -0.186 OA
ATOM      5  N   UNL     1     -12.141  12.842  66.371  0.00  0.00    -0.233 NA
ATOM      6  C   UNL     1     -10.997  13.041  66.974  0.00  0.00    +0.080 C 
ATOM      7  C   UNL     1     -10.243  14.307  66.859  0.00  0.00    +0.034 A 
ATOM      8  C   UNL     1     -10.473  15.326  65.937  0.00  0.00    +0.075 A 
ATOM      9  C   UNL     1     -10.187  16.663  66.212  0.00  0.00    +0.018 A 
ATOM     10  C   UNL     1      -9.193  16.869  67.158  0.00  0.00    +0.013 A 
ATOM     11  C   UNL     1      -8.715  15.787  67.889  0.00  0.00    +0.058 A 
ATOM     12 CL   UNL     1      -7.513  16.151  69.125  0.00  0.00    -0.082 Cl
ATOM     13  C   UNL     1      -9.437  14.600  67.911  0.00  0.00    +0.014 A 
ATOM     14  N   UNL     1     -11.417  15.203  64.866  0.00  0.00    -0.175 NA
ENDROOT
BRANCH   6  15
ATOM     15  C   UNL     1     -10.769  12.420  68.284  0.00  0.00    +0.017 A 
ATOM     16  C   UNL     1     -11.687  12.580  69.299  0.00  0.00    +0.001 A 
ATOM     17  C   UNL     1     -12.062  11.557  70.124  0.00  0.00    +0.000 A 
ATOM     18  C   UNL     1     -11.340  10.397  70.040  0.00  0.00    +0.000 A 
ATOM     19  C   UNL     1     -10.191  10.322  69.271  0.00  0.00    +0.000 A 
ATOM     20  C   UNL     1      -9.958  11.314  68.329  0.00  0.00    +0.001 A 
ENDBRANCH   6  15
TORSDOF 1
ENDMDL
MODEL 6
REMARK VINA RESULT:      -6.4      2.336      5.040
REMARK  Name = 
REMARK  1 active torsions:
REMARK  status: ('A' for Active; 'I' for Inactive)
REMARK    1  A    between atoms: C_11  and  C_12
REMARK                            x       y       z     vdW  Elec       q    Type
REMARK                         _______ _______ _______ _____ _____    ______ ____
ROOT
ATOM      1  O   UNL     1     -12.494  13.000  63.241  0.00  0.00    -0.268 OA
ATOM      2  C   UNL     1     -11.908  13.026  63.965  0.00  0.00    +0.300 C 
ATOM      3  C   UNL     1     -12.783  13.955  64.992  0.00  0.00    +0.333 C 
ATOM      4  O   UNL     1     -12.563  15.208  64.134  0.00  0.00    -0.186 OA
ATOM      5  N   UNL     1     -11.538  14.285  65.944  0.00  0.00    -0.233 NA
ATOM      6  C   UNL     1     -11.513  13.495  66.987  0.00  0.00    +0.080 C 
ATOM      7  C   UNL     1     -11.113  12.074  66.904  0.00  0.00    +0.034 A 
ATOM      8  C   UNL     1     -10.968  11.323  65.741  0.00  0.00    +0.075 A 
ATOM      9  C   UNL     1     -10.070  10.261  65.642  0.00  0.00    +0.018 A 
ATOM     10  C   UNL     1      -9.754   9.645  66.844  0.00  0.00    +0.013 A 
ATOM     11  C   UNL     1     -10.168  10.228  68.038  0.00  0.00    +0.058 A 
ATOM     12 CL   UNL     1      -9.655   9.424  69.519  0.00  0.00    -0.082 Cl
ATOM     13  C   UNL     1     -10.593  11.551  68.043  0.00  0.00    +0.014 A 
ATOM     14  N   UNL     1     -11.333  11.820  64.447  0.00  0.00    -0.175 NA
ENDROOT
BRANCH   6  15
ATOM     15  C   UNL     1     -11.156  14.058  68.294  0.00  0.00    +0.017 A 
ATOM     16  C   UNL     1     -10.060  14.885  68.420  0.00  0.00    +0.001 A 
ATOM     17  C   UNL     1     -10.073  16.018  69.182  0.00  0.00    +0.000 A 
ATOM     18  C   UNL     1     -11.161  16.209  69.991  0.00  0.00    +0.000 A 
ATOM     19  C   UNL     1     -12.122  15.223  70.143  0.00  0.00    +0.000 A 
ATOM     20  C   UNL     1     -12.155  14.182  69.226  0.00  0.00    +0.001 A 
ENDBRANCH   6  15
TORSDOF 1
ENDMDL
MODEL 7
REMARK VINA RESULT:      -6.1      3.152      4.346
REMARK  Name = 
REMARK  1 active torsions:
REMARK  status: ('A' for Active; 'I' for Inactive)
REMARK    1  A    between atoms: C_11  and  C_12
REMARK                            x       y       z     vdW  Elec       q    Type
REMARK                         _______ _______ _______ _____ _____    ______ ____
ROOT
ATOM      1  O   UNL     1     -12.583  14.592  63.796  0.00  0.00    -0.268 OA
ATOM      2  C   UNL     1     -12.232  14.162  64.545  0.00  0.00    +0.300 C 
ATOM      3  C   UNL     1     -11.741  12.762  63.850  0.00  0.00    +0.333 C 
ATOM      4  O   UNL     1     -13.186  12.291  63.644  0.00  0.00    -0.186 OA
ATOM      5  N   UNL     1     -11.596  11.984  65.242  0.00  0.00    -0.233 NA
ATOM      6  C   UNL     1     -10.357  11.985  65.663  0.00  0.00    +0.080 C 
ATOM      7  C   UNL     1      -9.708  13.185  66.232  0.00  0.00    +0.034 A 
ATOM      8  C   UNL     1     -10.185  14.492  66.168  0.00  0.00    +0.075 A 
ATOM      9  C   UNL     1      -9.908  15.439  67.154  0.00  0.00    +0.018 A 
ATOM     10  C   UNL     1      -8.740  15.219  67.869  0.00  0.00    +0.013 A 
ATOM     11  C   UNL     1      -8.060  14.017  67.709  0.00  0.00    +0.058 A 
ATOM     12 CL   UNL     1      -6.631  13.788  68.714  0.00  0.00    -0.082 Cl
ATOM     13  C   UNL     1      -8.702  12.939  67.110  0.00  0.00    +0.014 A 
ATOM     14  N   UNL     1     -11.338  14.859  65.400  0.00  0.00    -0.175 NA
ENDROOT
BRANCH   6  15
ATOM     15  C   UNL     1      -9.813  10.765  66.271  0.00  0.00    +0.017 A 
ATOM     16  C   UNL     1     -10.443  10.187  67.353  0.00  0.00    +0.001 A 
ATOM     17  C   UNL     1     -10.610   8.836  67.474  0.00  0.00    +0.000 A 
ATOM     18  C   UNL     1      -9.949   8.046  66.573  0.00  0.00    +0.000 A 
ATOM     19  C   UNL     1      -9.033   8.584  65.684  0.00  0.00    +0.000 A 
ATOM     20  C   UNL     1      -9.033   9.957  65.484  0.00  0.00    +0.001 A 
ENDBRANCH   6  15
TORSDOF 1
ENDMDL
MODEL 8
REMARK VINA RESULT:      -5.9      3.047      4.975
REMARK  Name = 
REMARK  1 active torsions:
REMARK  status: ('A' for Active; 'I' for Inactive)
REMARK    1  A    between atoms: C_11  and  C_12
REMARK                            x       y       z     vdW  Elec       q    Type
REMARK                         _______ _______ _______ _____ _____    ______ ____
ROOT
ATOM      1  O   UNL     1     -10.719   9.993  66.675  0.00  0.00    -0.268 OA
ATOM      2  C   UNL     1     -10.573  10.599  67.368  0.00  0.00    +0.300 C 
ATOM      3  C   UNL     1     -10.554  11.995  66.511  0.00  0.00    +0.333 C 
ATOM      4  O   UNL     1      -9.205  11.648  65.868  0.00  0.00    -0.186 OA
ATOM      5  N   UNL     1      -9.871  12.845  67.685  0.00  0.00    -0.233 NA
ATOM      6  C   UNL     1     -10.764  13.506  68.376  0.00  0.00    +0.080 C 
ATOM      7  C   UNL     1     -11.676  12.852  69.339  0.00  0.00    +0.034 A 
ATOM      8  C   UNL     1     -11.904  11.483  69.461  0.00  0.00    +0.075 A 
ATOM      9  C   UNL     1     -12.258  10.889  70.672  0.00  0.00    +0.018 A 
ATOM     10  C   UNL     1     -12.897  11.727  71.574  0.00  0.00    +0.013 A 
ATOM     11  C   UNL     1     -12.955  13.092  71.312  0.00  0.00    +0.058 A 
ATOM     12 CL   UNL     1     -13.712  14.092  72.548  0.00  0.00    -0.082 Cl
ATOM     13  C   UNL     1     -12.115  13.642  70.350  0.00  0.00    +0.014 A 
ATOM     14  N   UNL     1     -11.364  10.523  68.545  0.00  0.00    -0.175 NA
ENDROOT
BRANCH   6  15
ATOM     15  C   UNL     1     -10.457  14.876  68.804  0.00  0.00    +0.017 A 
ATOM     16  C   UNL     1      -9.197  15.196  69.263  0.00  0.00    +0.001 A 
ATOM     17  C   UNL     1      -8.555  16.351  68.915  0.00  0.00    +0.000 A 
ATOM     18  C   UNL     1      -9.291  17.291  68.245  0.00  0.00    +0.000 A 
ATOM     19  C   UNL     1     -10.657  17.141  68.070  0.00  0.00    +0.000 A 
ATOM     20  C   UNL     1     -11.219  15.890  68.280  0.00  0.00    +0.001 A 
ENDBRANCH   6  15
TORSDOF 1
ENDMDL
MODEL 9
REMARK VINA RESULT:      -5.9      2.962      5.289
REMARK  Name = 
REMARK  1 active torsions:
REMARK  status: ('A' for Active; 'I' for Inactive)
REMARK    1  A    between atoms: C_11  and  C_12
REMARK                            x       y       z     vdW  Elec       q    Type
REMARK                         _______ _______ _______ _____ _____    ______ ____
ROOT
ATOM      1  O   UNL     1     -12.781  12.712  63.844  0.00  0.00    -0.268 OA
ATOM      2  C   UNL     1     -11.939  12.983  64.138  0.00  0.00    +0.300 C 
ATOM      3  C   UNL     1     -12.374  14.257  65.072  0.00  0.00    +0.333 C 
ATOM      4  O   UNL     1     -12.762  15.095  63.848  0.00  0.00    -0.186 OA
ATOM      5  N   UNL     1     -10.895  14.870  65.130  0.00  0.00    -0.233 NA
ATOM      6  C   UNL     1     -10.277  14.522  66.229  0.00  0.00    +0.080 C 
ATOM      7  C   UNL     1      -9.752  13.158  66.453  0.00  0.00    +0.034 A 
ATOM      8  C   UNL     1     -10.047  12.026  65.699  0.00  0.00    +0.075 A 
ATOM      9  C   UNL     1      -9.146  10.971  65.548  0.00  0.00    +0.018 A 
ATOM     10  C   UNL     1      -8.226  10.833  66.577  0.00  0.00    +0.013 A 
ATOM     11  C   UNL     1      -8.128  11.830  67.542  0.00  0.00    +0.058 A 
ATOM     12 CL   UNL     1      -6.879  11.613  68.765  0.00  0.00    -0.082 Cl
ATOM     13  C   UNL     1      -8.696  13.076  67.301  0.00  0.00    +0.014 A 
ATOM     14  N   UNL     1     -11.034  12.021  64.660  0.00  0.00    -0.175 NA
ENDROOT
BRANCH   6  15
ATOM     15  C   UNL     1      -9.448  15.516  66.922  0.00  0.00    +0.017 A 
ATOM     16  C   UNL     1      -8.419  16.149  66.257  0.00  0.00    +0.001 A 
ATOM     17  C   UNL     1      -8.165  17.484  66.390  0.00  0.00    +0.000 A 
ATOM     18  C   UNL     1      -8.848  18.150  67.372  0.00  0.00    +0.000 A 
ATOM     19  C   UNL     1      -9.637  17.470  68.284  0.00  0.00    +0.000 A 
ATOM     20  C   UNL     1      -9.998  16.160  68.001  0.00  0.00    +0.001 A 
ENDBRANCH   6  15
TORSDOF 1
ENDMDL
