MODEL 1
REMARK VINA RESULT:      -7.7      0.000      0.000
REMARK  Name = 
REMARK  8 active torsions:
REMARK  status: ('A' for Active; 'I' for Inactive)
REMARK    1  A    between atoms: O_2  and  C_3
REMARK    2  A    between atoms: C_9  and  N_10
REMARK    3  A    between atoms: N_10  and  C_11
REMARK    4  A    between atoms: C_21  and  O_22
REMARK    5  A    between atoms: O_22  and  C_23
REMARK    6  A    between atoms: C_23  and  C_24
REMARK    7  A    between atoms: C_24  and  C_25
REMARK    8  A    between atoms: C_25  and  N_26
REMARK                            x       y       z     vdW  Elec       q    Type
REMARK                         _______ _______ _______ _____ _____    ______ ____
ROOT
ATOM      1  C   UNL     1     -12.440  11.572  70.600  0.00  0.00    +0.174 A 
ATOM      2  C   UNL     1     -11.771  11.971  69.448  0.00  0.00    +0.172 A 
ATOM      3  C   UNL     1     -11.652  13.325  69.165  0.00  0.00    +0.044 A 
ATOM      4  C   UNL     1     -12.166  14.246  70.069  0.00  0.00    +0.054 A 
ATOM      5  C   UNL     1     -12.610  13.844  71.323  0.00  0.00    +0.089 A 
ATOM      6  N   UNL     1     -12.425  14.625  72.414  0.00  0.00    -0.224 NA
ATOM      7  C   UNL     1     -11.958  15.884  72.242  0.00  0.00    +0.200 A 
ATOM      8  N   UNL     1     -11.778  16.377  70.993  0.00  0.00    -0.207 NA
ATOM      9  C   UNL     1     -11.880  15.591  69.914  0.00  0.00    +0.155 A 
ATOM     10  C   UNL     1     -13.008  12.518  71.446  0.00  0.00    +0.059 A 
ENDROOT
BRANCH   1  12
ATOM     11  C   UNL     1     -13.069   9.595  71.908  0.00  0.00    +0.253 C 
ATOM     12  O   UNL     1     -12.818  10.227  70.654  0.00  0.00    -0.468 OA
ENDBRANCH   1  12
BRANCH   2  13
ATOM     13  O   UNL     1     -10.802  11.130  68.891  0.00  0.00    -0.472 OA
BRANCH  13  14
ATOM     14  C   UNL     1     -11.056  10.644  67.599  0.00  0.00    +0.207 C 
BRANCH  14  15
ATOM     15  C   UNL     1      -9.823  10.671  66.710  0.00  0.00    +0.065 C 
BRANCH  15  16
ATOM     16  C   UNL     1      -9.566  12.080  66.190  0.00  0.00    +0.076 C 
BRANCH  16  17
ATOM     17  N   UNL     1     -10.737  12.492  65.464  0.00  0.00    -0.268 NA
ATOM     18  C   UNL     1     -10.758  12.063  64.092  0.00  0.00    +0.105 C 
ATOM     19  C   UNL     1     -12.147  12.394  63.557  0.00  0.00    +0.159 C 
ATOM     20  O   UNL     1     -12.495  13.716  63.792  0.00  0.00    -0.351 OA
ATOM     21  C   UNL     1     -12.496  14.057  65.133  0.00  0.00    +0.159 C 
ATOM     22  C   UNL     1     -11.067  13.883  65.636  0.00  0.00    +0.105 C 
ENDBRANCH  16  17
ENDBRANCH  15  16
ENDBRANCH  14  15
ENDBRANCH  13  14
ENDBRANCH   2  13
BRANCH   9  23
ATOM     23  N   UNL     1     -11.810  16.076  68.577  0.00  0.00    -0.194 NA
BRANCH  23  24
ATOM     24  C   UNL     1     -10.628  16.770  68.208  0.00  0.00    +0.073 A 
ATOM     25  C   UNL     1     -10.642  18.077  67.764  0.00  0.00    +0.030 A 
ATOM     26  C   UNL     1      -9.506  18.848  67.820  0.00  0.00    +0.086 A 
ATOM     27 CL   UNL     1      -9.639  20.521  67.333  0.00  0.00    -0.080 Cl
ATOM     28  C   UNL     1      -8.339  18.367  68.403  0.00  0.00    +0.151 A 
ATOM     29  F   UNL     1      -7.496  19.268  68.939  0.00  0.00    -0.203 F 
ATOM     30  C   UNL     1      -8.288  17.014  68.641  0.00  0.00    +0.032 A 
ATOM     31  C   UNL     1      -9.411  16.209  68.501  0.00  0.00    +0.019 A 
ENDBRANCH  23  24
ENDBRANCH   9  23
TORSDOF 8
ENDMDL
MODEL 2
REMARK VINA RESULT:      -7.4      1.440      1.671
REMARK  Name = 
REMARK  8 active torsions:
REMARK  status: ('A' for Active; 'I' for Inactive)
REMARK    1  A    between atoms: O_2  and  C_3
REMARK    2  A    between atoms: C_9  and  N_10
REMARK    3  A    between atoms: N_10  and  C_11
REMARK    4  A    between atoms: C_21  and  O_22
REMARK    5  A    between atoms: O_22  and  C_23
REMARK    6  A    between atoms: C_23  and  C_24
REMARK    7  A    between atoms: C_24  and  C_25
REMARK    8  A    between atoms: C_25  and  N_26
REMARK                            x       y       z     vdW  Elec       q    Type
REMARK                         _______ _______ _______ _____ _____    ______ ____
ROOT
ATOM      1  C   UNL     1     -12.675  11.548  70.923  0.00  0.00    +0.174 A 
ATOM      2  C   UNL     1     -11.996  11.969  69.786  0.00  0.00    +0.172 A 
ATOM      3  C   UNL     1     -11.839  13.329  69.552  0.00  0.00    +0.044 A 
ATOM      4  C   UNL     1     -12.326  14.230  70.490  0.00  0.00    +0.054 A 
ATOM      5  C   UNL     1     -12.780  13.796  71.729  0.00  0.00    +0.089 A 
ATOM      6  N   UNL     1     -12.573  14.531  72.847  0.00  0.00    -0.224 NA
ATOM      7  C   UNL     1     -12.071  15.782  72.720  0.00  0.00    +0.200 A 
ATOM      8  N   UNL     1     -11.877  16.314  71.490  0.00  0.00    -0.207 NA
ATOM      9  C   UNL     1     -12.002  15.572  70.383  0.00  0.00    +0.155 A 
ATOM     10  C   UNL     1     -13.215  12.478  71.804  0.00  0.00    +0.059 A 
ENDROOT
BRANCH   1  12
ATOM     11  C   UNL     1     -13.118   9.467  72.145  0.00  0.00    +0.253 C 
ATOM     12  O   UNL     1     -13.091  10.212  70.929  0.00  0.00    -0.468 OA
ENDBRANCH   1  12
BRANCH   2  13
ATOM     13  O   UNL     1     -11.051  11.122  69.197  0.00  0.00    -0.472 OA
BRANCH  13  14
ATOM     14  C   UNL     1     -11.085  11.016  67.798  0.00  0.00    +0.207 C 
BRANCH  14  15
ATOM     15  C   UNL     1      -9.723  11.240  67.161  0.00  0.00    +0.065 C 
BRANCH  15  16
ATOM     16  C   UNL     1      -9.613  12.656  66.609  0.00  0.00    +0.076 C 
BRANCH  16  17
ATOM     17  N   UNL     1     -10.746  12.874  65.752  0.00  0.00    -0.268 NA
ATOM     18  C   UNL     1     -10.501  12.574  64.368  0.00  0.00    +0.105 C 
ATOM     19  C   UNL     1     -11.852  12.650  63.663  0.00  0.00    +0.159 C 
ATOM     20  O   UNL     1     -12.510  13.842  63.926  0.00  0.00    -0.351 OA
ATOM     21  C   UNL     1     -12.754  14.055  65.271  0.00  0.00    +0.159 C 
ATOM     22  C   UNL     1     -11.396  14.143  65.959  0.00  0.00    +0.105 C 
ENDBRANCH  16  17
ENDBRANCH  15  16
ENDBRANCH  14  15
ENDBRANCH  13  14
ENDBRANCH   2  13
BRANCH   9  23
ATOM     23  N   UNL     1     -11.919  16.103  69.064  0.00  0.00    -0.194 NA
BRANCH  23  24
ATOM     24  C   UNL     1     -10.647  16.569  68.640  0.00  0.00    +0.073 A 
ATOM     25  C   UNL     1      -9.498  15.819  68.776  0.00  0.00    +0.030 A 
ATOM     26  C   UNL     1      -8.392  16.084  68.005  0.00  0.00    +0.086 A 
ATOM     27 CL   UNL     1      -7.015  15.019  68.171  0.00  0.00    -0.080 Cl
ATOM     28  C   UNL     1      -8.427  17.052  67.007  0.00  0.00    +0.151 A 
ATOM     29  F   UNL     1      -7.599  16.893  65.960  0.00  0.00    -0.203 F 
ATOM     30  C   UNL     1      -9.495  17.916  67.033  0.00  0.00    +0.032 A 
ATOM     31  C   UNL     1     -10.579  17.706  67.874  0.00  0.00    +0.019 A 
ENDBRANCH  23  24
ENDBRANCH   9  23
TORSDOF 8
ENDMDL
MODEL 3
REMARK VINA RESULT:      -7.3      4.311      6.799
REMARK  Name = 
REMARK  8 active torsions:
REMARK  status: ('A' for Active; 'I' for Inactive)
REMARK    1  A    between atoms: O_2  and  C_3
REMARK    2  A    between atoms: C_9  and  N_10
REMARK    3  A    between atoms: N_10  and  C_11
REMARK    4  A    between atoms: C_21  and  O_22
REMARK    5  A    between atoms: O_22  and  C_23
REMARK    6  A    between atoms: C_23  and  C_24
REMARK    7  A    between atoms: C_24  and  C_25
REMARK    8  A    between atoms: C_25  and  N_26
REMARK                            x       y       z     vdW  Elec       q    Type
REMARK                         _______ _______ _______ _____ _____    ______ ____
ROOT
ATOM      1  C   UNL     1     -11.679  15.927  68.974  0.00  0.00    +0.174 A 
ATOM      2  C   UNL     1     -11.672  14.767  68.208  0.00  0.00    +0.172 A 
ATOM      3  C   UNL     1     -11.852  13.539  68.831  0.00  0.00    +0.044 A 
ATOM      4  C   UNL     1     -12.082  13.511  70.201  0.00  0.00    +0.054 A 
ATOM      5  C   UNL     1     -12.329  14.681  70.908  0.00  0.00    +0.089 A 
ATOM      6  N   UNL     1     -13.210  14.705  71.936  0.00  0.00    -0.224 NA
ATOM      7  C   UNL     1     -13.719  13.533  72.384  0.00  0.00    +0.200 A 
ATOM      8  N   UNL     1     -13.275  12.360  71.873  0.00  0.00    -0.207 NA
ATOM      9  C   UNL     1     -12.468  12.327  70.806  0.00  0.00    +0.155 A 
ATOM     10  C   UNL     1     -11.837  15.857  70.354  0.00  0.00    +0.059 A 
ENDROOT
BRANCH   1  12
ATOM     11  C   UNL     1      -9.815  17.475  68.592  0.00  0.00    +0.253 C 
ATOM     12  O   UNL     1     -11.162  17.071  68.358  0.00  0.00    -0.468 OA
ENDBRANCH   1  12
BRANCH   2  13
ATOM     13  O   UNL     1     -12.018  14.836  66.854  0.00  0.00    -0.472 OA
BRANCH  13  14
ATOM     14  C   UNL     1     -10.964  14.767  65.930  0.00  0.00    +0.207 C 
BRANCH  14  15
ATOM     15  C   UNL     1     -11.269  13.842  64.762  0.00  0.00    +0.065 C 
BRANCH  15  16
ATOM     16  C   UNL     1     -11.846  12.522  65.258  0.00  0.00    +0.076 C 
BRANCH  16  17
ATOM     17  N   UNL     1     -11.010  11.468  64.752  0.00  0.00    -0.268 NA
ATOM     18  C   UNL     1     -10.263  10.774  65.765  0.00  0.00    +0.105 C 
ATOM     19  C   UNL     1      -9.619   9.573  65.081  0.00  0.00    +0.159 C 
ATOM     20  O   UNL     1      -8.918   9.936  63.941  0.00  0.00    -0.351 OA
ATOM     21  C   UNL     1      -9.699  10.562  62.987  0.00  0.00    +0.159 C 
ATOM     22  C   UNL     1     -10.215  11.853  63.614  0.00  0.00    +0.105 C 
ENDBRANCH  16  17
ENDBRANCH  15  16
ENDBRANCH  14  15
ENDBRANCH  13  14
ENDBRANCH   2  13
BRANCH   9  23
ATOM     23  N   UNL     1     -11.883  11.133  70.297  0.00  0.00    -0.194 NA
BRANCH  23  24
ATOM     24  C   UNL     1     -12.005   9.967  71.098  0.00  0.00    +0.073 A 
ATOM     25  C   UNL     1     -13.205   9.311  71.278  0.00  0.00    +0.030 A 
ATOM     26  C   UNL     1     -13.233   7.998  71.682  0.00  0.00    +0.086 A 
ATOM     27 CL   UNL     1     -14.793   7.217  71.786  0.00  0.00    -0.080 Cl
ATOM     28  C   UNL     1     -12.060   7.268  71.834  0.00  0.00    +0.151 A 
ATOM     29  F   UNL     1     -12.131   5.937  71.663  0.00  0.00    -0.203 F 
ATOM     30  C   UNL     1     -10.890   7.990  71.856  0.00  0.00    +0.032 A 
ATOM     31  C   UNL     1     -10.864   9.341  71.535  0.00  0.00    +0.019 A 
ENDBRANCH  23  24
ENDBRANCH   9  23
TORSDOF 8
ENDMDL
MODEL 4
REMARK VINA RESULT:      -7.0      3.081      6.392
REMARK  Name = 
REMARK  8 active torsions:
REMARK  status: ('A' for Active; 'I' for Inactive)
REMARK    1  A    between atoms: O_2  and  C_3
REMARK    2  A    between atoms: C_9  and  N_10
REMARK    3  A    between atoms: N_10  and  C_11
REMARK    4  A    between atoms: C_21  and  O_22
REMARK    5  A    between atoms: O_22  and  C_23
REMARK    6  A    between atoms: C_23  and  C_24
REMARK    7  A    between atoms: C_24  and  C_25
REMARK    8  A    between atoms: C_25  and  N_26
REMARK                            x       y       z     vdW  Elec       q    Type
REMARK                         _______ _______ _______ _____ _____    ______ ____
ROOT
ATOM      1  C   UNL     1     -10.319  11.456  64.703  0.00  0.00    +0.174 A 
ATOM      2  C   UNL     1     -11.259  12.234  65.369  0.00  0.00    +0.172 A 
ATOM      3  C   UNL     1     -11.555  11.955  66.697  0.00  0.00    +0.044 A 
ATOM      4  C   UNL     1     -10.865  10.933  67.336  0.00  0.00    +0.054 A 
ATOM      5  C   UNL     1      -9.765  10.331  66.738  0.00  0.00    +0.089 A 
ATOM      6  N   UNL     1      -8.698   9.934  67.472  0.00  0.00    -0.224 NA
ATOM      7  C   UNL     1      -8.788   9.971  68.823  0.00  0.00    +0.200 A 
ATOM      8  N   UNL     1      -9.959  10.304  69.417  0.00  0.00    -0.207 NA
ATOM      9  C   UNL     1     -10.991  10.773  68.706  0.00  0.00    +0.155 A 
ATOM     10  C   UNL     1      -9.701  10.392  65.351  0.00  0.00    +0.059 A 
ENDROOT
BRANCH   1  12
ATOM     11  C   UNL     1      -9.523  10.675  62.518  0.00  0.00    +0.253 C 
ATOM     12  O   UNL     1     -10.315  11.560  63.308  0.00  0.00    -0.468 OA
ENDBRANCH   1  12
BRANCH   2  13
ATOM     13  O   UNL     1     -11.495  13.544  64.940  0.00  0.00    -0.472 OA
BRANCH  13  14
ATOM     14  C   UNL     1     -10.404  14.425  64.978  0.00  0.00    +0.207 C 
BRANCH  14  15
ATOM     15  C   UNL     1     -10.485  15.409  66.134  0.00  0.00    +0.065 C 
BRANCH  15  16
ATOM     16  C   UNL     1      -9.177  16.176  66.281  0.00  0.00    +0.076 C 
BRANCH  16  17
ATOM     17  N   UNL     1      -9.500  17.495  66.752  0.00  0.00    -0.268 NA
ATOM     18  C   UNL     1      -9.664  17.585  68.177  0.00  0.00    +0.105 C 
ATOM     19  C   UNL     1      -9.781  19.070  68.506  0.00  0.00    +0.159 C 
ATOM     20  O   UNL     1     -10.746  19.700  67.736  0.00  0.00    -0.351 OA
ATOM     21  C   UNL     1     -10.512  19.614  66.375  0.00  0.00    +0.159 C 
ATOM     22  C   UNL     1     -10.557  18.134  66.010  0.00  0.00    +0.105 C 
ENDBRANCH  16  17
ENDBRANCH  15  16
ENDBRANCH  14  15
ENDBRANCH  13  14
ENDBRANCH   2  13
BRANCH   9  23
ATOM     23  N   UNL     1     -12.277  11.033  69.260  0.00  0.00    -0.194 NA
BRANCH  23  24
ATOM     24  C   UNL     1     -12.343  11.992  70.305  0.00  0.00    +0.073 A 
ATOM     25  C   UNL     1     -11.939  13.301  70.138  0.00  0.00    +0.030 A 
ATOM     26  C   UNL     1     -12.390  14.286  70.983  0.00  0.00    +0.086 A 
ATOM     27 CL   UNL     1     -11.909  15.931  70.636  0.00  0.00    -0.080 Cl
ATOM     28  C   UNL     1     -13.329  14.012  71.970  0.00  0.00    +0.151 A 
ATOM     29  F   UNL     1     -14.132  15.018  72.359  0.00  0.00    -0.203 F 
ATOM     30  C   UNL     1     -13.551  12.684  72.250  0.00  0.00    +0.032 A 
ATOM     31  C   UNL     1     -13.025  11.677  71.453  0.00  0.00    +0.019 A 
ENDBRANCH  23  24
ENDBRANCH   9  23
TORSDOF 8
ENDMDL
MODEL 5
REMARK VINA RESULT:      -6.9      3.338      6.325
REMARK  Name = 
REMARK  8 active torsions:
REMARK  status: ('A' for Active; 'I' for Inactive)
REMARK    1  A    between atoms: O_2  and  C_3
REMARK    2  A    between atoms: C_9  and  N_10
REMARK    3  A    between atoms: N_10  and  C_11
REMARK    4  A    between atoms: C_21  and  O_22
REMARK    5  A    between atoms: O_22  and  C_23
REMARK    6  A    between atoms: C_23  and  C_24
REMARK    7  A    between atoms: C_24  and  C_25
REMARK    8  A    between atoms: C_25  and  N_26
REMARK                            x       y       z     vdW  Elec       q    Type
REMARK                         _______ _______ _______ _____ _____    ______ ____
ROOT
ATOM      1  C   UNL     1     -10.145   9.934  66.031  0.00  0.00    +0.174 A 
ATOM      2  C   UNL     1     -10.049  10.227  67.386  0.00  0.00    +0.172 A 
ATOM      3  C   UNL     1     -10.331  11.513  67.826  0.00  0.00    +0.044 A 
ATOM      4  C   UNL     1     -10.750  12.461  66.901  0.00  0.00    +0.054 A 
ATOM      5  C   UNL     1     -11.076  12.094  65.601  0.00  0.00    +0.089 A 
ATOM      6  N   UNL     1     -12.091  12.697  64.938  0.00  0.00    -0.224 NA
ATOM      7  C   UNL     1     -12.675  13.786  65.491  0.00  0.00    +0.200 A 
ATOM      8  N   UNL     1     -12.181  14.313  66.637  0.00  0.00    -0.207 NA
ATOM      9  C   UNL     1     -11.233  13.681  67.341  0.00  0.00    +0.155 A 
ATOM     10  C   UNL     1     -10.496  10.926  65.121  0.00  0.00    +0.059 A 
ENDROOT
BRANCH   1  12
ATOM     11  C   UNL     1      -8.116   8.679  65.465  0.00  0.00    +0.253 C 
ATOM     12  O   UNL     1      -9.532   8.749  65.614  0.00  0.00    -0.468 OA
ENDBRANCH   1  12
BRANCH   2  13
ATOM     13  O   UNL     1     -10.202   9.200  68.323  0.00  0.00    -0.472 OA
BRANCH  13  14
ATOM     14  C   UNL     1      -9.262   9.150  69.364  0.00  0.00    +0.207 C 
BRANCH  14  15
ATOM     15  C   UNL     1      -9.875   9.458  70.721  0.00  0.00    +0.065 C 
BRANCH  15  16
ATOM     16  C   UNL     1     -10.151   8.172  71.490  0.00  0.00    +0.076 C 
BRANCH  16  17
ATOM     17  N   UNL     1     -11.568   8.104  71.722  0.00  0.00    -0.268 NA
ATOM     18  C   UNL     1     -12.234   7.062  70.989  0.00  0.00    +0.105 C 
ATOM     19  C   UNL     1     -13.662   7.002  71.522  0.00  0.00    +0.159 C 
ATOM     20  O   UNL     1     -14.274   8.246  71.512  0.00  0.00    -0.351 OA
ATOM     21  C   UNL     1     -13.609   9.196  72.268  0.00  0.00    +0.159 C 
ATOM     22  C   UNL     1     -12.233   9.380  71.638  0.00  0.00    +0.105 C 
ENDBRANCH  16  17
ENDBRANCH  15  16
ENDBRANCH  14  15
ENDBRANCH  13  14
ENDBRANCH   2  13
BRANCH   9  23
ATOM     23  N   UNL     1     -10.600  14.239  68.489  0.00  0.00    -0.194 NA
BRANCH  23  24
ATOM     24  C   UNL     1     -11.446  14.633  69.559  0.00  0.00    +0.073 A 
ATOM     25  C   UNL     1     -12.240  13.738  70.246  0.00  0.00    +0.030 A 
ATOM     26  C   UNL     1     -12.706  14.037  71.504  0.00  0.00    +0.086 A 
ATOM     27 CL   UNL     1     -13.619  12.804  72.342  0.00  0.00    -0.080 Cl
ATOM     28  C   UNL     1     -12.321  15.204  72.155  0.00  0.00    +0.151 A 
ATOM     29  F   UNL     1     -12.310  15.189  73.499  0.00  0.00    -0.203 F 
ATOM     30  C   UNL     1     -11.712  16.162  71.379  0.00  0.00    +0.032 A 
ATOM     31  C   UNL     1     -11.317  15.898  70.075  0.00  0.00    +0.019 A 
ENDBRANCH  23  24
ENDBRANCH   9  23
TORSDOF 8
ENDMDL
MODEL 6
REMARK VINA RESULT:      -6.9      4.448      8.260
REMARK  Name = 
REMARK  8 active torsions:
REMARK  status: ('A' for Active; 'I' for Inactive)
REMARK    1  A    between atoms: O_2  and  C_3
REMARK    2  A    between atoms: C_9  and  N_10
REMARK    3  A    between atoms: N_10  and  C_11
REMARK    4  A    between atoms: C_21  and  O_22
REMARK    5  A    between atoms: O_22  and  C_23
REMARK    6  A    between atoms: C_23  and  C_24
REMARK    7  A    between atoms: C_24  and  C_25
REMARK    8  A    between atoms: C_25  and  N_26
REMARK                            x       y       z     vdW  Elec       q    Type
REMARK                         _______ _______ _______ _____ _____    ______ ____
ROOT
ATOM      1  C   UNL     1     -11.668  12.435  65.631  0.00  0.00    +0.174 A 
ATOM      2  C   UNL     1     -11.944  12.862  66.925  0.00  0.00    +0.172 A 
ATOM      3  C   UNL     1     -11.393  12.176  67.999  0.00  0.00    +0.044 A 
ATOM      4  C   UNL     1     -10.541  11.108  67.747  0.00  0.00    +0.054 A 
ATOM      5  C   UNL     1     -10.083  10.849  66.461  0.00  0.00    +0.089 A 
ATOM      6  N   UNL     1      -8.826  10.395  66.244  0.00  0.00    -0.224 NA
ATOM      7  C   UNL     1      -8.074  10.028  67.308  0.00  0.00    +0.200 A 
ATOM      8  N   UNL     1      -8.612  10.024  68.551  0.00  0.00    -0.207 NA
ATOM      9  C   UNL     1      -9.823  10.544  68.787  0.00  0.00    +0.155 A 
ATOM     10  C   UNL     1     -10.870  11.317  65.415  0.00  0.00    +0.059 A 
ENDROOT
BRANCH   1  12
ATOM     11  C   UNL     1     -12.534  12.330  63.339  0.00  0.00    +0.253 C 
ATOM     12  O   UNL     1     -12.503  12.938  64.628  0.00  0.00    -0.468 OA
ENDBRANCH   1  12
BRANCH   2  13
ATOM     13  O   UNL     1     -12.286  14.200  67.149  0.00  0.00    -0.472 OA
BRANCH  13  14
ATOM     14  C   UNL     1     -11.356  14.978  67.854  0.00  0.00    +0.207 C 
BRANCH  14  15
ATOM     15  C   UNL     1     -11.963  15.651  69.076  0.00  0.00    +0.065 C 
BRANCH  15  16
ATOM     16  C   UNL     1     -10.993  15.607  70.250  0.00  0.00    +0.076 C 
BRANCH  16  17
ATOM     17  N   UNL     1     -11.711  15.087  71.382  0.00  0.00    -0.268 NA
ATOM     18  C   UNL     1     -12.862  14.299  71.036  0.00  0.00    +0.105 C 
ATOM     19  C   UNL     1     -13.355  13.662  72.331  0.00  0.00    +0.159 C 
ATOM     20  O   UNL     1     -13.532  14.598  73.338  0.00  0.00    -0.351 OA
ATOM     21  C   UNL     1     -12.380  15.295  73.655  0.00  0.00    +0.159 C 
ATOM     22  C   UNL     1     -11.972  16.068  72.405  0.00  0.00    +0.105 C 
ENDBRANCH  16  17
ENDBRANCH  15  16
ENDBRANCH  14  15
ENDBRANCH  13  14
ENDBRANCH   2  13
BRANCH   9  23
ATOM     23  N   UNL     1     -10.482  10.468  70.047  0.00  0.00    -0.194 NA
BRANCH  23  24
ATOM     24  C   UNL     1     -11.237   9.294  70.306  0.00  0.00    +0.073 A 
ATOM     25  C   UNL     1     -10.874   8.055  69.817  0.00  0.00    +0.030 A 
ATOM     26  C   UNL     1     -11.346   6.905  70.403  0.00  0.00    +0.086 A 
ATOM     27 CL   UNL     1     -10.754   5.381  69.785  0.00  0.00    -0.080 Cl
ATOM     28  C   UNL     1     -12.125   6.952  71.554  0.00  0.00    +0.151 A 
ATOM     29  F   UNL     1     -12.078   5.892  72.378  0.00  0.00    -0.203 F 
ATOM     30  C   UNL     1     -12.640   8.182  71.892  0.00  0.00    +0.032 A 
ATOM     31  C   UNL     1     -12.236   9.341  71.244  0.00  0.00    +0.019 A 
ENDBRANCH  23  24
ENDBRANCH   9  23
TORSDOF 8
ENDMDL
MODEL 7
REMARK VINA RESULT:      -6.9      3.609      6.414
REMARK  Name = 
REMARK  8 active torsions:
REMARK  status: ('A' for Active; 'I' for Inactive)
REMARK    1  A    between atoms: O_2  and  C_3
REMARK    2  A    between atoms: C_9  and  N_10
REMARK    3  A    between atoms: N_10  and  C_11
REMARK    4  A    between atoms: C_21  and  O_22
REMARK    5  A    between atoms: O_22  and  C_23
REMARK    6  A    between atoms: C_23  and  C_24
REMARK    7  A    between atoms: C_24  and  C_25
REMARK    8  A    between atoms: C_25  and  N_26
REMARK                            x       y       z     vdW  Elec       q    Type
REMARK                         _______ _______ _______ _____ _____    ______ ____
ROOT
ATOM      1  C   UNL     1     -12.441  14.623  71.472  0.00  0.00    +0.174 A 
ATOM      2  C   UNL     1     -12.474  13.484  70.676  0.00  0.00    +0.172 A 
ATOM      3  C   UNL     1     -12.253  13.603  69.310  0.00  0.00    +0.044 A 
ATOM      4  C   UNL     1     -11.958  14.855  68.785  0.00  0.00    +0.054 A 
ATOM      5  C   UNL     1     -11.688  15.933  69.619  0.00  0.00    +0.089 A 
ATOM      6  N   UNL     1     -10.760  16.861  69.286  0.00  0.00    -0.224 NA
ATOM      7  C   UNL     1     -10.219  16.824  68.045  0.00  0.00    +0.200 A 
ATOM      8  N   UNL     1     -10.677  15.935  67.131  0.00  0.00    -0.207 NA
ATOM      9  C   UNL     1     -11.533  14.965  67.472  0.00  0.00    +0.155 A 
ATOM     10  C   UNL     1     -12.216  15.872  70.903  0.00  0.00    +0.059 A 
ENDROOT
BRANCH   1  12
ATOM     11  C   UNL     1     -12.452  15.216  73.852  0.00  0.00    +0.253 C 
ATOM     12  O   UNL     1     -12.996  14.494  72.749  0.00  0.00    -0.468 OA
ENDBRANCH   1  12
BRANCH   2  13
ATOM     13  O   UNL     1     -12.193  12.239  71.247  0.00  0.00    -0.472 OA
BRANCH  13  14
ATOM     14  C   UNL     1     -13.273  11.550  71.819  0.00  0.00    +0.207 C 
BRANCH  14  15
ATOM     15  C   UNL     1     -13.079  10.042  71.807  0.00  0.00    +0.065 C 
BRANCH  15  16
ATOM     16  C   UNL     1     -11.775   9.674  71.109  0.00  0.00    +0.076 C 
BRANCH  16  17
ATOM     17  N   UNL     1     -11.706   8.239  71.054  0.00  0.00    -0.268 NA
ATOM     18  C   UNL     1     -11.436   7.614  72.320  0.00  0.00    +0.105 C 
ATOM     19  C   UNL     1     -11.617   6.115  72.110  0.00  0.00    +0.159 C 
ATOM     20  O   UNL     1     -10.888   5.648  71.028  0.00  0.00    -0.351 OA
ATOM     21  C   UNL     1     -11.221   6.257  69.831  0.00  0.00    +0.159 C 
ATOM     22  C   UNL     1     -10.887   7.738  69.979  0.00  0.00    +0.105 C 
ENDBRANCH  16  17
ENDBRANCH  15  16
ENDBRANCH  14  15
ENDBRANCH  13  14
ENDBRANCH   2  13
BRANCH   9  23
ATOM     23  N   UNL     1     -12.131  14.075  66.534  0.00  0.00    -0.194 NA
BRANCH  23  24
ATOM     24  C   UNL     1     -11.250  13.345  65.693  0.00  0.00    +0.073 A 
ATOM     25  C   UNL     1     -10.257  12.526  66.190  0.00  0.00    +0.030 A 
ATOM     26  C   UNL     1      -9.715  11.531  65.412  0.00  0.00    +0.086 A 
ATOM     27 CL   UNL     1      -8.535  10.477  66.155  0.00  0.00    -0.080 Cl
ATOM     28  C   UNL     1     -10.209  11.263  64.141  0.00  0.00    +0.151 A 
ATOM     29  F   UNL     1     -10.077  10.008  63.676  0.00  0.00    -0.203 F 
ATOM     30  C   UNL     1     -11.040  12.213  63.596  0.00  0.00    +0.032 A 
ATOM     31  C   UNL     1     -11.523  13.273  64.350  0.00  0.00    +0.019 A 
ENDBRANCH  23  24
ENDBRANCH   9  23
TORSDOF 8
ENDMDL
MODEL 8
REMARK VINA RESULT:      -6.8      2.970      6.146
REMARK  Name = 
REMARK  8 active torsions:
REMARK  status: ('A' for Active; 'I' for Inactive)
REMARK    1  A    between atoms: O_2  and  C_3
REMARK    2  A    between atoms: C_9  and  N_10
REMARK    3  A    between atoms: N_10  and  C_11
REMARK    4  A    between atoms: C_21  and  O_22
REMARK    5  A    between atoms: O_22  and  C_23
REMARK    6  A    between atoms: C_23  and  C_24
REMARK    7  A    between atoms: C_24  and  C_25
REMARK    8  A    between atoms: C_25  and  N_26
REMARK                            x       y       z     vdW  Elec       q    Type
REMARK                         _______ _______ _______ _____ _____    ______ ____
ROOT
ATOM      1  C   UNL     1     -10.415  13.609  65.490  0.00  0.00    +0.174 A 
ATOM      2  C   UNL     1     -10.829  13.035  66.685  0.00  0.00    +0.172 A 
ATOM      3  C   UNL     1     -10.778  13.783  67.854  0.00  0.00    +0.044 A 
ATOM      4  C   UNL     1     -10.357  15.105  67.784  0.00  0.00    +0.054 A 
ATOM      5  C   UNL     1     -10.182  15.735  66.557  0.00  0.00    +0.089 A 
ATOM      6  N   UNL     1     -10.491  17.043  66.392  0.00  0.00    -0.224 NA
ATOM      7  C   UNL     1     -10.808  17.780  67.483  0.00  0.00    +0.200 A 
ATOM      8  N   UNL     1     -10.718  17.236  68.720  0.00  0.00    -0.207 NA
ATOM      9  C   UNL     1     -10.493  15.927  68.889  0.00  0.00    +0.155 A 
ATOM     10  C   UNL     1      -9.929  14.912  65.467  0.00  0.00    +0.059 A 
ENDROOT
BRANCH   1  12
ATOM     11  C   UNL     1     -11.228  12.317  63.569  0.00  0.00    +0.253 C 
ATOM     12  O   UNL     1     -10.170  12.723  64.436  0.00  0.00    -0.468 OA
ENDBRANCH   1  12
BRANCH   2  13
ATOM     13  O   UNL     1     -11.752  11.983  66.659  0.00  0.00    -0.472 OA
BRANCH  13  14
ATOM     14  C   UNL     1     -11.450  10.861  67.445  0.00  0.00    +0.207 C 
BRANCH  14  15
ATOM     15  C   UNL     1     -12.011  10.965  68.855  0.00  0.00    +0.065 C 
BRANCH  15  16
ATOM     16  C   UNL     1     -10.957  10.571  69.883  0.00  0.00    +0.076 C 
BRANCH  16  17
ATOM     17  N   UNL     1     -11.606   9.761  70.877  0.00  0.00    -0.268 NA
ATOM     18  C   UNL     1     -11.257   8.368  70.819  0.00  0.00    +0.105 C 
ATOM     19  C   UNL     1     -11.856   7.720  72.063  0.00  0.00    +0.159 C 
ATOM     20  O   UNL     1     -13.204   8.009  72.203  0.00  0.00    -0.351 OA
ATOM     21  C   UNL     1     -13.474   9.363  72.295  0.00  0.00    +0.159 C 
ATOM     22  C   UNL     1     -13.024   9.994  70.981  0.00  0.00    +0.105 C 
ENDBRANCH  16  17
ENDBRANCH  15  16
ENDBRANCH  14  15
ENDBRANCH  13  14
ENDBRANCH   2  13
BRANCH   9  23
ATOM     23  N   UNL     1     -10.279  15.322  70.161  0.00  0.00    -0.194 NA
BRANCH  23  24
ATOM     24  C   UNL     1     -11.426  15.112  70.971  0.00  0.00    +0.073 A 
ATOM     25  C   UNL     1     -11.401  15.252  72.344  0.00  0.00    +0.030 A 
ATOM     26  C   UNL     1     -12.563  15.462  73.047  0.00  0.00    +0.086 A 
ATOM     27 CL   UNL     1     -12.427  15.731  74.770  0.00  0.00    -0.080 Cl
ATOM     28  C   UNL     1     -13.779  15.628  72.395  0.00  0.00    +0.151 A 
ATOM     29  F   UNL     1     -14.719  16.364  73.012  0.00  0.00    -0.203 F 
ATOM     30  C   UNL     1     -13.810  15.278  71.065  0.00  0.00    +0.032 A 
ATOM     31  C   UNL     1     -12.650  14.976  70.366  0.00  0.00    +0.019 A 
ENDBRANCH  23  24
ENDBRANCH   9  23
TORSDOF 8
ENDMDL
MODEL 9
REMARK VINA RESULT:      -6.7      5.278      7.519
REMARK  Name = 
REMARK  8 active torsions:
REMARK  status: ('A' for Active; 'I' for Inactive)
REMARK    1  A    between atoms: O_2  and  C_3
REMARK    2  A    between atoms: C_9  and  N_10
REMARK    3  A    between atoms: N_10  and  C_11
REMARK    4  A    between atoms: C_21  and  O_22
REMARK    5  A    between atoms: O_22  and  C_23
REMARK    6  A    between atoms: C_23  and  C_24
REMARK    7  A    between atoms: C_24  and  C_25
REMARK    8  A    between atoms: C_25  and  N_26
REMARK                            x       y       z     vdW  Elec       q    Type
REMARK                         _______ _______ _______ _____ _____    ______ ____
ROOT
ATOM      1  C   UNL     1     -12.706  11.907  70.978  0.00  0.00    +0.174 A 
ATOM      2  C   UNL     1     -11.747  11.620  70.013  0.00  0.00    +0.172 A 
ATOM      3  C   UNL     1     -11.209  10.342  69.948  0.00  0.00    +0.044 A 
ATOM      4  C   UNL     1     -11.681   9.371  70.822  0.00  0.00    +0.054 A 
ATOM      5  C   UNL     1     -12.803   9.603  71.609  0.00  0.00    +0.089 A 
ATOM      6  N   UNL     1     -13.688   8.614  71.873  0.00  0.00    -0.224 NA
ATOM      7  C   UNL     1     -13.379   7.347  71.508  0.00  0.00    +0.200 A 
ATOM      8  N   UNL     1     -12.163   7.071  70.980  0.00  0.00    -0.207 NA
ATOM      9  C   UNL     1     -11.313   8.049  70.641  0.00  0.00    +0.155 A 
ATOM     10  C   UNL     1     -13.102  10.932  71.886  0.00  0.00    +0.059 A 
ENDROOT
BRANCH   1  12
ATOM     11  C   UNL     1     -13.709  13.676  72.349  0.00  0.00    +0.253 C 
ATOM     12  O   UNL     1     -12.953  13.263  71.213  0.00  0.00    -0.468 OA
ENDBRANCH   1  12
BRANCH   2  13
ATOM     13  O   UNL     1     -11.714  12.372  68.834  0.00  0.00    -0.472 OA
BRANCH  13  14
ATOM     14  C   UNL     1     -11.215  11.728  67.690  0.00  0.00    +0.207 C 
BRANCH  14  15
ATOM     15  C   UNL     1      -9.824  12.208  67.308  0.00  0.00    +0.065 C 
BRANCH  15  16
ATOM     16  C   UNL     1      -9.573  11.997  65.820  0.00  0.00    +0.076 C 
BRANCH  16  17
ATOM     17  N   UNL     1     -10.738  12.460  65.116  0.00  0.00    -0.268 NA
ATOM     18  C   UNL     1     -11.076  11.674  63.961  0.00  0.00    +0.105 C 
ATOM     19  C   UNL     1     -12.436  12.170  63.483  0.00  0.00    +0.159 C 
ATOM     20  O   UNL     1     -12.460  13.547  63.318  0.00  0.00    -0.351 OA
ATOM     21  C   UNL     1     -12.168  14.248  64.474  0.00  0.00    +0.159 C 
ATOM     22  C   UNL     1     -10.742  13.879  64.868  0.00  0.00    +0.105 C 
ENDBRANCH  16  17
ENDBRANCH  15  16
ENDBRANCH  14  15
ENDBRANCH  13  14
ENDBRANCH   2  13
BRANCH   9  23
ATOM     23  N   UNL     1      -9.984   7.815  70.186  0.00  0.00    -0.194 NA
BRANCH  23  24
ATOM     24  C   UNL     1      -9.839   7.102  68.967  0.00  0.00    +0.073 A 
ATOM     25  C   UNL     1      -9.498   5.766  68.925  0.00  0.00    +0.030 A 
ATOM     26  C   UNL     1      -9.772   5.008  67.812  0.00  0.00    +0.086 A 
ATOM     27 CL   UNL     1      -9.399   3.301  67.884  0.00  0.00    -0.080 Cl
ATOM     28  C   UNL     1     -10.477   5.537  66.737  0.00  0.00    +0.151 A 
ATOM     29  F   UNL     1     -11.193   4.684  65.984  0.00  0.00    -0.203 F 
ATOM     30  C   UNL     1     -10.617   6.905  66.713  0.00  0.00    +0.032 A 
ATOM     31  C   UNL     1     -10.259   7.690  67.800  0.00  0.00    +0.019 A 
ENDBRANCH  23  24
ENDBRANCH   9  23
TORSDOF 8
ENDMDL
