MODEL 1
REMARK VINA RESULT:      -7.0      0.000      0.000
REMARK  Name = 
REMARK  2 active torsions:
REMARK  status: ('A' for Active; 'I' for Inactive)
REMARK    1  A    between atoms: C_21  and  C_23
REMARK    2  A    between atoms: C_23  and  C_25
REMARK                            x       y       z     vdW  Elec       q    Type
REMARK                         _______ _______ _______ _____ _____    ______ ____
ROOT
ATOM      1  C   UNL     1     -10.736  14.095  68.269  0.00  0.00    +0.003 C 
ATOM      2  C   UNL     1      -9.959  13.546  67.164  0.00  0.00    +0.039 C 
ATOM      3  C   UNL     1     -10.629  12.410  66.491  0.00  0.00    +0.180 C 
ATOM      4  O   UNL     1     -10.064  12.257  65.216  0.00  0.00    -0.218 OA
ATOM      5  C   UNL     1     -12.030  12.985  66.305  0.00  0.00    +0.038 C 
ATOM      6  C   UNL     1     -11.846  14.501  66.227  0.00  0.00    +0.003 C 
ATOM      7  C   UNL     1     -10.250  14.507  65.868  0.00  0.00    +0.004 C 
ATOM      8  C   UNL     1      -9.960  15.909  66.778  0.00  0.00    +0.008 C 
ATOM      9  C   UNL     1     -10.526  16.838  65.590  0.00  0.00    +0.005 C 
ATOM     10  C   UNL     1     -10.381  18.174  66.228  0.00  0.00    +0.022 C 
ATOM     11  C   UNL     1      -9.097  18.275  66.931  0.00  0.00    -0.038 C 
ATOM     12  C   UNL     1      -8.012  17.324  67.062  0.00  0.00    +0.040 C 
ATOM     13  C   UNL     1      -7.533  16.987  68.392  0.00  0.00    +0.009 C 
ATOM     14  C   UNL     1      -6.871  17.871  66.253  0.00  0.00    -0.019 C 
ATOM     15  C   UNL     1      -6.621  19.182  66.196  0.00  0.00    +0.038 C 
ATOM     16  C   UNL     1      -7.425  20.060  67.059  0.00  0.00    +0.195 C 
ATOM     17  O   UNL     1      -7.097  21.230  67.346  0.00  0.00    -0.287 OA
ATOM     18  C   UNL     1      -8.774  19.520  67.297  0.00  0.00    +0.034 C 
ATOM     19  C   UNL     1      -8.365  15.993  66.180  0.00  0.00    +0.065 C 
ATOM     20  C   UNL     1      -7.862  14.907  67.274  0.00  0.00    +0.151 C 
ATOM     21  O   UNL     1      -6.630  14.902  67.227  0.00  0.00    -0.296 OA
ATOM     22  C   UNL     1      -8.506  13.585  67.223  0.00  0.00    +0.067 C 
ENDROOT
BRANCH   3  23
ATOM     23  C   UNL     1     -10.633  11.125  67.213  0.00  0.00    +0.211 C 
ATOM     24  O   UNL     1     -11.737  10.789  67.651  0.00  0.00    -0.291 OA
BRANCH  23  25
ATOM     25  C   UNL     1      -9.929  10.023  66.474  0.00  0.00    +0.248 C 
ATOM     26  O   UNL     1     -10.569   8.821  66.807  0.00  0.00    -0.212 OA
ENDBRANCH  23  25
ENDBRANCH   3  23
TORSDOF 2
ENDMDL
MODEL 2
REMARK VINA RESULT:      -6.9      1.834      7.073
REMARK  Name = 
REMARK  2 active torsions:
REMARK  status: ('A' for Active; 'I' for Inactive)
REMARK    1  A    between atoms: C_21  and  C_23
REMARK    2  A    between atoms: C_23  and  C_25
REMARK                            x       y       z     vdW  Elec       q    Type
REMARK                         _______ _______ _______ _____ _____    ______ ____
ROOT
ATOM      1  C   UNL     1      -6.631  17.730  66.484  0.00  0.00    +0.003 C 
ATOM      2  C   UNL     1      -7.222  18.076  67.772  0.00  0.00    +0.039 C 
ATOM      3  C   UNL     1      -6.899  19.453  68.208  0.00  0.00    +0.180 C 
ATOM      4  O   UNL     1      -7.841  19.843  69.172  0.00  0.00    -0.218 OA
ATOM      5  C   UNL     1      -7.203  20.227  66.930  0.00  0.00    +0.038 C 
ATOM      6  C   UNL     1      -8.264  19.408  66.195  0.00  0.00    +0.003 C 
ATOM      7  C   UNL     1      -8.772  18.517  67.470  0.00  0.00    +0.004 C 
ATOM      8  C   UNL     1      -9.032  17.139  66.516  0.00  0.00    +0.008 C 
ATOM      9  C   UNL     1     -10.440  17.723  65.996  0.00  0.00    +0.005 C 
ATOM     10  C   UNL     1     -10.842  16.624  65.078  0.00  0.00    +0.022 C 
ATOM     11  C   UNL     1     -10.567  15.317  65.683  0.00  0.00    -0.038 C 
ATOM     12  C   UNL     1     -10.015  14.970  66.977  0.00  0.00    +0.040 C 
ATOM     13  C   UNL     1      -8.868  14.078  67.033  0.00  0.00    +0.009 C 
ATOM     14  C   UNL     1     -11.141  14.372  67.770  0.00  0.00    -0.019 C 
ATOM     15  C   UNL     1     -12.064  13.596  67.196  0.00  0.00    +0.038 C 
ATOM     16  C   UNL     1     -11.863  13.242  65.783  0.00  0.00    +0.195 C 
ATOM     17  O   UNL     1     -12.449  12.292  65.223  0.00  0.00    -0.287 OA
ATOM     18  C   UNL     1     -11.139  14.291  65.045  0.00  0.00    +0.034 C 
ATOM     19  C   UNL     1      -9.769  16.342  67.832  0.00  0.00    +0.065 C 
ATOM     20  C   UNL     1      -8.321  15.927  68.435  0.00  0.00    +0.151 C 
ATOM     21  O   UNL     1      -8.533  15.119  69.340  0.00  0.00    -0.296 OA
ATOM     22  C   UNL     1      -7.415  17.036  68.771  0.00  0.00    +0.067 C 
ENDROOT
BRANCH   3  23
ATOM     23  C   UNL     1      -5.528  19.685  68.699  0.00  0.00    +0.211 C 
ATOM     24  O   UNL     1      -4.863  20.461  68.008  0.00  0.00    -0.291 OA
BRANCH  23  25
ATOM     25  C   UNL     1      -5.466  19.997  70.168  0.00  0.00    +0.248 C 
ATOM     26  O   UNL     1      -5.049  21.329  70.294  0.00  0.00    -0.212 OA
ENDBRANCH  23  25
ENDBRANCH   3  23
TORSDOF 2
ENDMDL
MODEL 3
REMARK VINA RESULT:      -6.9      1.897      7.041
REMARK  Name = 
REMARK  2 active torsions:
REMARK  status: ('A' for Active; 'I' for Inactive)
REMARK    1  A    between atoms: C_21  and  C_23
REMARK    2  A    between atoms: C_23  and  C_25
REMARK                            x       y       z     vdW  Elec       q    Type
REMARK                         _______ _______ _______ _____ _____    ______ ____
ROOT
ATOM      1  C   UNL     1     -10.839  15.895  68.422  0.00  0.00    +0.003 C 
ATOM      2  C   UNL     1     -10.242  16.244  67.139  0.00  0.00    +0.039 C 
ATOM      3  C   UNL     1      -9.534  17.544  67.162  0.00  0.00    +0.180 C 
ATOM      4  O   UNL     1      -8.638  17.578  66.082  0.00  0.00    -0.218 OA
ATOM      5  C   UNL     1      -8.710  17.388  68.436  0.00  0.00    +0.038 C 
ATOM      6  C   UNL     1      -8.487  15.885  68.600  0.00  0.00    +0.003 C 
ATOM      7  C   UNL     1      -8.811  15.447  67.058  0.00  0.00    +0.004 C 
ATOM      8  C   UNL     1      -9.538  13.990  67.531  0.00  0.00    +0.008 C 
ATOM      9  C   UNL     1      -8.098  13.296  67.729  0.00  0.00    +0.005 C 
ATOM     10  C   UNL     1      -8.531  11.951  68.195  0.00  0.00    +0.022 C 
ATOM     11  C   UNL     1      -9.671  11.473  67.406  0.00  0.00    -0.038 C 
ATOM     12  C   UNL     1     -10.374  12.079  66.294  0.00  0.00    +0.040 C 
ATOM     13  C   UNL     1     -11.818  12.223  66.373  0.00  0.00    +0.009 C 
ATOM     14  C   UNL     1     -10.027  11.265  65.080  0.00  0.00    -0.019 C 
ATOM     15  C   UNL     1      -9.881   9.939  65.148  0.00  0.00    +0.038 C 
ATOM     16  C   UNL     1     -10.199   9.290  66.429  0.00  0.00    +0.195 C 
ATOM     17  O   UNL     1     -10.415   8.066  66.544  0.00  0.00    -0.287 OA
ATOM     18  C   UNL     1      -9.946  10.176  67.578  0.00  0.00    +0.034 C 
ATOM     19  C   UNL     1      -9.636  13.486  65.905  0.00  0.00    +0.065 C 
ATOM     20  C   UNL     1     -10.990  14.350  65.684  0.00  0.00    +0.151 C 
ATOM     21  O   UNL     1     -11.450  14.014  64.590  0.00  0.00    -0.296 OA
ATOM     22  C   UNL     1     -10.881  15.800  65.909  0.00  0.00    +0.067 C 
ENDROOT
BRANCH   3  23
ATOM     23  C   UNL     1     -10.376  18.753  67.174  0.00  0.00    +0.211 C 
ATOM     24  O   UNL     1     -10.474  19.296  68.279  0.00  0.00    -0.291 OA
BRANCH  23  25
ATOM     25  C   UNL     1     -10.053  19.717  66.067  0.00  0.00    +0.248 C 
ATOM     26  O   UNL     1     -11.132  19.701  65.172  0.00  0.00    -0.212 OA
ENDBRANCH  23  25
ENDBRANCH   3  23
TORSDOF 2
ENDMDL
MODEL 4
REMARK VINA RESULT:      -6.7      2.153      3.168
REMARK  Name = 
REMARK  2 active torsions:
REMARK  status: ('A' for Active; 'I' for Inactive)
REMARK    1  A    between atoms: C_21  and  C_23
REMARK    2  A    between atoms: C_23  and  C_25
REMARK                            x       y       z     vdW  Elec       q    Type
REMARK                         _______ _______ _______ _____ _____    ______ ____
ROOT
ATOM      1  C   UNL     1      -9.605  13.422  65.560  0.00  0.00    +0.003 C 
ATOM      2  C   UNL     1     -10.899  14.089  65.638  0.00  0.00    +0.039 C 
ATOM      3  C   UNL     1     -12.041  13.150  65.591  0.00  0.00    +0.180 C 
ATOM      4  O   UNL     1     -13.168  13.799  66.119  0.00  0.00    -0.218 OA
ATOM      5  C   UNL     1     -11.589  12.113  66.614  0.00  0.00    +0.038 C 
ATOM      6  C   UNL     1     -10.677  12.863  67.585  0.00  0.00    +0.003 C 
ATOM      7  C   UNL     1     -11.178  14.378  67.227  0.00  0.00    +0.004 C 
ATOM      8  C   UNL     1      -9.629  15.035  67.433  0.00  0.00    +0.008 C 
ATOM      9  C   UNL     1      -9.808  15.044  69.034  0.00  0.00    +0.005 C 
ATOM     10  C   UNL     1      -8.481  15.585  69.431  0.00  0.00    +0.022 C 
ATOM     11  C   UNL     1      -8.089  16.692  68.553  0.00  0.00    -0.038 C 
ATOM     12  C   UNL     1      -8.782  17.307  67.439  0.00  0.00    +0.040 C 
ATOM     13  C   UNL     1      -8.094  17.421  66.163  0.00  0.00    +0.009 C 
ATOM     14  C   UNL     1      -9.191  18.677  67.900  0.00  0.00    -0.019 C 
ATOM     15  C   UNL     1      -8.408  19.407  68.698  0.00  0.00    +0.038 C 
ATOM     16  C   UNL     1      -7.072  18.874  69.005  0.00  0.00    +0.195 C 
ATOM     17  O   UNL     1      -6.141  19.571  69.456  0.00  0.00    -0.287 OA
ATOM     18  C   UNL     1      -7.049  17.401  69.002  0.00  0.00    +0.034 C 
ATOM     19  C   UNL     1     -10.255  16.614  67.284  0.00  0.00    +0.065 C 
ATOM     20  C   UNL     1     -10.237  16.503  65.665  0.00  0.00    +0.151 C 
ATOM     21  O   UNL     1     -10.461  17.635  65.231  0.00  0.00    -0.296 OA
ATOM     22  C   UNL     1     -11.048  15.425  65.078  0.00  0.00    +0.067 C 
ENDROOT
BRANCH   3  23
ATOM     23  C   UNL     1     -12.353  12.555  64.279  0.00  0.00    +0.211 C 
ATOM     24  O   UNL     1     -12.471  13.373  63.362  0.00  0.00    -0.291 OA
BRANCH  23  25
ATOM     25  C   UNL     1     -11.468  11.392  63.926  0.00  0.00    +0.248 C 
ATOM     26  O   UNL     1     -10.591  11.826  62.922  0.00  0.00    -0.212 OA
ENDBRANCH  23  25
ENDBRANCH   3  23
TORSDOF 2
ENDMDL
MODEL 5
REMARK VINA RESULT:      -6.5      3.009      7.540
REMARK  Name = 
REMARK  2 active torsions:
REMARK  status: ('A' for Active; 'I' for Inactive)
REMARK    1  A    between atoms: C_21  and  C_23
REMARK    2  A    between atoms: C_23  and  C_25
REMARK                            x       y       z     vdW  Elec       q    Type
REMARK                         _______ _______ _______ _____ _____    ______ ____
ROOT
ATOM      1  C   UNL     1      -8.859  13.695  66.875  0.00  0.00    +0.003 C 
ATOM      2  C   UNL     1     -10.235  13.586  67.343  0.00  0.00    +0.039 C 
ATOM      3  C   UNL     1     -11.025  14.818  67.118  0.00  0.00    +0.180 C 
ATOM      4  O   UNL     1     -12.387  14.483  67.164  0.00  0.00    -0.218 OA
ATOM      5  C   UNL     1     -10.673  15.111  65.663  0.00  0.00    +0.038 C 
ATOM      6  C   UNL     1     -10.340  13.755  65.040  0.00  0.00    +0.003 C 
ATOM      7  C   UNL     1     -11.070  12.815  66.162  0.00  0.00    +0.004 C 
ATOM      8  C   UNL     1      -9.887  11.605  66.046  0.00  0.00    +0.008 C 
ATOM      9  C   UNL     1     -10.563  11.026  64.703  0.00  0.00    +0.005 C 
ATOM     10  C   UNL     1      -9.614   9.920  64.404  0.00  0.00    +0.022 C 
ATOM     11  C   UNL     1      -9.259   9.197  65.629  0.00  0.00    -0.038 C 
ATOM     12  C   UNL     1      -9.694   9.383  66.998  0.00  0.00    +0.040 C 
ATOM     13  C   UNL     1      -8.689   9.541  68.037  0.00  0.00    +0.009 C 
ATOM     14  C   UNL     1     -10.563   8.204  67.330  0.00  0.00    -0.019 C 
ATOM     15  C   UNL     1     -10.288   6.982  66.866  0.00  0.00    +0.038 C 
ATOM     16  C   UNL     1      -9.029   6.809  66.125  0.00  0.00    +0.195 C 
ATOM     17  O   UNL     1      -8.500   5.698  65.920  0.00  0.00    -0.287 OA
ATOM     18  C   UNL     1      -8.632   8.036  65.413  0.00  0.00    +0.034 C 
ATOM     19  C   UNL     1     -10.814  10.575  67.040  0.00  0.00    +0.065 C 
ATOM     20  C   UNL     1     -10.255  11.306  68.376  0.00  0.00    +0.151 C 
ATOM     21  O   UNL     1     -10.609  10.615  69.333  0.00  0.00    -0.296 OA
ATOM     22  C   UNL     1     -10.534  12.746  68.493  0.00  0.00    +0.067 C 
ENDROOT
BRANCH   3  23
ATOM     23  C   UNL     1     -10.741  15.956  68.011  0.00  0.00    +0.211 C 
ATOM     24  O   UNL     1     -10.574  17.032  67.430  0.00  0.00    -0.291 OA
BRANCH  23  25
ATOM     25  C   UNL     1     -11.688  16.052  69.175  0.00  0.00    +0.248 C 
ATOM     26  O   UNL     1     -10.941  15.821  70.339  0.00  0.00    -0.212 OA
ENDBRANCH  23  25
ENDBRANCH   3  23
TORSDOF 2
ENDMDL
MODEL 6
REMARK VINA RESULT:      -6.5      4.181      7.063
REMARK  Name = 
REMARK  2 active torsions:
REMARK  status: ('A' for Active; 'I' for Inactive)
REMARK    1  A    between atoms: C_21  and  C_23
REMARK    2  A    between atoms: C_23  and  C_25
REMARK                            x       y       z     vdW  Elec       q    Type
REMARK                         _______ _______ _______ _____ _____    ______ ____
ROOT
ATOM      1  C   UNL     1      -9.435   8.813  71.431  0.00  0.00    +0.003 C 
ATOM      2  C   UNL     1     -10.184   8.038  70.449  0.00  0.00    +0.039 C 
ATOM      3  C   UNL     1     -10.649   6.733  70.970  0.00  0.00    +0.180 C 
ATOM      4  O   UNL     1     -11.704   6.285  70.161  0.00  0.00    -0.218 OA
ATOM      5  C   UNL     1     -11.247   7.165  72.305  0.00  0.00    +0.038 C 
ATOM      6  C   UNL     1     -11.686   8.617  72.109  0.00  0.00    +0.003 C 
ATOM      7  C   UNL     1     -11.719   8.614  70.473  0.00  0.00    +0.004 C 
ATOM      8  C   UNL     1     -11.174  10.217  70.372  0.00  0.00    +0.008 C 
ATOM      9  C   UNL     1     -12.651  10.776  70.687  0.00  0.00    +0.005 C 
ATOM     10  C   UNL     1     -12.374  12.237  70.673  0.00  0.00    +0.022 C 
ATOM     11  C   UNL     1     -11.488  12.584  69.557  0.00  0.00    -0.038 C 
ATOM     12  C   UNL     1     -10.903  11.759  68.520  0.00  0.00    +0.040 C 
ATOM     13  C   UNL     1      -9.464  11.804  68.317  0.00  0.00    +0.009 C 
ATOM     14  C   UNL     1     -11.591  12.137  67.239  0.00  0.00    -0.019 C 
ATOM     15  C   UNL     1     -11.943  13.399  66.983  0.00  0.00    +0.038 C 
ATOM     16  C   UNL     1     -11.516  14.427  67.944  0.00  0.00    +0.195 C 
ATOM     17  O   UNL     1     -11.491  15.647  67.679  0.00  0.00    -0.287 OA
ATOM     18  C   UNL     1     -11.408  13.897  69.313  0.00  0.00    +0.034 C 
ATOM     19  C   UNL     1     -11.453  10.227  68.689  0.00  0.00    +0.065 C 
ATOM     20  C   UNL     1     -10.034   9.491  68.416  0.00  0.00    +0.151 C 
ATOM     21  O   UNL     1      -9.839   9.539  67.200  0.00  0.00    -0.296 OA
ATOM     22  C   UNL     1      -9.857   8.168  69.037  0.00  0.00    +0.067 C 
ENDROOT
BRANCH   3  23
ATOM     23  C   UNL     1      -9.627   5.681  71.120  0.00  0.00    +0.211 C 
ATOM     24  O   UNL     1      -9.410   5.343  72.286  0.00  0.00    -0.291 OA
BRANCH  23  25
ATOM     25  C   UNL     1      -9.831   4.516  70.193  0.00  0.00    +0.248 C 
ATOM     26  O   UNL     1      -9.862   3.357  70.981  0.00  0.00    -0.212 OA
ENDBRANCH  23  25
ENDBRANCH   3  23
TORSDOF 2
ENDMDL
MODEL 7
REMARK VINA RESULT:      -6.4      2.737      7.678
REMARK  Name = 
REMARK  2 active torsions:
REMARK  status: ('A' for Active; 'I' for Inactive)
REMARK    1  A    between atoms: C_21  and  C_23
REMARK    2  A    between atoms: C_23  and  C_25
REMARK                            x       y       z     vdW  Elec       q    Type
REMARK                         _______ _______ _______ _____ _____    ______ ____
ROOT
ATOM      1  C   UNL     1      -5.046  18.875  67.703  0.00  0.00    +0.003 C 
ATOM      2  C   UNL     1      -5.615  18.960  69.043  0.00  0.00    +0.039 C 
ATOM      3  C   UNL     1      -5.326  20.246  69.717  0.00  0.00    +0.180 C 
ATOM      4  O   UNL     1      -6.256  20.419  70.754  0.00  0.00    -0.218 OA
ATOM      5  C   UNL     1      -5.690  21.227  68.607  0.00  0.00    +0.038 C 
ATOM      6  C   UNL     1      -6.742  20.515  67.756  0.00  0.00    +0.003 C 
ATOM      7  C   UNL     1      -7.186  19.389  68.857  0.00  0.00    +0.004 C 
ATOM      8  C   UNL     1      -7.425  18.198  67.674  0.00  0.00    +0.008 C 
ATOM      9  C   UNL     1      -8.864  18.814  67.296  0.00  0.00    +0.005 C 
ATOM     10  C   UNL     1      -9.253  17.886  66.201  0.00  0.00    +0.022 C 
ATOM     11  C   UNL     1      -8.918  16.502  66.552  0.00  0.00    -0.038 C 
ATOM     12  C   UNL     1      -8.322  15.947  67.750  0.00  0.00    +0.040 C 
ATOM     13  C   UNL     1      -7.145  15.103  67.620  0.00  0.00    +0.009 C 
ATOM     14  C   UNL     1      -9.407  15.173  68.443  0.00  0.00    -0.019 C 
ATOM     15  C   UNL     1     -10.318  14.479  67.756  0.00  0.00    +0.038 C 
ATOM     16  C   UNL     1     -10.142  14.395  66.298  0.00  0.00    +0.195 C 
ATOM     17  O   UNL     1     -10.709  13.542  65.586  0.00  0.00    -0.287 OA
ATOM     18  C   UNL     1      -9.473  15.587  65.750  0.00  0.00    +0.034 C 
ATOM     19  C   UNL     1      -8.100  17.149  68.837  0.00  0.00    +0.065 C 
ATOM     20  C   UNL     1      -6.624  16.687  69.325  0.00  0.00    +0.151 C 
ATOM     21  O   UNL     1      -6.785  15.719  70.072  0.00  0.00    -0.296 OA
ATOM     22  C   UNL     1      -5.746  17.749  69.841  0.00  0.00    +0.067 C 
ENDROOT
BRANCH   3  23
ATOM     23  C   UNL     1      -3.952  20.436  70.215  0.00  0.00    +0.211 C 
ATOM     24  O   UNL     1      -3.181  20.952  69.402  0.00  0.00    -0.291 OA
BRANCH  23  25
ATOM     25  C   UNL     1      -3.894  21.074  71.575  0.00  0.00    +0.248 C 
ATOM     26  O   UNL     1      -3.603  20.060  72.499  0.00  0.00    -0.212 OA
ENDBRANCH  23  25
ENDBRANCH   3  23
TORSDOF 2
ENDMDL
MODEL 8
REMARK VINA RESULT:      -6.2      2.384      4.113
REMARK  Name = 
REMARK  2 active torsions:
REMARK  status: ('A' for Active; 'I' for Inactive)
REMARK    1  A    between atoms: C_21  and  C_23
REMARK    2  A    between atoms: C_23  and  C_25
REMARK                            x       y       z     vdW  Elec       q    Type
REMARK                         _______ _______ _______ _____ _____    ______ ____
ROOT
ATOM      1  C   UNL     1      -9.917  16.253  66.463  0.00  0.00    +0.003 C 
ATOM      2  C   UNL     1      -9.864  16.298  67.920  0.00  0.00    +0.039 C 
ATOM      3  C   UNL     1     -10.291  15.031  68.556  0.00  0.00    +0.180 C 
ATOM      4  O   UNL     1      -9.787  15.004  69.866  0.00  0.00    -0.218 OA
ATOM      5  C   UNL     1      -9.490  14.025  67.736  0.00  0.00    +0.038 C 
ATOM      6  C   UNL     1      -8.251  14.781  67.254  0.00  0.00    +0.003 C 
ATOM      7  C   UNL     1      -8.306  16.003  68.339  0.00  0.00    +0.004 C 
ATOM      8  C   UNL     1      -7.736  17.141  67.218  0.00  0.00    +0.008 C 
ATOM      9  C   UNL     1      -6.220  16.639  67.429  0.00  0.00    +0.005 C 
ATOM     10  C   UNL     1      -5.525  17.535  66.466  0.00  0.00    +0.022 C 
ATOM     11  C   UNL     1      -6.052  18.900  66.555  0.00  0.00    -0.038 C 
ATOM     12  C   UNL     1      -7.074  19.466  67.412  0.00  0.00    +0.040 C 
ATOM     13  C   UNL     1      -8.177  20.190  66.803  0.00  0.00    +0.009 C 
ATOM     14  C   UNL     1      -6.363  20.374  68.375  0.00  0.00    -0.019 C 
ATOM     15  C   UNL     1      -5.313  21.108  67.997  0.00  0.00    +0.038 C 
ATOM     16  C   UNL     1      -4.958  21.091  66.569  0.00  0.00    +0.195 C 
ATOM     17  O   UNL     1      -4.229  21.951  66.033  0.00  0.00    -0.287 OA
ATOM     18  C   UNL     1      -5.307  19.814  65.925  0.00  0.00    +0.034 C 
ATOM     19  C   UNL     1      -7.593  18.313  68.450  0.00  0.00    +0.065 C 
ATOM     20  C   UNL     1      -9.173  18.666  68.343  0.00  0.00    +0.151 C 
ATOM     21  O   UNL     1      -9.353  19.685  69.013  0.00  0.00    -0.296 OA
ATOM     22  C   UNL     1     -10.106  17.559  68.605  0.00  0.00    +0.067 C 
ENDROOT
BRANCH   3  23
ATOM     23  C   UNL     1     -11.737  14.746  68.551  0.00  0.00    +0.211 C 
ATOM     24  O   UNL     1     -12.069  13.810  67.819  0.00  0.00    -0.291 OA
BRANCH  23  25
ATOM     25  C   UNL     1     -12.333  14.661  69.928  0.00  0.00    +0.248 C 
ATOM     26  O   UNL     1     -12.813  15.937  70.254  0.00  0.00    -0.212 OA
ENDBRANCH  23  25
ENDBRANCH   3  23
TORSDOF 2
ENDMDL
MODEL 9
REMARK VINA RESULT:      -6.2      3.445      5.417
REMARK  Name = 
REMARK  2 active torsions:
REMARK  status: ('A' for Active; 'I' for Inactive)
REMARK    1  A    between atoms: C_21  and  C_23
REMARK    2  A    between atoms: C_23  and  C_25
REMARK                            x       y       z     vdW  Elec       q    Type
REMARK                         _______ _______ _______ _____ _____    ______ ____
ROOT
ATOM      1  C   UNL     1     -10.852   9.189  67.704  0.00  0.00    +0.003 C 
ATOM      2  C   UNL     1      -9.512   9.672  68.019  0.00  0.00    +0.039 C 
ATOM      3  C   UNL     1      -8.536   8.581  68.232  0.00  0.00    +0.180 C 
ATOM      4  O   UNL     1      -7.245   9.107  68.071  0.00  0.00    -0.218 OA
ATOM      5  C   UNL     1      -8.829   7.706  67.017  0.00  0.00    +0.038 C 
ATOM      6  C   UNL     1      -9.370   8.655  65.947  0.00  0.00    +0.003 C 
ATOM      7  C   UNL     1      -8.805  10.049  66.588  0.00  0.00    +0.004 C 
ATOM      8  C   UNL     1     -10.165  10.932  66.090  0.00  0.00    +0.008 C 
ATOM      9  C   UNL     1      -9.583  11.048  64.593  0.00  0.00    +0.005 C 
ATOM     10  C   UNL     1     -10.694  11.801  63.951  0.00  0.00    +0.022 C 
ATOM     11  C   UNL     1     -11.166  12.876  64.830  0.00  0.00    -0.038 C 
ATOM     12  C   UNL     1     -10.715  13.293  66.142  0.00  0.00    +0.040 C 
ATOM     13  C   UNL     1     -11.687  13.397  67.217  0.00  0.00    +0.009 C 
ATOM     14  C   UNL     1     -10.046  14.626  65.954  0.00  0.00    -0.019 C 
ATOM     15  C   UNL     1     -10.510  15.522  65.080  0.00  0.00    +0.038 C 
ATOM     16  C   UNL     1     -11.776  15.209  64.400  0.00  0.00    +0.195 C 
ATOM     17  O   UNL     1     -12.475  16.065  63.820  0.00  0.00    -0.287 OA
ATOM     18  C   UNL     1     -11.969  13.759  64.227  0.00  0.00    +0.034 C 
ATOM     19  C   UNL     1      -9.419  12.390  66.568  0.00  0.00    +0.065 C 
ATOM     20  C   UNL     1      -9.862  12.149  68.110  0.00  0.00    +0.151 C 
ATOM     21  O   UNL     1      -9.627  13.198  68.713  0.00  0.00    -0.296 OA
ATOM     22  C   UNL     1      -9.358  10.923  68.747  0.00  0.00    +0.067 C 
ENDROOT
BRANCH   3  23
ATOM     23  C   UNL     1      -8.640   7.842  69.503  0.00  0.00    +0.211 C 
ATOM     24  O   UNL     1      -8.857   6.634  69.374  0.00  0.00    -0.291 OA
BRANCH  23  25
ATOM     25  C   UNL     1      -7.523   8.145  70.462  0.00  0.00    +0.248 C 
ATOM     26  O   UNL     1      -7.993   9.119  71.354  0.00  0.00    -0.212 OA
ENDBRANCH  23  25
ENDBRANCH   3  23
TORSDOF 2
ENDMDL
