MODEL 1
REMARK VINA RESULT:      -8.8      0.000      0.000
REMARK  Name = 
REMARK  6 active torsions:
REMARK  status: ('A' for Active; 'I' for Inactive)
REMARK    1  A    between atoms: C_7  and  C_8
REMARK    2  A    between atoms: C_8  and  S_9
REMARK    3  A    between atoms: C_16  and  C_17
REMARK    4  A    between atoms: C_20  and  C_21
REMARK    5  A    between atoms: C_25  and  C_26
REMARK    6  A    between atoms: C_26  and  S_27
REMARK                            x       y       z     vdW  Elec       q    Type
REMARK                         _______ _______ _______ _____ _____    ______ ____
ROOT
ATOM      1  C   UNL     1     -11.784  15.002  69.025  0.00  0.00    -0.000 A 
ATOM      2  C   UNL     1     -12.162  14.972  70.477  0.00  0.00    -0.000 A 
ATOM      3  C   UNL     1     -12.438  13.661  71.152  0.00  0.00    -0.000 A 
ATOM      4  C   UNL     1     -12.337  12.381  70.377  0.00  0.00    -0.000 A 
ATOM      5  C   UNL     1     -11.959  12.412  68.926  0.00  0.00    -0.000 A 
ATOM      6  C   UNL     1     -11.683  13.723  68.251  0.00  0.00    -0.000 A 
ENDROOT
BRANCH   1  12
ATOM      7  C   UNL     1     -10.835  17.035  68.080  0.00  0.00    +0.001 C 
ATOM      8  C   UNL     1      -9.385  17.413  68.158  0.00  0.00    +0.012 C 
ATOM      9  C   UNL     1      -8.208  18.305  67.895  0.00  0.00    +0.075 C 
ATOM     10  C   UNL     1      -9.685  18.152  67.686  0.00  0.00    +0.170 C 
ATOM     11  C   UNL     1     -10.112  16.862  68.321  0.00  0.00    +0.012 C 
ATOM     12  C   UNL     1     -11.508  16.313  68.349  0.00  0.00    -0.001 C 
ATOM     13  O   UNL     1     -10.580  19.120  66.969  0.00  0.00    -0.292 OA
ATOM     14  C   UNL     1      -6.994  17.660  68.496  0.00  0.00    +0.009 C 
ATOM     15  C   UNL     1      -7.420  16.370  69.130  0.00  0.00    +0.005 C 
ATOM     16  C   UNL     1      -8.898  16.217  68.922  0.00  0.00    +0.026 C 
ATOM     17  C   UNL     1     -10.434  18.247  67.484  0.00  0.00    +0.001 C 
BRANCH   9  18
ATOM     18  C   UNL     1      -8.239  19.612  67.159  0.00  0.00    +0.133 C 
BRANCH  18  19
ATOM     19  S   UNL     1      -7.018  20.095  66.434  0.00  0.00    -0.107 S 
ATOM     20  O   UNL     1      -5.797  20.576  65.708  0.00  0.00    -0.291 OA
ATOM     21  O   UNL     1      -7.202  19.015  65.409  0.00  0.00    -0.371 OA
ATOM     22  O   UNL     1      -6.835  21.174  67.459  0.00  0.00    -0.371 OA
ENDBRANCH  18  19
ENDBRANCH   9  18
ENDBRANCH   1  12
BRANCH   4  23
ATOM     23  C   UNL     1     -12.613  11.071  71.053  0.00  0.00    -0.001 C 
ATOM     24  C   UNL     1     -11.577   9.986  71.038  0.00  0.00    +0.012 C 
ATOM     25  C   UNL     1     -10.227  10.066  70.389  0.00  0.00    +0.026 C 
ATOM     26  C   UNL     1     -11.143   9.179  71.179  0.00  0.00    +0.012 C 
ATOM     27  C   UNL     1     -10.441   7.873  71.408  0.00  0.00    +0.075 C 
ATOM     28  C   UNL     1      -9.091   7.953  70.760  0.00  0.00    +0.009 C 
ATOM     29  C   UNL     1     -12.421   8.858  71.895  0.00  0.00    +0.001 C 
ATOM     30  C   UNL     1     -12.297  10.130  71.304  0.00  0.00    +0.001 C 
ATOM     31  C   UNL     1      -8.958   9.308  70.130  0.00  0.00    +0.005 C 
ATOM     32  C   UNL     1     -11.710   8.632  71.667  0.00  0.00    +0.170 C 
ATOM     33  O   UNL     1     -12.902   8.123  72.423  0.00  0.00    -0.292 OA
BRANCH  27  34
ATOM     34  C   UNL     1     -10.994   6.695  72.154  0.00  0.00    +0.133 C 
BRANCH  34  35
ATOM     35  S   UNL     1     -10.080   5.826  72.966  0.00  0.00    -0.107 S 
ATOM     36  O   UNL     1      -9.165   4.957  73.779  0.00  0.00    -0.291 OA
ATOM     37  O   UNL     1     -10.051   6.866  74.046  0.00  0.00    -0.371 OA
ATOM     38  O   UNL     1     -10.108   4.786  71.885  0.00  0.00    -0.371 OA
ENDBRANCH  34  35
ENDBRANCH  27  34
ENDBRANCH   4  23
TORSDOF 6
ENDMDL
MODEL 2
REMARK VINA RESULT:      -8.8      0.053     10.882
REMARK  Name = 
REMARK  6 active torsions:
REMARK  status: ('A' for Active; 'I' for Inactive)
REMARK    1  A    between atoms: C_7  and  C_8
REMARK    2  A    between atoms: C_8  and  S_9
REMARK    3  A    between atoms: C_16  and  C_17
REMARK    4  A    between atoms: C_20  and  C_21
REMARK    5  A    between atoms: C_25  and  C_26
REMARK    6  A    between atoms: C_26  and  S_27
REMARK                            x       y       z     vdW  Elec       q    Type
REMARK                         _______ _______ _______ _____ _____    ______ ____
ROOT
ATOM      1  C   UNL     1     -12.355  12.405  70.359  0.00  0.00    -0.000 A 
ATOM      2  C   UNL     1     -11.989  12.424  68.904  0.00  0.00    -0.000 A 
ATOM      3  C   UNL     1     -11.704  13.728  68.220  0.00  0.00    -0.000 A 
ATOM      4  C   UNL     1     -11.784  15.013  68.989  0.00  0.00    -0.000 A 
ATOM      5  C   UNL     1     -12.150  14.994  70.444  0.00  0.00    -0.000 A 
ATOM      6  C   UNL     1     -12.435  13.690  71.128  0.00  0.00    -0.000 A 
ENDROOT
BRANCH   1  12
ATOM      7  C   UNL     1     -12.329  10.163  71.307  0.00  0.00    +0.001 C 
ATOM      8  C   UNL     1     -11.175   9.208  71.202  0.00  0.00    +0.012 C 
ATOM      9  C   UNL     1     -10.478   7.904  71.450  0.00  0.00    +0.075 C 
ATOM     10  C   UNL     1     -11.748   8.667  71.689  0.00  0.00    +0.170 C 
ATOM     11  C   UNL     1     -11.606  10.015  71.049  0.00  0.00    +0.012 C 
ATOM     12  C   UNL     1     -12.641  11.102  71.044  0.00  0.00    -0.001 C 
ATOM     13  O   UNL     1     -12.949   8.167  72.437  0.00  0.00    -0.292 OA
ATOM     14  C   UNL     1      -9.121   7.976  70.816  0.00  0.00    +0.009 C 
ATOM     15  C   UNL     1      -8.979   9.324  70.176  0.00  0.00    +0.005 C 
ATOM     16  C   UNL     1     -10.249  10.087  70.414  0.00  0.00    +0.026 C 
ATOM     17  C   UNL     1     -12.461   8.896  71.908  0.00  0.00    +0.001 C 
BRANCH   9  18
ATOM     18  C   UNL     1     -11.040   6.733  72.201  0.00  0.00    +0.133 C 
BRANCH  18  19
ATOM     19  S   UNL     1     -10.133   5.859  73.016  0.00  0.00    -0.107 S 
ATOM     20  O   UNL     1      -9.226   4.985  73.831  0.00  0.00    -0.291 OA
ATOM     21  O   UNL     1     -10.153   4.826  71.928  0.00  0.00    -0.371 OA
ATOM     22  O   UNL     1     -10.114   6.893  74.103  0.00  0.00    -0.371 OA
ENDBRANCH  18  19
ENDBRANCH   9  18
ENDBRANCH   1  12
BRANCH   4  23
ATOM     23  C   UNL     1     -11.498  16.317  68.304  0.00  0.00    -0.001 C 
ATOM     24  C   UNL     1     -10.102  16.866  68.289  0.00  0.00    +0.012 C 
ATOM     25  C   UNL     1      -8.897  16.227  68.913  0.00  0.00    +0.026 C 
ATOM     26  C   UNL     1      -9.372  17.416  68.131  0.00  0.00    +0.012 C 
ATOM     27  C   UNL     1      -8.192  18.305  67.875  0.00  0.00    +0.075 C 
ATOM     28  C   UNL     1      -6.987  17.666  68.499  0.00  0.00    +0.009 C 
ATOM     29  C   UNL     1     -10.412  18.242  67.435  0.00  0.00    +0.001 C 
ATOM     30  C   UNL     1     -10.822  17.037  68.037  0.00  0.00    +0.001 C 
ATOM     31  C   UNL     1      -7.422  16.383  69.141  0.00  0.00    +0.005 C 
ATOM     32  C   UNL     1      -9.667  18.149  67.648  0.00  0.00    +0.170 C 
ATOM     33  O   UNL     1     -10.551  19.110  66.908  0.00  0.00    -0.292 OA
BRANCH  27  34
ATOM     34  C   UNL     1      -8.213  19.604  67.126  0.00  0.00    +0.133 C 
BRANCH  34  35
ATOM     35  S   UNL     1      -6.989  20.070  66.396  0.00  0.00    -0.107 S 
ATOM     36  O   UNL     1      -5.764  20.536  65.665  0.00  0.00    -0.291 OA
ATOM     37  O   UNL     1      -6.808  21.169  67.400  0.00  0.00    -0.371 OA
ATOM     38  O   UNL     1      -7.170  18.970  65.392  0.00  0.00    -0.371 OA
ENDBRANCH  34  35
ENDBRANCH  27  34
ENDBRANCH   4  23
TORSDOF 6
ENDMDL
MODEL 3
REMARK VINA RESULT:      -8.6      4.138     12.232
REMARK  Name = 
REMARK  6 active torsions:
REMARK  status: ('A' for Active; 'I' for Inactive)
REMARK    1  A    between atoms: C_7  and  C_8
REMARK    2  A    between atoms: C_8  and  S_9
REMARK    3  A    between atoms: C_16  and  C_17
REMARK    4  A    between atoms: C_20  and  C_21
REMARK    5  A    between atoms: C_25  and  C_26
REMARK    6  A    between atoms: C_26  and  S_27
REMARK                            x       y       z     vdW  Elec       q    Type
REMARK                         _______ _______ _______ _____ _____    ______ ____
ROOT
ATOM      1  C   UNL     1     -11.257   7.119  72.287  0.00  0.00    -0.000 A 
ATOM      2  C   UNL     1     -10.074   8.001  72.013  0.00  0.00    -0.000 A 
ATOM      3  C   UNL     1     -10.274   9.355  71.400  0.00  0.00    -0.000 A 
ATOM      4  C   UNL     1     -11.656   9.828  71.061  0.00  0.00    -0.000 A 
ATOM      5  C   UNL     1     -12.839   8.947  71.335  0.00  0.00    -0.000 A 
ATOM      6  C   UNL     1     -12.639   7.593  71.948  0.00  0.00    -0.000 A 
ENDROOT
BRANCH   1  12
ATOM      7  C   UNL     1     -10.747   4.795  72.801  0.00  0.00    +0.001 C 
ATOM      8  C   UNL     1     -10.162   3.816  71.825  0.00  0.00    +0.012 C 
ATOM      9  C   UNL     1      -9.646   2.471  71.410  0.00  0.00    +0.075 C 
ATOM     10  C   UNL     1     -10.226   3.249  72.555  0.00  0.00    +0.170 C 
ATOM     11  C   UNL     1     -10.481   4.648  72.081  0.00  0.00    +0.012 C 
ATOM     12  C   UNL     1     -11.058   5.765  72.901  0.00  0.00    -0.001 C 
ATOM     13  O   UNL     1     -10.501   2.719  73.931  0.00  0.00    -0.292 OA
ATOM     14  C   UNL     1      -9.224   2.558  69.973  0.00  0.00    +0.009 C 
ATOM     15  C   UNL     1      -9.480   3.957  69.500  0.00  0.00    +0.005 C 
ATOM     16  C   UNL     1     -10.060   4.736  70.644  0.00  0.00    +0.026 C 
ATOM     17  C   UNL     1     -10.507   3.480  73.245  0.00  0.00    +0.001 C 
BRANCH   9  18
ATOM     18  C   UNL     1      -9.565   1.251  72.281  0.00  0.00    +0.133 C 
BRANCH  18  19
ATOM     19  S   UNL     1      -9.652  -0.115  71.668  0.00  0.00    -0.107 S 
ATOM     20  O   UNL     1      -9.737  -1.482  71.055  0.00  0.00    -0.291 OA
ATOM     21  O   UNL     1      -8.163  -0.263  71.790  0.00  0.00    -0.371 OA
ATOM     22  O   UNL     1     -11.139   0.034  71.546  0.00  0.00    -0.371 OA
ENDBRANCH  18  19
ENDBRANCH   9  18
ENDBRANCH   1  12
BRANCH   4  23
ATOM     23  C   UNL     1     -11.855  11.183  70.447  0.00  0.00    -0.001 C 
ATOM     24  C   UNL     1     -11.574  11.394  68.989  0.00  0.00    +0.012 C 
ATOM     25  C   UNL     1     -11.092  10.352  68.024  0.00  0.00    +0.026 C 
ATOM     26  C   UNL     1     -11.484  11.794  68.157  0.00  0.00    +0.012 C 
ATOM     27  C   UNL     1     -11.338  12.440  66.812  0.00  0.00    +0.075 C 
ATOM     28  C   UNL     1     -10.856  11.398  65.846  0.00  0.00    +0.009 C 
ATOM     29  C   UNL     1     -11.960  12.997  68.917  0.00  0.00    +0.001 C 
ATOM     30  C   UNL     1     -11.817  11.785  69.620  0.00  0.00    +0.001 C 
ATOM     31  C   UNL     1     -10.704  10.108  66.595  0.00  0.00    +0.005 C 
ATOM     32  C   UNL     1     -11.727  12.684  68.240  0.00  0.00    +0.170 C 
ATOM     33  O   UNL     1     -12.187  13.991  68.818  0.00  0.00    -0.292 OA
BRANCH  27  34
ATOM     34  C   UNL     1     -11.625  13.877  66.488  0.00  0.00    +0.133 C 
BRANCH  34  35
ATOM     35  S   UNL     1     -12.074  14.260  65.109  0.00  0.00    -0.107 S 
ATOM     36  O   UNL     1     -12.521  14.644  63.730  0.00  0.00    -0.291 OA
ATOM     37  O   UNL     1     -10.666  14.642  64.758  0.00  0.00    -0.371 OA
ATOM     38  O   UNL     1     -13.481  13.879  65.461  0.00  0.00    -0.371 OA
ENDBRANCH  34  35
ENDBRANCH  27  34
ENDBRANCH   4  23
TORSDOF 6
ENDMDL
MODEL 4
REMARK VINA RESULT:      -8.5      4.151      6.309
REMARK  Name = 
REMARK  6 active torsions:
REMARK  status: ('A' for Active; 'I' for Inactive)
REMARK    1  A    between atoms: C_7  and  C_8
REMARK    2  A    between atoms: C_8  and  S_9
REMARK    3  A    between atoms: C_16  and  C_17
REMARK    4  A    between atoms: C_20  and  C_21
REMARK    5  A    between atoms: C_25  and  C_26
REMARK    6  A    between atoms: C_26  and  S_27
REMARK                            x       y       z     vdW  Elec       q    Type
REMARK                         _______ _______ _______ _____ _____    ______ ____
ROOT
ATOM      1  C   UNL     1     -11.635   9.819  71.040  0.00  0.00    -0.000 A 
ATOM      2  C   UNL     1     -12.816   8.943  71.343  0.00  0.00    -0.000 A 
ATOM      3  C   UNL     1     -12.608   7.594  71.963  0.00  0.00    -0.000 A 
ATOM      4  C   UNL     1     -11.221   7.119  72.280  0.00  0.00    -0.000 A 
ATOM      5  C   UNL     1     -10.041   7.995  71.978  0.00  0.00    -0.000 A 
ATOM      6  C   UNL     1     -10.249   9.345  71.358  0.00  0.00    -0.000 A 
ENDROOT
BRANCH   1  12
ATOM      7  C   UNL     1     -11.806  11.768  69.591  0.00  0.00    +0.001 C 
ATOM      8  C   UNL     1     -11.470  11.773  68.128  0.00  0.00    +0.012 C 
ATOM      9  C   UNL     1     -11.325  12.414  66.780  0.00  0.00    +0.075 C 
ATOM     10  C   UNL     1     -11.718  12.662  68.206  0.00  0.00    +0.170 C 
ATOM     11  C   UNL     1     -11.559  11.376  68.961  0.00  0.00    +0.012 C 
ATOM     12  C   UNL     1     -11.843  11.170  70.420  0.00  0.00    -0.001 C 
ATOM     13  O   UNL     1     -12.189  13.968  68.777  0.00  0.00    -0.292 OA
ATOM     14  C   UNL     1     -10.833  11.371  65.821  0.00  0.00    +0.009 C 
ATOM     15  C   UNL     1     -10.674  10.085  66.576  0.00  0.00    +0.005 C 
ATOM     16  C   UNL     1     -11.068  10.333  68.002  0.00  0.00    +0.026 C 
ATOM     17  C   UNL     1     -11.955  12.976  68.881  0.00  0.00    +0.001 C 
BRANCH   9  18
ATOM     18  C   UNL     1     -11.620  13.847  66.449  0.00  0.00    +0.133 C 
BRANCH  18  19
ATOM     19  S   UNL     1     -12.079  14.220  65.071  0.00  0.00    -0.107 S 
ATOM     20  O   UNL     1     -12.539  14.592  63.692  0.00  0.00    -0.291 OA
ATOM     21  O   UNL     1     -13.470  13.775  65.415  0.00  0.00    -0.371 OA
ATOM     22  O   UNL     1     -10.688  14.664  64.728  0.00  0.00    -0.371 OA
ENDBRANCH  18  19
ENDBRANCH   9  18
ENDBRANCH   1  12
BRANCH   4  23
ATOM     23  C   UNL     1     -11.014   5.768  72.900  0.00  0.00    -0.001 C 
ATOM     24  C   UNL     1     -10.468   4.641  72.076  0.00  0.00    +0.012 C 
ATOM     25  C   UNL     1     -10.084   4.713  70.627  0.00  0.00    +0.026 C 
ATOM     26  C   UNL     1     -10.161   3.804  71.819  0.00  0.00    +0.012 C 
ATOM     27  C   UNL     1      -9.664   2.452  71.403  0.00  0.00    +0.075 C 
ATOM     28  C   UNL     1      -9.281   2.524  69.954  0.00  0.00    +0.009 C 
ATOM     29  C   UNL     1     -10.469   3.483  73.251  0.00  0.00    +0.001 C 
ATOM     30  C   UNL     1     -10.713   4.795  72.801  0.00  0.00    +0.001 C 
ATOM     31  C   UNL     1      -9.541   3.920  69.475  0.00  0.00    +0.005 C 
ATOM     32  C   UNL     1     -10.208   3.244  72.555  0.00  0.00    +0.170 C 
ATOM     33  O   UNL     1     -10.450   2.729  73.943  0.00  0.00    -0.292 OA
BRANCH  27  34
ATOM     34  C   UNL     1      -9.568   1.240  72.282  0.00  0.00    +0.133 C 
BRANCH  34  35
ATOM     35  S   UNL     1      -9.704  -0.131  71.687  0.00  0.00    -0.107 S 
ATOM     36  O   UNL     1      -9.838  -1.502  71.092  0.00  0.00    -0.291 OA
ATOM     37  O   UNL     1      -8.215  -0.304  71.748  0.00  0.00    -0.371 OA
ATOM     38  O   UNL     1     -11.192   0.043  71.626  0.00  0.00    -0.371 OA
ENDBRANCH  34  35
ENDBRANCH  27  34
ENDBRANCH   4  23
TORSDOF 6
ENDMDL
MODEL 5
REMARK VINA RESULT:      -8.1      2.302     11.309
REMARK  Name = 
REMARK  6 active torsions:
REMARK  status: ('A' for Active; 'I' for Inactive)
REMARK    1  A    between atoms: C_7  and  C_8
REMARK    2  A    between atoms: C_8  and  S_9
REMARK    3  A    between atoms: C_16  and  C_17
REMARK    4  A    between atoms: C_20  and  C_21
REMARK    5  A    between atoms: C_25  and  C_26
REMARK    6  A    between atoms: C_26  and  S_27
REMARK                            x       y       z     vdW  Elec       q    Type
REMARK                         _______ _______ _______ _____ _____    ______ ____
ROOT
ATOM      1  C   UNL     1     -10.556   9.333  67.227  0.00  0.00    -0.000 A 
ATOM      2  C   UNL     1      -9.741   9.709  66.024  0.00  0.00    -0.000 A 
ATOM      3  C   UNL     1      -9.837  11.094  65.456  0.00  0.00    -0.000 A 
ATOM      4  C   UNL     1     -10.748  12.103  66.089  0.00  0.00    -0.000 A 
ATOM      5  C   UNL     1     -11.564  11.727  67.291  0.00  0.00    -0.000 A 
ATOM      6  C   UNL     1     -11.467  10.342  67.859  0.00  0.00    -0.000 A 
ENDROOT
BRANCH   1  12
ATOM      7  C   UNL     1     -10.461   7.335  68.615  0.00  0.00    +0.001 C 
ATOM      8  C   UNL     1     -10.576   7.333  70.111  0.00  0.00    +0.012 C 
ATOM      9  C   UNL     1     -10.613   6.677  71.459  0.00  0.00    +0.075 C 
ATOM     10  C   UNL     1     -10.474   6.420  69.988  0.00  0.00    +0.170 C 
ATOM     11  C   UNL     1     -10.553   7.738  69.278  0.00  0.00    +0.012 C 
ATOM     12  C   UNL     1     -10.460   7.948  67.795  0.00  0.00    -0.001 C 
ATOM     13  O   UNL     1     -10.289   5.079  69.340  0.00  0.00    -0.292 OA
ATOM     14  C   UNL     1     -10.801   7.749  72.492  0.00  0.00    +0.009 C 
ATOM     15  C   UNL     1     -10.880   9.067  71.782  0.00  0.00    +0.005 C 
ATOM     16  C   UNL     1     -10.740   8.810  70.310  0.00  0.00    +0.026 C 
ATOM     17  C   UNL     1     -10.387   6.097  69.282  0.00  0.00    +0.001 C 
BRANCH   9  18
ATOM     18  C   UNL     1     -10.485   5.206  71.728  0.00  0.00    +0.133 C 
BRANCH  18  19
ATOM     19  S   UNL     1     -10.350   4.710  73.137  0.00  0.00    -0.107 S 
ATOM     20  O   UNL     1     -10.216   4.213  74.546  0.00  0.00    -0.291 OA
ATOM     21  O   UNL     1     -11.843   4.607  73.243  0.00  0.00    -0.371 OA
ATOM     22  O   UNL     1      -8.858   4.813  73.030  0.00  0.00    -0.371 OA
ENDBRANCH  18  19
ENDBRANCH   9  18
ENDBRANCH   1  12
BRANCH   4  23
ATOM     23  C   UNL     1     -10.845  13.488  65.521  0.00  0.00    -0.001 C 
ATOM     24  C   UNL     1     -10.291  14.653  66.286  0.00  0.00    +0.012 C 
ATOM     25  C   UNL     1      -9.617  14.588  67.625  0.00  0.00    +0.026 C 
ATOM     26  C   UNL     1     -10.048  15.515  66.527  0.00  0.00    +0.012 C 
ATOM     27  C   UNL     1      -9.654  16.909  66.916  0.00  0.00    +0.075 C 
ATOM     28  C   UNL     1      -8.980  16.844  68.254  0.00  0.00    +0.009 C 
ATOM     29  C   UNL     1     -10.677  15.836  65.204  0.00  0.00    +0.001 C 
ATOM     30  C   UNL     1     -10.656  14.489  65.615  0.00  0.00    +0.001 C 
ATOM     31  C   UNL     1      -8.958  15.410  68.693  0.00  0.00    +0.005 C 
ATOM     32  C   UNL     1     -10.314  16.087  65.848  0.00  0.00    +0.170 C 
ATOM     33  O   UNL     1     -10.894  16.608  64.566  0.00  0.00    -0.292 OA
BRANCH  27  34
ATOM     34  C   UNL     1      -9.893  18.150  66.107  0.00  0.00    +0.133 C 
BRANCH  34  35
ATOM     35  S   UNL     1      -9.796  19.498  66.757  0.00  0.00    -0.107 S 
ATOM     36  O   UNL     1      -9.698  20.847  67.406  0.00  0.00    -0.291 OA
ATOM     37  O   UNL     1      -8.423  19.677  66.179  0.00  0.00    -0.371 OA
ATOM     38  O   UNL     1     -11.168  19.319  67.335  0.00  0.00    -0.371 OA
ENDBRANCH  34  35
ENDBRANCH  27  34
ENDBRANCH   4  23
TORSDOF 6
ENDMDL
MODEL 6
REMARK VINA RESULT:      -8.1      2.308      3.337
REMARK  Name = 
REMARK  6 active torsions:
REMARK  status: ('A' for Active; 'I' for Inactive)
REMARK    1  A    between atoms: C_7  and  C_8
REMARK    2  A    between atoms: C_8  and  S_9
REMARK    3  A    between atoms: C_16  and  C_17
REMARK    4  A    between atoms: C_20  and  C_21
REMARK    5  A    between atoms: C_25  and  C_26
REMARK    6  A    between atoms: C_26  and  S_27
REMARK                            x       y       z     vdW  Elec       q    Type
REMARK                         _______ _______ _______ _____ _____    ______ ____
ROOT
ATOM      1  C   UNL     1     -10.743  12.101  66.072  0.00  0.00    -0.000 A 
ATOM      2  C   UNL     1     -11.522  11.729  67.300  0.00  0.00    -0.000 A 
ATOM      3  C   UNL     1     -11.415  10.344  67.864  0.00  0.00    -0.000 A 
ATOM      4  C   UNL     1     -10.529   9.330  67.203  0.00  0.00    -0.000 A 
ATOM      5  C   UNL     1      -9.751   9.702  65.975  0.00  0.00    -0.000 A 
ATOM      6  C   UNL     1      -9.858  11.087  65.411  0.00  0.00    -0.000 A 
ENDROOT
BRANCH   1  12
ATOM      7  C   UNL     1     -10.666  14.489  65.602  0.00  0.00    +0.001 C 
ATOM      8  C   UNL     1     -10.056  15.516  66.511  0.00  0.00    +0.012 C 
ATOM      9  C   UNL     1      -9.667  16.911  66.900  0.00  0.00    +0.075 C 
ATOM     10  C   UNL     1     -10.330  16.087  65.836  0.00  0.00    +0.170 C 
ATOM     11  C   UNL     1     -10.297  14.653  66.271  0.00  0.00    +0.012 C 
ATOM     12  C   UNL     1     -10.850  13.487  65.507  0.00  0.00    -0.001 C 
ATOM     13  O   UNL     1     -10.922  16.608  64.559  0.00  0.00    -0.292 OA
ATOM     14  C   UNL     1      -8.983  16.847  68.234  0.00  0.00    +0.009 C 
ATOM     15  C   UNL     1      -8.951  15.412  68.669  0.00  0.00    +0.005 C 
ATOM     16  C   UNL     1      -9.614  14.589  67.605  0.00  0.00    +0.026 C 
ATOM     17  C   UNL     1     -10.697  15.836  65.194  0.00  0.00    +0.001 C 
BRANCH   9  18
ATOM     18  C   UNL     1      -9.917  18.152  66.096  0.00  0.00    +0.133 C 
BRANCH  18  19
ATOM     19  S   UNL     1      -9.803  19.501  66.743  0.00  0.00    -0.107 S 
ATOM     20  O   UNL     1      -9.690  20.850  67.390  0.00  0.00    -0.291 OA
ATOM     21  O   UNL     1     -11.160  19.320  67.357  0.00  0.00    -0.371 OA
ATOM     22  O   UNL     1      -8.447  19.681  66.128  0.00  0.00    -0.371 OA
ENDBRANCH  18  19
ENDBRANCH   9  18
ENDBRANCH   1  12
BRANCH   4  23
ATOM     23  C   UNL     1     -10.423   7.944  67.768  0.00  0.00    -0.001 C 
ATOM     24  C   UNL     1     -10.522   7.730  69.249  0.00  0.00    +0.012 C 
ATOM     25  C   UNL     1     -10.726   8.797  70.284  0.00  0.00    +0.026 C 
ATOM     26  C   UNL     1     -10.546   7.321  70.082  0.00  0.00    +0.012 C 
ATOM     27  C   UNL     1     -10.584   6.661  71.428  0.00  0.00    +0.075 C 
ATOM     28  C   UNL     1     -10.789   7.728  72.462  0.00  0.00    +0.009 C 
ATOM     29  C   UNL     1     -10.340   6.090  69.250  0.00  0.00    +0.001 C 
ATOM     30  C   UNL     1     -10.422   7.329  68.586  0.00  0.00    +0.001 C 
ATOM     31  C   UNL     1     -10.876   9.048  71.755  0.00  0.00    +0.005 C 
ATOM     32  C   UNL     1     -10.434   6.410  69.956  0.00  0.00    +0.170 C 
ATOM     33  O   UNL     1     -10.231   5.073  69.306  0.00  0.00    -0.292 OA
BRANCH  27  34
ATOM     34  C   UNL     1     -10.443   5.191  71.693  0.00  0.00    +0.133 C 
BRANCH  34  35
ATOM     35  S   UNL     1     -10.163   4.703  73.083  0.00  0.00    -0.107 S 
ATOM     36  O   UNL     1      -9.884   4.215  74.474  0.00  0.00    -0.291 OA
ATOM     37  O   UNL     1     -11.630   4.467  73.294  0.00  0.00    -0.371 OA
ATOM     38  O   UNL     1      -8.697   4.940  72.872  0.00  0.00    -0.371 OA
ENDBRANCH  34  35
ENDBRANCH  27  34
ENDBRANCH   4  23
TORSDOF 6
ENDMDL
MODEL 7
REMARK VINA RESULT:      -8.1      3.615      5.742
REMARK  Name = 
REMARK  6 active torsions:
REMARK  status: ('A' for Active; 'I' for Inactive)
REMARK    1  A    between atoms: C_7  and  C_8
REMARK    2  A    between atoms: C_8  and  S_9
REMARK    3  A    between atoms: C_16  and  C_17
REMARK    4  A    between atoms: C_20  and  C_21
REMARK    5  A    between atoms: C_25  and  C_26
REMARK    6  A    between atoms: C_26  and  S_27
REMARK                            x       y       z     vdW  Elec       q    Type
REMARK                         _______ _______ _______ _____ _____    ______ ____
ROOT
ATOM      1  C   UNL     1     -10.452   9.422  69.237  0.00  0.00    -0.000 A 
ATOM      2  C   UNL     1     -11.660   9.279  70.116  0.00  0.00    -0.000 A 
ATOM      3  C   UNL     1     -11.522   8.698  71.491  0.00  0.00    -0.000 A 
ATOM      4  C   UNL     1     -10.177   8.258  71.989  0.00  0.00    -0.000 A 
ATOM      5  C   UNL     1      -8.969   8.400  71.110  0.00  0.00    -0.000 A 
ATOM      6  C   UNL     1      -9.107   8.982  69.735  0.00  0.00    -0.000 A 
ENDROOT
BRANCH   1  12
ATOM      7  C   UNL     1     -10.799  10.810  67.267  0.00  0.00    +0.001 C 
ATOM      8  C   UNL     1     -11.192  12.258  67.306  0.00  0.00    +0.012 C 
ATOM      9  C   UNL     1     -11.540  13.577  66.684  0.00  0.00    +0.075 C 
ATOM     10  C   UNL     1     -11.151  12.159  66.385  0.00  0.00    +0.170 C 
ATOM     11  C   UNL     1     -10.976  11.442  67.691  0.00  0.00    +0.012 C 
ATOM     12  C   UNL     1     -10.589  10.003  67.861  0.00  0.00    -0.001 C 
ATOM     13  O   UNL     1     -10.969  11.563  65.020  0.00  0.00    -0.292 OA
ATOM     14  C   UNL     1     -11.821  14.552  67.789  0.00  0.00    +0.009 C 
ATOM     15  C   UNL     1     -11.646  13.835  69.094  0.00  0.00    +0.005 C 
ATOM     16  C   UNL     1     -11.257  12.417  68.796  0.00  0.00    +0.026 C 
ATOM     17  C   UNL     1     -10.963  11.484  66.042  0.00  0.00    +0.001 C 
BRANCH   9  18
ATOM     18  C   UNL     1     -11.598  13.871  65.213  0.00  0.00    +0.133 C 
BRANCH  18  19
ATOM     19  S   UNL     1     -11.435  15.278  64.722  0.00  0.00    -0.107 S 
ATOM     20  O   UNL     1     -11.272  16.687  64.231  0.00  0.00    -0.291 OA
ATOM     21  O   UNL     1     -10.074  15.340  65.351  0.00  0.00    -0.371 OA
ATOM     22  O   UNL     1     -12.796  15.216  64.094  0.00  0.00    -0.371 OA
ENDBRANCH  18  19
ENDBRANCH   9  18
ENDBRANCH   1  12
BRANCH   4  23
ATOM     23  C   UNL     1     -10.040   7.677  73.365  0.00  0.00    -0.001 C 
ATOM     24  C   UNL     1     -10.033   6.188  73.553  0.00  0.00    +0.012 C 
ATOM     25  C   UNL     1     -10.154   5.162  72.466  0.00  0.00    +0.026 C 
ATOM     26  C   UNL     1      -9.999   5.349  73.946  0.00  0.00    +0.012 C 
ATOM     27  C   UNL     1      -9.945   3.992  74.581  0.00  0.00    +0.075 C 
ATOM     28  C   UNL     1     -10.066   2.966  73.494  0.00  0.00    +0.009 C 
ATOM     29  C   UNL     1      -9.864   6.170  75.193  0.00  0.00    +0.001 C 
ATOM     30  C   UNL     1      -9.985   6.850  73.966  0.00  0.00    +0.001 C 
ATOM     31  C   UNL     1     -10.195   3.688  72.187  0.00  0.00    +0.005 C 
ATOM     32  C   UNL     1      -9.904   5.465  74.860  0.00  0.00    +0.170 C 
ATOM     33  O   UNL     1      -9.760   6.104  76.210  0.00  0.00    -0.292 OA
BRANCH  27  34
ATOM     34  C   UNL     1      -9.796   3.710  76.047  0.00  0.00    +0.133 C 
BRANCH  34  35
ATOM     35  S   UNL     1      -8.952   2.559  76.508  0.00  0.00    -0.107 S 
ATOM     36  O   UNL     1      -8.109   1.408  76.970  0.00  0.00    -0.291 OA
ATOM     37  O   UNL     1     -10.193   1.786  76.845  0.00  0.00    -0.371 OA
ATOM     38  O   UNL     1      -7.712   3.334  76.172  0.00  0.00    -0.371 OA
ENDBRANCH  34  35
ENDBRANCH  27  34
ENDBRANCH   4  23
TORSDOF 6
ENDMDL
MODEL 8
REMARK VINA RESULT:      -7.9      5.217      7.154
REMARK  Name = 
REMARK  6 active torsions:
REMARK  status: ('A' for Active; 'I' for Inactive)
REMARK    1  A    between atoms: C_7  and  C_8
REMARK    2  A    between atoms: C_8  and  S_9
REMARK    3  A    between atoms: C_16  and  C_17
REMARK    4  A    between atoms: C_20  and  C_21
REMARK    5  A    between atoms: C_25  and  C_26
REMARK    6  A    between atoms: C_26  and  S_27
REMARK                            x       y       z     vdW  Elec       q    Type
REMARK                         _______ _______ _______ _____ _____    ______ ____
ROOT
ATOM      1  C   UNL     1      -9.995  12.226  66.903  0.00  0.00    -0.000 A 
ATOM      2  C   UNL     1     -10.742  11.539  65.799  0.00  0.00    -0.000 A 
ATOM      3  C   UNL     1     -10.188  10.288  65.183  0.00  0.00    -0.000 A 
ATOM      4  C   UNL     1      -8.887   9.724  65.672  0.00  0.00    -0.000 A 
ATOM      5  C   UNL     1      -8.139  10.412  66.776  0.00  0.00    -0.000 A 
ATOM      6  C   UNL     1      -8.694  11.662  67.391  0.00  0.00    -0.000 A 
ENDROOT
BRANCH   1  12
ATOM      7  C   UNL     1     -11.082  13.922  68.271  0.00  0.00    +0.001 C 
ATOM      8  C   UNL     1     -11.841  13.638  69.534  0.00  0.00    +0.012 C 
ATOM      9  C   UNL     1     -12.650  14.024  70.736  0.00  0.00    +0.075 C 
ATOM     10  C   UNL     1     -11.953  14.558  69.519  0.00  0.00    +0.170 C 
ATOM     11  C   UNL     1     -11.340  13.399  68.791  0.00  0.00    +0.012 C 
ATOM     12  C   UNL     1     -10.549  13.477  67.519  0.00  0.00    -0.001 C 
ATOM     13  O   UNL     1     -11.882  15.998  69.104  0.00  0.00    -0.292 OA
ATOM     14  C   UNL     1     -12.968  12.774  71.502  0.00  0.00    +0.009 C 
ATOM     15  C   UNL     1     -12.355  11.616  70.774  0.00  0.00    +0.005 C 
ATOM     16  C   UNL     1     -11.658  12.149  69.557  0.00  0.00    +0.026 C 
ATOM     17  C   UNL     1     -11.657  15.010  68.956  0.00  0.00    +0.001 C 
BRANCH   9  18
ATOM     18  C   UNL     1     -13.068  15.416  71.107  0.00  0.00    +0.133 C 
BRANCH  18  19
ATOM     19  S   UNL     1     -13.141  15.819  72.550  0.00  0.00    -0.107 S 
ATOM     20  O   UNL     1     -13.214  16.221  73.994  0.00  0.00    -0.291 OA
ATOM     21  O   UNL     1     -14.627  15.986  72.428  0.00  0.00    -0.371 OA
ATOM     22  O   UNL     1     -11.655  15.652  72.672  0.00  0.00    -0.371 OA
ENDBRANCH  18  19
ENDBRANCH   9  18
ENDBRANCH   1  12
BRANCH   4  23
ATOM     23  C   UNL     1      -8.333   8.473  65.056  0.00  0.00    -0.001 C 
ATOM     24  C   UNL     1      -8.743   7.132  65.587  0.00  0.00    +0.012 C 
ATOM     25  C   UNL     1      -9.692   6.885  66.721  0.00  0.00    +0.026 C 
ATOM     26  C   UNL     1      -8.816   6.215  65.704  0.00  0.00    +0.012 C 
ATOM     27  C   UNL     1      -8.936   4.732  65.895  0.00  0.00    +0.075 C 
ATOM     28  C   UNL     1      -9.885   4.485  67.029  0.00  0.00    +0.009 C 
ATOM     29  C   UNL     1      -7.850   6.202  64.558  0.00  0.00    +0.001 C 
ATOM     30  C   UNL     1      -8.289   7.451  65.037  0.00  0.00    +0.001 C 
ATOM     31  C   UNL     1     -10.353   5.815  67.540  0.00  0.00    +0.005 C 
ATOM     32  C   UNL     1      -8.275   5.802  65.076  0.00  0.00    +0.170 C 
ATOM     33  O   UNL     1      -7.315   5.579  63.944  0.00  0.00    -0.292 OA
BRANCH  27  34
ATOM     34  C   UNL     1      -8.229   3.681  65.091  0.00  0.00    +0.133 C 
BRANCH  34  35
ATOM     35  S   UNL     1      -8.781   2.287  65.028  0.00  0.00    -0.107 S 
ATOM     36  O   UNL     1      -9.332   0.893  64.966  0.00  0.00    -0.291 OA
ATOM     37  O   UNL     1      -7.772   1.843  66.046  0.00  0.00    -0.371 OA
ATOM     38  O   UNL     1      -9.789   2.733  64.011  0.00  0.00    -0.371 OA
ENDBRANCH  34  35
ENDBRANCH  27  34
ENDBRANCH   4  23
TORSDOF 6
ENDMDL
MODEL 9
REMARK VINA RESULT:      -7.7      5.287     10.448
REMARK  Name = 
REMARK  6 active torsions:
REMARK  status: ('A' for Active; 'I' for Inactive)
REMARK    1  A    between atoms: C_7  and  C_8
REMARK    2  A    between atoms: C_8  and  S_9
REMARK    3  A    between atoms: C_16  and  C_17
REMARK    4  A    between atoms: C_20  and  C_21
REMARK    5  A    between atoms: C_25  and  C_26
REMARK    6  A    between atoms: C_26  and  S_27
REMARK                            x       y       z     vdW  Elec       q    Type
REMARK                         _______ _______ _______ _____ _____    ______ ____
ROOT
ATOM      1  C   UNL     1      -8.932  10.099  65.368  0.00  0.00    -0.000 A 
ATOM      2  C   UNL     1     -10.303  10.589  65.003  0.00  0.00    -0.000 A 
ATOM      3  C   UNL     1     -10.867  11.807  65.674  0.00  0.00    -0.000 A 
ATOM      4  C   UNL     1     -10.062  12.534  66.709  0.00  0.00    -0.000 A 
ATOM      5  C   UNL     1      -8.691  12.044  67.073  0.00  0.00    -0.000 A 
ATOM      6  C   UNL     1      -8.127  10.827  66.402  0.00  0.00    -0.000 A 
ENDROOT
BRANCH   1  12
ATOM      7  C   UNL     1      -8.249   7.865  64.682  0.00  0.00    +0.001 C 
ATOM      8  C   UNL     1      -8.592   6.606  65.422  0.00  0.00    +0.012 C 
ATOM      9  C   UNL     1      -8.574   5.122  65.640  0.00  0.00    +0.075 C 
ATOM     10  C   UNL     1      -8.106   6.222  64.733  0.00  0.00    +0.170 C 
ATOM     11  C   UNL     1      -8.604   7.523  65.288  0.00  0.00    +0.012 C 
ATOM     12  C   UNL     1      -8.368   8.881  64.697  0.00  0.00    -0.001 C 
ATOM     13  O   UNL     1      -7.283   6.051  63.490  0.00  0.00    -0.292 OA
ATOM     14  C   UNL     1      -9.350   4.826  66.889  0.00  0.00    +0.009 C 
ATOM     15  C   UNL     1      -9.848   6.127  67.443  0.00  0.00    +0.005 C 
ATOM     16  C   UNL     1      -9.380   7.227  66.537  0.00  0.00    +0.026 C 
ATOM     17  C   UNL     1      -7.781   6.643  64.162  0.00  0.00    +0.001 C 
BRANCH   9  18
ATOM     18  C   UNL     1      -7.897   4.111  64.761  0.00  0.00    +0.133 C 
BRANCH  18  19
ATOM     19  S   UNL     1      -8.285   2.665  64.846  0.00  0.00    -0.107 S 
ATOM     20  O   UNL     1      -8.674   1.218  64.929  0.00  0.00    -0.291 OA
ATOM     21  O   UNL     1      -9.411   2.912  63.886  0.00  0.00    -0.371 OA
ATOM     22  O   UNL     1      -7.159   2.418  65.806  0.00  0.00    -0.371 OA
ENDBRANCH  18  19
ENDBRANCH   9  18
ENDBRANCH   1  12
BRANCH   4  23
ATOM     23  C   UNL     1     -10.626  13.752  67.379  0.00  0.00    -0.001 C 
ATOM     24  C   UNL     1     -11.376  13.616  68.671  0.00  0.00    +0.012 C 
ATOM     25  C   UNL     1     -11.641  12.336  69.407  0.00  0.00    +0.026 C 
ATOM     26  C   UNL     1     -11.859  13.820  69.436  0.00  0.00    +0.012 C 
ATOM     27  C   UNL     1     -12.640  14.149  70.673  0.00  0.00    +0.075 C 
ATOM     28  C   UNL     1     -12.905  12.869  71.409  0.00  0.00    +0.009 C 
ATOM     29  C   UNL     1     -11.727  15.213  68.895  0.00  0.00    +0.001 C 
ATOM     30  C   UNL     1     -11.146  14.161  68.160  0.00  0.00    +0.001 C 
ATOM     31  C   UNL     1     -12.287  11.749  70.627  0.00  0.00    +0.005 C 
ATOM     32  C   UNL     1     -11.994  14.736  69.453  0.00  0.00    +0.170 C 
ATOM     33  O   UNL     1     -11.970  16.190  69.081  0.00  0.00    -0.292 OA
BRANCH  27  34
ATOM     34  C   UNL     1     -13.080  15.519  71.099  0.00  0.00    +0.133 C 
BRANCH  34  35
ATOM     35  S   UNL     1     -13.140  15.868  72.557  0.00  0.00    -0.107 S 
ATOM     36  O   UNL     1     -13.202  16.217  74.014  0.00  0.00    -0.291 OA
ATOM     37  O   UNL     1     -14.637  15.942  72.476  0.00  0.00    -0.371 OA
ATOM     38  O   UNL     1     -11.644  15.794  72.636  0.00  0.00    -0.371 OA
ENDBRANCH  34  35
ENDBRANCH  27  34
ENDBRANCH   4  23
TORSDOF 6
ENDMDL
