MODEL 1
REMARK VINA RESULT:      -4.4      0.000      0.000
REMARK  Name = 
REMARK  3 active torsions:
REMARK  status: ('A' for Active; 'I' for Inactive)
REMARK    1  A    between atoms: C_2  and  C_3
REMARK    2  A    between atoms: C_3  and  C_4
REMARK    3  A    between atoms: C_3  and  N_7
REMARK                            x       y       z     vdW  Elec       q    Type
REMARK                         _______ _______ _______ _____ _____    ______ ____
ROOT
ATOM      1  C   UNL     1     -11.931  14.487  65.337  0.00  0.00    +0.155 C 
ENDROOT
BRANCH   1   2
ATOM      2  N   UNL     1     -11.154  14.163  66.671  0.00  0.00    -0.273 N 
ATOM      3  C   UNL     1     -11.545  13.022  67.432  0.00  0.00    +0.226 C 
ATOM      4  O   UNL     1     -12.028  11.935  66.994  0.00  0.00    -0.275 OA
ATOM      5  C   UNL     1     -11.718  13.496  68.843  0.00  0.00    +0.087 C 
ATOM      6  C   UNL     1     -12.056  14.964  68.593  0.00  0.00    +0.031 C 
ATOM      7  C   UNL     1     -10.973  15.299  67.573  0.00  0.00    +0.094 C 
ENDBRANCH   1   2
BRANCH   1   8
ATOM      8  C   UNL     1     -10.981  15.731  64.963  0.00  0.00    +0.279 C 
ATOM      9  O   UNL     1     -11.434  16.639  64.269  0.00  0.00    -0.270 OA
ATOM     10  N   UNL     1      -9.607  15.425  65.058  0.00  0.00    -0.086 NA
ENDBRANCH   1   8
BRANCH   1  12
ATOM     11  C   UNL     1     -11.910  12.803  63.556  0.00  0.00    +0.002 C 
ATOM     12  C   UNL     1     -11.016  13.427  64.477  0.00  0.00    +0.029 C 
ENDBRANCH   1  12
TORSDOF 3
ENDMDL
MODEL 2
REMARK VINA RESULT:      -4.4      1.733      3.537
REMARK  Name = 
REMARK  3 active torsions:
REMARK  status: ('A' for Active; 'I' for Inactive)
REMARK    1  A    between atoms: C_2  and  C_3
REMARK    2  A    between atoms: C_3  and  C_4
REMARK    3  A    between atoms: C_3  and  N_7
REMARK                            x       y       z     vdW  Elec       q    Type
REMARK                         _______ _______ _______ _____ _____    ______ ____
ROOT
ATOM      1  C   UNL     1     -10.582  13.538  64.724  0.00  0.00    +0.155 C 
ENDROOT
BRANCH   1   2
ATOM      2  N   UNL     1     -10.864  14.764  65.676  0.00  0.00    -0.273 N 
ATOM      3  C   UNL     1     -11.031  16.056  65.097  0.00  0.00    +0.226 C 
ATOM      4  O   UNL     1     -11.520  16.331  63.960  0.00  0.00    -0.275 OA
ATOM      5  C   UNL     1     -10.123  16.977  65.854  0.00  0.00    +0.087 C 
ATOM      6  C   UNL     1      -9.063  15.984  66.320  0.00  0.00    +0.031 C 
ATOM      7  C   UNL     1      -9.970  14.870  66.829  0.00  0.00    +0.094 C 
ENDBRANCH   1   2
BRANCH   1   8
ATOM      8  C   UNL     1     -10.505  12.481  65.935  0.00  0.00    +0.279 C 
ATOM      9  O   UNL     1      -9.533  11.732  66.012  0.00  0.00    -0.270 OA
ATOM     10  N   UNL     1     -11.767  12.192  66.496  0.00  0.00    -0.086 NA
ENDBRANCH   1   8
BRANCH   1  12
ATOM     11  C   UNL     1     -12.283  12.517  63.285  0.00  0.00    +0.002 C 
ATOM     12  C   UNL     1     -12.187  13.274  64.491  0.00  0.00    +0.029 C 
ENDBRANCH   1  12
TORSDOF 3
ENDMDL
MODEL 3
REMARK VINA RESULT:      -4.4      2.713      4.410
REMARK  Name = 
REMARK  3 active torsions:
REMARK  status: ('A' for Active; 'I' for Inactive)
REMARK    1  A    between atoms: C_2  and  C_3
REMARK    2  A    between atoms: C_3  and  C_4
REMARK    3  A    between atoms: C_3  and  N_7
REMARK                            x       y       z     vdW  Elec       q    Type
REMARK                         _______ _______ _______ _____ _____    ______ ____
ROOT
ATOM      1  C   UNL     1     -10.845  17.400  67.203  0.00  0.00    +0.155 C 
ENDROOT
BRANCH   1   2
ATOM      2  N   UNL     1     -10.330  16.168  66.363  0.00  0.00    -0.273 N 
ATOM      3  C   UNL     1     -10.865  15.957  65.058  0.00  0.00    +0.226 C 
ATOM      4  O   UNL     1     -11.266  16.839  64.241  0.00  0.00    -0.275 OA
ATOM      5  C   UNL     1     -11.291  14.522  65.004  0.00  0.00    +0.087 C 
ATOM      6  C   UNL     1     -11.565  14.268  66.484  0.00  0.00    +0.031 C 
ATOM      7  C   UNL     1     -10.311  14.894  67.082  0.00  0.00    +0.094 C 
ENDBRANCH   1   2
BRANCH   1   8
ATOM      8  C   UNL     1      -9.979  17.009  68.503  0.00  0.00    +0.279 C 
ATOM      9  O   UNL     1     -10.559  16.812  69.568  0.00  0.00    -0.270 OA
ATOM     10  N   UNL     1      -8.628  17.403  68.404  0.00  0.00    -0.086 NA
ENDBRANCH   1   8
BRANCH   1  12
ATOM     11  C   UNL     1     -10.317  19.580  66.217  0.00  0.00    +0.002 C 
ATOM     12  C   UNL     1      -9.663  18.374  66.610  0.00  0.00    +0.029 C 
ENDBRANCH   1  12
TORSDOF 3
ENDMDL
MODEL 4
REMARK VINA RESULT:      -4.3      1.940      3.812
REMARK  Name = 
REMARK  3 active torsions:
REMARK  status: ('A' for Active; 'I' for Inactive)
REMARK    1  A    between atoms: C_2  and  C_3
REMARK    2  A    between atoms: C_3  and  C_4
REMARK    3  A    between atoms: C_3  and  N_7
REMARK                            x       y       z     vdW  Elec       q    Type
REMARK                         _______ _______ _______ _____ _____    ______ ____
ROOT
ATOM      1  C   UNL     1     -10.898  13.904  65.288  0.00  0.00    +0.155 C 
ENDROOT
BRANCH   1   2
ATOM      2  N   UNL     1     -11.214  12.383  65.018  0.00  0.00    -0.273 N 
ATOM      3  C   UNL     1     -10.316  11.397  65.522  0.00  0.00    +0.226 C 
ATOM      4  O   UNL     1      -9.614  11.463  66.576  0.00  0.00    -0.275 OA
ATOM      5  C   UNL     1     -10.001  10.488  64.373  0.00  0.00    +0.087 C 
ATOM      6  C   UNL     1     -10.222  11.445  63.205  0.00  0.00    +0.031 C 
ATOM      7  C   UNL     1     -11.551  12.057  63.633  0.00  0.00    +0.094 C 
ENDBRANCH   1   2
BRANCH   1   8
ATOM      8  C   UNL     1     -12.293  14.412  64.666  0.00  0.00    +0.279 C 
ATOM      9  O   UNL     1     -12.295  15.399  63.932  0.00  0.00    -0.270 OA
ATOM     10  N   UNL     1     -13.416  13.977  65.401  0.00  0.00    -0.086 NA
ENDBRANCH   1   8
BRANCH   1  12
ATOM     11  C   UNL     1     -10.699  14.686  67.602  0.00  0.00    +0.002 C 
ATOM     12  C   UNL     1     -11.515  13.824  66.809  0.00  0.00    +0.029 C 
ENDBRANCH   1  12
TORSDOF 3
ENDMDL
MODEL 5
REMARK VINA RESULT:      -4.2      2.778      4.023
REMARK  Name = 
REMARK  3 active torsions:
REMARK  status: ('A' for Active; 'I' for Inactive)
REMARK    1  A    between atoms: C_2  and  C_3
REMARK    2  A    between atoms: C_3  and  C_4
REMARK    3  A    between atoms: C_3  and  N_7
REMARK                            x       y       z     vdW  Elec       q    Type
REMARK                         _______ _______ _______ _____ _____    ______ ____
ROOT
ATOM      1  C   UNL     1      -9.716  16.914  67.822  0.00  0.00    +0.155 C 
ENDROOT
BRANCH   1   2
ATOM      2  N   UNL     1     -11.045  16.066  67.852  0.00  0.00    -0.273 N 
ATOM      3  C   UNL     1     -11.648  15.782  69.112  0.00  0.00    +0.226 C 
ATOM      4  O   UNL     1     -11.631  16.506  70.153  0.00  0.00    -0.275 OA
ATOM      5  C   UNL     1     -11.905  14.306  69.134  0.00  0.00    +0.087 C 
ATOM      6  C   UNL     1     -10.817  13.831  68.175  0.00  0.00    +0.031 C 
ATOM      7  C   UNL     1     -11.016  14.842  67.051  0.00  0.00    +0.094 C 
ENDBRANCH   1   2
BRANCH   1   8
ATOM      8  C   UNL     1      -9.542  16.780  66.227  0.00  0.00    +0.279 C 
ATOM      9  O   UNL     1      -8.459  16.413  65.774  0.00  0.00    -0.270 OA
ATOM     10  N   UNL     1     -10.478  17.548  65.503  0.00  0.00    -0.086 NA
ENDBRANCH   1   8
BRANCH   1  12
ATOM     11  C   UNL     1      -9.852  19.262  68.512  0.00  0.00    +0.002 C 
ATOM     12  C   UNL     1     -10.549  18.325  67.692  0.00  0.00    +0.029 C 
ENDBRANCH   1  12
TORSDOF 3
ENDMDL
MODEL 6
REMARK VINA RESULT:      -4.2      2.092      3.418
REMARK  Name = 
REMARK  3 active torsions:
REMARK  status: ('A' for Active; 'I' for Inactive)
REMARK    1  A    between atoms: C_2  and  C_3
REMARK    2  A    between atoms: C_3  and  C_4
REMARK    3  A    between atoms: C_3  and  N_7
REMARK                            x       y       z     vdW  Elec       q    Type
REMARK                         _______ _______ _______ _____ _____    ______ ____
ROOT
ATOM      1  C   UNL     1     -11.777  13.808  67.061  0.00  0.00    +0.155 C 
ENDROOT
BRANCH   1   2
ATOM      2  N   UNL     1     -10.389  14.025  66.343  0.00  0.00    -0.273 N 
ATOM      3  C   UNL     1      -9.252  14.358  67.136  0.00  0.00    +0.226 C 
ATOM      4  O   UNL     1      -9.016  14.000  68.329  0.00  0.00    -0.275 OA
ATOM      5  C   UNL     1      -8.625  15.556  66.491  0.00  0.00    +0.087 C 
ATOM      6  C   UNL     1      -9.847  16.162  65.806  0.00  0.00    +0.031 C 
ATOM      7  C   UNL     1     -10.429  14.903  65.174  0.00  0.00    +0.094 C 
ENDBRANCH   1   2
BRANCH   1   8
ATOM      8  C   UNL     1     -12.561  13.514  65.686  0.00  0.00    +0.279 C 
ATOM      9  O   UNL     1     -13.540  14.200  65.400  0.00  0.00    -0.270 OA
ATOM     10  N   UNL     1     -12.345  12.210  65.195  0.00  0.00    -0.086 NA
ENDBRANCH   1   8
BRANCH   1  12
ATOM     11  C   UNL     1     -11.805  11.966  68.678  0.00  0.00    +0.002 C 
ATOM     12  C   UNL     1     -11.463  12.215  67.315  0.00  0.00    +0.029 C 
ENDBRANCH   1  12
TORSDOF 3
ENDMDL
MODEL 7
REMARK VINA RESULT:      -4.1      2.074      3.013
REMARK  Name = 
REMARK  3 active torsions:
REMARK  status: ('A' for Active; 'I' for Inactive)
REMARK    1  A    between atoms: C_2  and  C_3
REMARK    2  A    between atoms: C_3  and  C_4
REMARK    3  A    between atoms: C_3  and  N_7
REMARK                            x       y       z     vdW  Elec       q    Type
REMARK                         _______ _______ _______ _____ _____    ______ ____
ROOT
ATOM      1  C   UNL     1     -10.734  13.697  65.094  0.00  0.00    +0.155 C 
ENDROOT
BRANCH   1   2
ATOM      2  N   UNL     1     -11.633  12.981  66.175  0.00  0.00    -0.273 N 
ATOM      3  C   UNL     1     -11.813  13.611  67.441  0.00  0.00    +0.226 C 
ATOM      4  O   UNL     1     -11.836  14.855  67.685  0.00  0.00    -0.275 OA
ATOM      5  C   UNL     1     -11.513  12.570  68.476  0.00  0.00    +0.087 C 
ATOM      6  C   UNL     1     -10.557  11.678  67.689  0.00  0.00    +0.031 C 
ATOM      7  C   UNL     1     -11.338  11.564  66.385  0.00  0.00    +0.094 C 
ENDBRANCH   1   2
BRANCH   1   8
ATOM      8  C   UNL     1     -11.095  12.636  63.939  0.00  0.00    +0.279 C 
ATOM      9  O   UNL     1     -10.181  12.085  63.328  0.00  0.00    -0.270 OA
ATOM     10  N   UNL     1     -12.396  12.806  63.421  0.00  0.00    -0.086 NA
ENDBRANCH   1   8
BRANCH   1  12
ATOM     11  C   UNL     1     -11.358  15.994  64.510  0.00  0.00    +0.002 C 
ATOM     12  C   UNL     1     -11.956  14.706  64.660  0.00  0.00    +0.029 C 
ENDBRANCH   1  12
TORSDOF 3
ENDMDL
MODEL 8
REMARK VINA RESULT:      -4.1      1.980      3.813
REMARK  Name = 
REMARK  3 active torsions:
REMARK  status: ('A' for Active; 'I' for Inactive)
REMARK    1  A    between atoms: C_2  and  C_3
REMARK    2  A    between atoms: C_3  and  C_4
REMARK    3  A    between atoms: C_3  and  N_7
REMARK                            x       y       z     vdW  Elec       q    Type
REMARK                         _______ _______ _______ _____ _____    ______ ____
ROOT
ATOM      1  C   UNL     1     -10.733  14.086  68.417  0.00  0.00    +0.155 C 
ENDROOT
BRANCH   1   2
ATOM      2  N   UNL     1     -11.507  14.247  67.052  0.00  0.00    -0.273 N 
ATOM      3  C   UNL     1     -11.819  13.077  66.299  0.00  0.00    +0.226 C 
ATOM      4  O   UNL     1     -12.069  11.918  66.749  0.00  0.00    -0.275 OA
ATOM      5  C   UNL     1     -11.353  13.339  64.899  0.00  0.00    +0.087 C 
ATOM      6  C   UNL     1     -10.239  14.346  65.172  0.00  0.00    +0.031 C 
ATOM      7  C   UNL     1     -10.965  15.263  66.150  0.00  0.00    +0.094 C 
ENDBRANCH   1   2
BRANCH   1   8
ATOM      8  C   UNL     1     -10.663  15.671  68.684  0.00  0.00    +0.279 C 
ATOM      9  O   UNL     1      -9.570  16.191  68.902  0.00  0.00    -0.270 OA
ATOM     10  N   UNL     1     -11.892  16.213  69.117  0.00  0.00    -0.086 NA
ENDBRANCH   1   8
BRANCH   1  12
ATOM     11  C   UNL     1     -11.955  12.783  70.096  0.00  0.00    +0.002 C 
ATOM     12  C   UNL     1     -12.135  13.926  69.260  0.00  0.00    +0.029 C 
ENDBRANCH   1  12
TORSDOF 3
ENDMDL
MODEL 9
REMARK VINA RESULT:      -4.1      2.009      4.247
REMARK  Name = 
REMARK  3 active torsions:
REMARK  status: ('A' for Active; 'I' for Inactive)
REMARK    1  A    between atoms: C_2  and  C_3
REMARK    2  A    between atoms: C_3  and  C_4
REMARK    3  A    between atoms: C_3  and  N_7
REMARK                            x       y       z     vdW  Elec       q    Type
REMARK                         _______ _______ _______ _____ _____    ______ ____
ROOT
ATOM      1  C   UNL     1     -11.961  14.104  67.762  0.00  0.00    +0.155 C 
ENDROOT
BRANCH   1   2
ATOM      2  N   UNL     1     -10.661  14.886  67.328  0.00  0.00    -0.273 N 
ATOM      3  C   UNL     1     -10.623  16.301  67.501  0.00  0.00    +0.226 C 
ATOM      4  O   UNL     1     -11.198  16.980  68.404  0.00  0.00    -0.275 OA
ATOM      5  C   UNL     1     -10.178  16.873  66.190  0.00  0.00    +0.087 C 
ATOM      6  C   UNL     1     -10.660  15.778  65.242  0.00  0.00    +0.031 C 
ATOM      7  C   UNL     1     -10.154  14.554  65.997  0.00  0.00    +0.094 C 
ENDBRANCH   1   2
BRANCH   1   8
ATOM      8  C   UNL     1     -11.411  12.687  67.233  0.00  0.00    +0.279 C 
ATOM      9  O   UNL     1     -12.085  12.050  66.425  0.00  0.00    -0.270 OA
ATOM     10  N   UNL     1     -10.464  12.103  68.101  0.00  0.00    -0.086 NA
ENDBRANCH   1   8
BRANCH   1  12
ATOM     11  C   UNL     1     -12.427  14.238  70.164  0.00  0.00    +0.002 C 
ATOM     12  C   UNL     1     -11.377  13.854  69.277  0.00  0.00    +0.029 C 
ENDBRANCH   1  12
TORSDOF 3
ENDMDL
