MODEL 1
REMARK VINA RESULT:      -7.5      0.000      0.000
REMARK  Name = 
REMARK  9 active torsions:
REMARK  status: ('A' for Active; 'I' for Inactive)
REMARK    1  A    between atoms: N_2  and  C_3
REMARK    2  A    between atoms: N_2  and  C_16
REMARK    3  A    between atoms: C_3  and  C_4
REMARK    4  A    between atoms: C_19  and  C_20
REMARK    5  A    between atoms: N_22  and  CA_23
REMARK    6  A    between atoms: CA_23  and  CB_24
REMARK    7  A    between atoms: CA_23  and  C_29
REMARK    8  A    between atoms: CB_24  and  CG_25
REMARK    9  A    between atoms: CG_25  and  CD_26
REMARK                            x       y       z     vdW  Elec       q    Type
REMARK                         _______ _______ _______ _____ _____    ______ ____
ROOT
ATOM      1  C   UNK A   0      -9.535  13.140  67.253  0.00  0.00    +0.048 A 
ATOM      2  C   UNK A   0     -10.127  13.955  66.349  0.00  0.00    +0.015 A 
ATOM      3  C   UNK A   0      -9.465  15.128  65.982  0.00  0.00    +0.006 A 
ATOM      4  C   UNK A   0      -8.424  15.577  66.730  0.00  0.00    +0.055 A 
ATOM      5  C   UNK A   0      -8.108  14.870  67.885  0.00  0.00    +0.006 A 
ATOM      6  C   UNK A   0      -8.342  13.498  67.870  0.00  0.00    +0.015 A 
ENDROOT
BRANCH   4   7
ATOM      7  C   UNK A   0      -7.740  16.867  66.543  0.00  0.00    +0.265 C 
ATOM      8  N   GLU A   1      -7.315  17.488  67.689  0.00  0.00    -0.192 NA
ATOM      9  O   UNK A   0      -7.850  17.543  65.488  0.00  0.00    -0.268 OA
BRANCH   8  10
ATOM     10  CA  GLU A   1      -7.076  19.037  67.765  0.00  0.00    +0.199 C 
BRANCH  10  11
ATOM     11  C   GLU A   1      -6.288  18.891  69.171  0.00  0.00    +0.384 C 
ATOM     12  OXT GLU A   1      -6.372  17.545  69.555  0.00  0.00    -0.244 OA
ATOM     13  O   GLU A   1      -6.537  19.688  70.067  0.00  0.00    -0.244 OA
ENDBRANCH  10  11
BRANCH  10  14
ATOM     14  CB  GLU A   1      -8.528  19.382  68.470  0.00  0.00    +0.045 C 
BRANCH  14  15
ATOM     15  CG  GLU A   1      -9.177  20.288  67.448  0.00  0.00    +0.116 C 
BRANCH  15  16
ATOM     16  CD  GLU A   1     -10.394  19.621  66.931  0.00  0.00    +0.365 C 
ATOM     17  OE2 GLU A   1     -10.722  19.720  65.595  0.00  0.00    -0.246 OA
ATOM     18  OE1 GLU A   1     -10.905  18.701  67.631  0.00  0.00    -0.246 OA
ENDBRANCH  15  16
ENDBRANCH  14  15
ENDBRANCH  10  14
ENDBRANCH   8  10
ENDBRANCH   4   7
BRANCH   1  20
ATOM     19  C   UNK A   0      -9.571  11.471  68.131  0.00  0.00    +0.113 C 
ATOM     20  N   UNK A   0      -9.988  11.843  67.664  0.00  0.00    -0.301 N 
BRANCH  20  21
ATOM     21  C   UNK A   0     -11.403  11.590  67.973  0.00  0.00    +0.139 C 
BRANCH  21  22
ATOM     22  C   UNK A   0     -11.541  12.148  69.361  0.00  0.00    +0.098 A 
ATOM     23  N   UNK A   0     -11.819  13.477  69.358  0.00  0.00    -0.240 NA
ATOM     24  C   UNK A   0     -12.429  14.066  70.413  0.00  0.00    +0.151 A 
ATOM     25  C   UNK A   0     -12.912  13.270  71.445  0.00  0.00    +0.186 A 
ATOM     26  N   UNK A   0     -12.960  13.891  72.650  0.00  0.00    -0.190 NA
ATOM     27  C   UNK A   0     -12.852  15.239  72.738  0.00  0.00    +0.259 A 
ATOM     28  N   UNK A   0     -12.701  16.013  71.650  0.00  0.00    -0.191 NA
ATOM     29  N   UNK A   0     -12.958  15.884  73.988  0.00  0.00    -0.086 NA
ATOM     30  N   UNK A   0     -12.879  11.918  71.350  0.00  0.00    -0.222 NA
ATOM     31  C   UNK A   0     -12.530  15.430  70.462  0.00  0.00    +0.193 A 
ATOM     32  N   UNK A   0     -12.176  16.157  69.297  0.00  0.00    -0.105 NA
ATOM     33  C   UNK A   0     -12.220  11.373  70.294  0.00  0.00    +0.117 A 
ENDBRANCH  21  22
ENDBRANCH  20  21
ENDBRANCH   1  20
TORSDOF 9
ENDMDL
MODEL 2
REMARK VINA RESULT:      -7.5      2.713      4.346
REMARK  Name = 
REMARK  9 active torsions:
REMARK  status: ('A' for Active; 'I' for Inactive)
REMARK    1  A    between atoms: N_2  and  C_3
REMARK    2  A    between atoms: N_2  and  C_16
REMARK    3  A    between atoms: C_3  and  C_4
REMARK    4  A    between atoms: C_19  and  C_20
REMARK    5  A    between atoms: N_22  and  CA_23
REMARK    6  A    between atoms: CA_23  and  CB_24
REMARK    7  A    between atoms: CA_23  and  C_29
REMARK    8  A    between atoms: CB_24  and  CG_25
REMARK    9  A    between atoms: CG_25  and  CD_26
REMARK                            x       y       z     vdW  Elec       q    Type
REMARK                         _______ _______ _______ _____ _____    ______ ____
ROOT
ATOM      1  C   UNK A   0     -10.223  12.181  66.221  0.00  0.00    +0.048 A 
ATOM      2  C   UNK A   0     -11.359  12.598  65.615  0.00  0.00    +0.015 A 
ATOM      3  C   UNK A   0     -11.400  13.896  65.103  0.00  0.00    +0.006 A 
ATOM      4  C   UNK A   0     -10.453  14.795  65.473  0.00  0.00    +0.055 A 
ATOM      5  C   UNK A   0      -9.512  14.391  66.414  0.00  0.00    +0.006 A 
ATOM      6  C   UNK A   0      -9.152  13.048  66.411  0.00  0.00    +0.015 A 
ENDROOT
BRANCH   4   7
ATOM      7  C   UNK A   0     -10.463  16.227  65.128  0.00  0.00    +0.265 C 
ATOM      8  N   GLU A   1      -9.798  17.053  65.996  0.00  0.00    -0.192 NA
ATOM      9  O   UNK A   0     -11.302  16.725  64.335  0.00  0.00    -0.268 OA
BRANCH   8  10
ATOM     10  CA  GLU A   1     -10.130  18.582  66.122  0.00  0.00    +0.199 C 
BRANCH  10  11
ATOM     11  C   GLU A   1      -8.594  18.932  66.489  0.00  0.00    +0.384 C 
ATOM     12  OXT GLU A   1      -8.568  20.263  66.931  0.00  0.00    -0.244 OA
ATOM     13  O   GLU A   1      -7.720  18.653  65.679  0.00  0.00    -0.244 OA
ENDBRANCH  10  11
BRANCH  10  14
ATOM     14  CB  GLU A   1     -10.622  18.503  67.695  0.00  0.00    +0.045 C 
BRANCH  14  15
ATOM     15  CG  GLU A   1      -9.717  17.433  68.264  0.00  0.00    +0.116 C 
BRANCH  15  16
ATOM     16  CD  GLU A   1     -10.518  16.564  69.156  0.00  0.00    +0.365 C 
ATOM     17  OE2 GLU A   1     -11.884  16.468  68.984  0.00  0.00    -0.246 OA
ATOM     18  OE1 GLU A   1      -9.910  15.673  69.813  0.00  0.00    -0.246 OA
ENDBRANCH  15  16
ENDBRANCH  14  15
ENDBRANCH  10  14
ENDBRANCH   8  10
ENDBRANCH   4   7
BRANCH   1  20
ATOM     19  C   UNK A   0      -9.576  10.410  66.252  0.00  0.00    +0.113 C 
ATOM     20  N   UNK A   0      -9.940  10.858  66.697  0.00  0.00    -0.301 N 
BRANCH  20  21
ATOM     21  C   UNK A   0      -9.509  10.621  68.081  0.00  0.00    +0.139 C 
BRANCH  21  22
ATOM     22  C   UNK A   0     -10.811  10.408  68.800  0.00  0.00    +0.098 A 
ATOM     23  N   UNK A   0     -10.863   9.205  69.428  0.00  0.00    -0.240 NA
ATOM     24  C   UNK A   0     -11.692   9.001  70.479  0.00  0.00    +0.151 A 
ATOM     25  C   UNK A   0     -12.383  10.081  71.014  0.00  0.00    +0.186 A 
ATOM     26  N   UNK A   0     -13.555   9.751  71.611  0.00  0.00    -0.190 NA
ATOM     27  C   UNK A   0     -13.833   8.461  71.923  0.00  0.00    +0.259 A 
ATOM     28  N   UNK A   0     -12.968   7.465  71.665  0.00  0.00    -0.191 NA
ATOM     29  N   UNK A   0     -15.028   8.129  72.594  0.00  0.00    -0.086 NA
ATOM     30  N   UNK A   0     -12.149  11.341  70.571  0.00  0.00    -0.222 NA
ATOM     31  C   UNK A   0     -11.860   7.736  70.973  0.00  0.00    +0.193 A 
ATOM     32  N   UNK A   0     -10.991   6.722  70.493  0.00  0.00    -0.105 NA
ATOM     33  C   UNK A   0     -11.343  11.492  69.488  0.00  0.00    +0.117 A 
ENDBRANCH  21  22
ENDBRANCH  20  21
ENDBRANCH   1  20
TORSDOF 9
ENDMDL
MODEL 3
REMARK VINA RESULT:      -7.3      3.026      5.598
REMARK  Name = 
REMARK  9 active torsions:
REMARK  status: ('A' for Active; 'I' for Inactive)
REMARK    1  A    between atoms: N_2  and  C_3
REMARK    2  A    between atoms: N_2  and  C_16
REMARK    3  A    between atoms: C_3  and  C_4
REMARK    4  A    between atoms: C_19  and  C_20
REMARK    5  A    between atoms: N_22  and  CA_23
REMARK    6  A    between atoms: CA_23  and  CB_24
REMARK    7  A    between atoms: CA_23  and  C_29
REMARK    8  A    between atoms: CB_24  and  CG_25
REMARK    9  A    between atoms: CG_25  and  CD_26
REMARK                            x       y       z     vdW  Elec       q    Type
REMARK                         _______ _______ _______ _____ _____    ______ ____
ROOT
ATOM      1  C   UNK A   0      -9.106  17.070  68.781  0.00  0.00    +0.048 A 
ATOM      2  C   UNK A   0      -9.674  18.284  68.592  0.00  0.00    +0.015 A 
ATOM      3  C   UNK A   0      -8.889  19.307  68.058  0.00  0.00    +0.006 A 
ATOM      4  C   UNK A   0      -7.539  19.170  68.020  0.00  0.00    +0.055 A 
ATOM      5  C   UNK A   0      -6.991  18.027  68.590  0.00  0.00    +0.006 A 
ATOM      6  C   UNK A   0      -7.753  16.865  68.534  0.00  0.00    +0.015 A 
ENDROOT
BRANCH   4   7
ATOM      7  C   UNK A   0      -6.591  20.225  67.623  0.00  0.00    +0.265 C 
ATOM      8  N   GLU A   1      -5.292  20.038  68.020  0.00  0.00    -0.192 NA
ATOM      9  O   UNK A   0      -6.965  21.376  67.284  0.00  0.00    -0.268 OA
BRANCH   8  10
ATOM     10  CA  GLU A   1      -4.284  21.230  68.181  0.00  0.00    +0.199 C 
BRANCH  10  11
ATOM     11  C   GLU A   1      -3.360  20.671  66.976  0.00  0.00    +0.384 C 
ATOM     12  OXT GLU A   1      -3.756  21.339  65.808  0.00  0.00    -0.244 OA
ATOM     13  O   GLU A   1      -3.236  19.460  66.847  0.00  0.00    -0.244 OA
ENDBRANCH  10  11
BRANCH  10  14
ATOM     14  CB  GLU A   1      -3.389  20.513  69.369  0.00  0.00    +0.045 C 
BRANCH  14  15
ATOM     15  CG  GLU A   1      -4.447  20.095  70.364  0.00  0.00    +0.116 C 
BRANCH  15  16
ATOM     16  CD  GLU A   1      -4.213  20.820  71.634  0.00  0.00    +0.365 C 
ATOM     17  OE2 GLU A   1      -3.444  20.248  72.625  0.00  0.00    -0.246 OA
ATOM     18  OE1 GLU A   1      -4.420  22.066  71.648  0.00  0.00    -0.246 OA
ENDBRANCH  15  16
ENDBRANCH  14  15
ENDBRANCH  10  14
ENDBRANCH   8  10
ENDBRANCH   4   7
BRANCH   1  20
ATOM     19  C   UNK A   0      -9.403  15.415  69.635  0.00  0.00    +0.113 C 
ATOM     20  N   UNK A   0      -9.769  15.869  69.198  0.00  0.00    -0.301 N 
BRANCH  20  21
ATOM     21  C   UNK A   0     -11.186  15.874  69.585  0.00  0.00    +0.139 C 
BRANCH  21  22
ATOM     22  C   UNK A   0     -11.806  14.947  68.579  0.00  0.00    +0.098 A 
ATOM     23  N   UNK A   0     -11.447  15.253  67.306  0.00  0.00    -0.240 NA
ATOM     24  C   UNK A   0     -11.490  14.321  66.325  0.00  0.00    +0.151 A 
ATOM     25  C   UNK A   0     -11.758  12.999  66.659  0.00  0.00    +0.186 A 
ATOM     26  N   UNK A   0     -12.342  12.282  65.667  0.00  0.00    -0.190 NA
ATOM     27  C   UNK A   0     -12.349  12.744  64.392  0.00  0.00    +0.259 A 
ATOM     28  N   UNK A   0     -11.779  13.914  64.056  0.00  0.00    -0.191 NA
ATOM     29  N   UNK A   0     -12.909  11.969  63.355  0.00  0.00    -0.086 NA
ATOM     30  N   UNK A   0     -11.863  12.621  67.957  0.00  0.00    -0.222 NA
ATOM     31  C   UNK A   0     -11.302  14.700  65.023  0.00  0.00    +0.193 A 
ATOM     32  N   UNK A   0     -10.859  16.025  64.781  0.00  0.00    -0.105 NA
ATOM     33  C   UNK A   0     -11.856  13.596  68.903  0.00  0.00    +0.117 A 
ENDBRANCH  21  22
ENDBRANCH  20  21
ENDBRANCH   1  20
TORSDOF 9
ENDMDL
MODEL 4
REMARK VINA RESULT:      -7.3      1.322      1.585
REMARK  Name = 
REMARK  9 active torsions:
REMARK  status: ('A' for Active; 'I' for Inactive)
REMARK    1  A    between atoms: N_2  and  C_3
REMARK    2  A    between atoms: N_2  and  C_16
REMARK    3  A    between atoms: C_3  and  C_4
REMARK    4  A    between atoms: C_19  and  C_20
REMARK    5  A    between atoms: N_22  and  CA_23
REMARK    6  A    between atoms: CA_23  and  CB_24
REMARK    7  A    between atoms: CA_23  and  C_29
REMARK    8  A    between atoms: CB_24  and  CG_25
REMARK    9  A    between atoms: CG_25  and  CD_26
REMARK                            x       y       z     vdW  Elec       q    Type
REMARK                         _______ _______ _______ _____ _____    ______ ____
ROOT
ATOM      1  C   UNK A   0     -10.426  12.506  67.659  0.00  0.00    +0.048 A 
ATOM      2  C   UNK A   0     -11.207  13.071  66.709  0.00  0.00    +0.015 A 
ATOM      3  C   UNK A   0     -10.713  14.178  66.016  0.00  0.00    +0.006 A 
ATOM      4  C   UNK A   0      -9.628  14.841  66.492  0.00  0.00    +0.055 A 
ATOM      5  C   UNK A   0      -9.095  14.418  67.705  0.00  0.00    +0.006 A 
ATOM      6  C   UNK A   0      -9.199  13.063  68.003  0.00  0.00    +0.015 A 
ENDROOT
BRANCH   4   7
ATOM      7  C   UNK A   0      -9.098  16.101  65.947  0.00  0.00    +0.265 C 
ATOM      8  N   GLU A   1      -7.883  16.500  66.440  0.00  0.00    -0.192 NA
ATOM      9  O   UNK A   0      -9.828  16.947  65.368  0.00  0.00    -0.268 OA
BRANCH   8  10
ATOM     10  CA  GLU A   1      -7.418  17.999  66.418  0.00  0.00    +0.199 C 
BRANCH  10  11
ATOM     11  C   GLU A   1      -5.890  17.577  66.744  0.00  0.00    +0.384 C 
ATOM     12  OXT GLU A   1      -5.142  17.799  65.578  0.00  0.00    -0.244 OA
ATOM     13  O   GLU A   1      -5.683  16.495  67.278  0.00  0.00    -0.244 OA
ENDBRANCH  10  11
BRANCH  10  14
ATOM     14  CB  GLU A   1      -7.804  18.302  67.994  0.00  0.00    +0.045 C 
BRANCH  14  15
ATOM     15  CG  GLU A   1      -8.478  19.653  67.908  0.00  0.00    +0.116 C 
BRANCH  15  16
ATOM     16  CD  GLU A   1      -9.928  19.443  67.692  0.00  0.00    +0.365 C 
ATOM     17  OE2 GLU A   1     -10.550  19.996  66.593  0.00  0.00    -0.246 OA
ATOM     18  OE1 GLU A   1     -10.485  18.492  68.309  0.00  0.00    -0.246 OA
ENDBRANCH  15  16
ENDBRANCH  14  15
ENDBRANCH  10  14
ENDBRANCH   8  10
ENDBRANCH   4   7
BRANCH   1  20
ATOM     19  C   UNK A   0     -10.198  11.078  68.868  0.00  0.00    +0.113 C 
ATOM     20  N   UNK A   0     -10.697  11.301  68.387  0.00  0.00    -0.301 N 
BRANCH  20  21
ATOM     21  C   UNK A   0     -12.038  11.012  68.913  0.00  0.00    +0.139 C 
BRANCH  21  22
ATOM     22  C   UNK A   0     -12.055  11.773  70.208  0.00  0.00    +0.098 A 
ATOM     23  N   UNK A   0     -12.153  13.114  70.017  0.00  0.00    -0.240 NA
ATOM     24  C   UNK A   0     -12.645  13.924  70.985  0.00  0.00    +0.151 A 
ATOM     25  C   UNK A   0     -13.196  13.355  72.127  0.00  0.00    +0.186 A 
ATOM     26  N   UNK A   0     -13.121  14.139  73.231  0.00  0.00    -0.190 NA
ATOM     27  C   UNK A   0     -12.830  15.459  73.123  0.00  0.00    +0.259 A 
ATOM     28  N   UNK A   0     -12.613  16.044  71.932  0.00  0.00    -0.191 NA
ATOM     29  N   UNK A   0     -12.808  16.282  74.267  0.00  0.00    -0.086 NA
ATOM     30  N   UNK A   0     -13.347  12.011  72.227  0.00  0.00    -0.222 NA
ATOM     31  C   UNK A   0     -12.561  15.282  70.839  0.00  0.00    +0.193 A 
ATOM     32  N   UNK A   0     -12.151  15.783  69.577  0.00  0.00    -0.105 NA
ATOM     33  C   UNK A   0     -12.801  11.238  71.252  0.00  0.00    +0.117 A 
ENDBRANCH  21  22
ENDBRANCH  20  21
ENDBRANCH   1  20
TORSDOF 9
ENDMDL
MODEL 5
REMARK VINA RESULT:      -7.1      3.694      7.919
REMARK  Name = 
REMARK  9 active torsions:
REMARK  status: ('A' for Active; 'I' for Inactive)
REMARK    1  A    between atoms: N_2  and  C_3
REMARK    2  A    between atoms: N_2  and  C_16
REMARK    3  A    between atoms: C_3  and  C_4
REMARK    4  A    between atoms: C_19  and  C_20
REMARK    5  A    between atoms: N_22  and  CA_23
REMARK    6  A    between atoms: CA_23  and  CB_24
REMARK    7  A    between atoms: CA_23  and  C_29
REMARK    8  A    between atoms: CB_24  and  CG_25
REMARK    9  A    between atoms: CG_25  and  CD_26
REMARK                            x       y       z     vdW  Elec       q    Type
REMARK                         _______ _______ _______ _____ _____    ______ ____
ROOT
ATOM      1  C   UNK A   0      -9.865  18.102  67.241  0.00  0.00    +0.048 A 
ATOM      2  C   UNK A   0     -10.323  17.994  68.510  0.00  0.00    +0.015 A 
ATOM      3  C   UNK A   0     -10.615  16.722  69.004  0.00  0.00    +0.006 A 
ATOM      4  C   UNK A   0     -10.727  15.676  68.145  0.00  0.00    +0.055 A 
ATOM      5  C   UNK A   0     -10.611  15.942  66.786  0.00  0.00    +0.006 A 
ATOM      6  C   UNK A   0      -9.770  16.986  66.416  0.00  0.00    +0.015 A 
ENDROOT
BRANCH   4   7
ATOM      7  C   UNK A   0     -11.175  14.322  68.513  0.00  0.00    +0.265 C 
ATOM      8  N   GLU A   1     -10.722  13.307  67.711  0.00  0.00    -0.192 NA
ATOM      9  O   UNK A   0     -12.173  14.117  69.250  0.00  0.00    -0.268 OA
BRANCH   8  10
ATOM     10  CA  GLU A   1     -11.474  11.935  67.587  0.00  0.00    +0.199 C 
BRANCH  10  11
ATOM     11  C   GLU A   1     -10.108  11.110  67.856  0.00  0.00    +0.384 C 
ATOM     12  OXT GLU A   1     -10.145  10.672  69.188  0.00  0.00    -0.244 OA
ATOM     13  O   GLU A   1      -9.045  11.615  67.520  0.00  0.00    -0.244 OA
ENDBRANCH  10  11
BRANCH  10  14
ATOM     14  CB  GLU A   1     -11.355  11.843  65.943  0.00  0.00    +0.045 C 
BRANCH  14  15
ATOM     15  CG  GLU A   1     -12.437  12.796  65.487  0.00  0.00    +0.116 C 
BRANCH  15  16
ATOM     16  CD  GLU A   1     -12.046  13.359  64.174  0.00  0.00    +0.365 C 
ATOM     17  OE2 GLU A   1     -11.567  12.530  63.181  0.00  0.00    -0.246 OA
ATOM     18  OE1 GLU A   1     -12.480  14.506  63.871  0.00  0.00    -0.246 OA
ENDBRANCH  15  16
ENDBRANCH  14  15
ENDBRANCH  10  14
ENDBRANCH   8  10
ENDBRANCH   4   7
BRANCH   1  20
ATOM     19  C   UNK A   0      -9.621  19.933  66.862  0.00  0.00    +0.113 C 
ATOM     20  N   UNK A   0      -9.395  19.293  66.596  0.00  0.00    -0.301 N 
BRANCH  20  21
ATOM     21  C   UNK A   0      -8.000  19.422  66.152  0.00  0.00    +0.139 C 
BRANCH  21  22
ATOM     22  C   UNK A   0      -7.310  19.945  67.380  0.00  0.00    +0.098 A 
ATOM     23  N   UNK A   0      -6.828  18.947  68.165  0.00  0.00    -0.240 NA
ATOM     24  C   UNK A   0      -5.807  19.168  69.027  0.00  0.00    +0.151 A 
ATOM     25  C   UNK A   0      -5.147  20.390  68.994  0.00  0.00    +0.186 A 
ATOM     26  N   UNK A   0      -4.591  20.754  70.177  0.00  0.00    -0.190 NA
ATOM     27  C   UNK A   0      -4.434  19.849  71.174  0.00  0.00    +0.259 A 
ATOM     28  N   UNK A   0      -4.809  18.566  71.036  0.00  0.00    -0.191 NA
ATOM     29  N   UNK A   0      -3.805  20.218  72.381  0.00  0.00    -0.086 NA
ATOM     30  N   UNK A   0      -5.439  21.309  68.041  0.00  0.00    -0.222 NA
ATOM     31  C   UNK A   0      -5.466  18.201  69.934  0.00  0.00    +0.193 A 
ATOM     32  N   UNK A   0      -6.063  16.923  69.788  0.00  0.00    -0.105 NA
ATOM     33  C   UNK A   0      -6.497  21.062  67.226  0.00  0.00    +0.117 A 
ENDBRANCH  21  22
ENDBRANCH  20  21
ENDBRANCH   1  20
TORSDOF 9
ENDMDL
MODEL 6
REMARK VINA RESULT:      -7.1      2.194      4.263
REMARK  Name = 
REMARK  9 active torsions:
REMARK  status: ('A' for Active; 'I' for Inactive)
REMARK    1  A    between atoms: N_2  and  C_3
REMARK    2  A    between atoms: N_2  and  C_16
REMARK    3  A    between atoms: C_3  and  C_4
REMARK    4  A    between atoms: C_19  and  C_20
REMARK    5  A    between atoms: N_22  and  CA_23
REMARK    6  A    between atoms: CA_23  and  CB_24
REMARK    7  A    between atoms: CA_23  and  C_29
REMARK    8  A    between atoms: CB_24  and  CG_25
REMARK    9  A    between atoms: CG_25  and  CD_26
REMARK                            x       y       z     vdW  Elec       q    Type
REMARK                         _______ _______ _______ _____ _____    ______ ____
ROOT
ATOM      1  C   UNK A   0     -10.461  15.244  67.153  0.00  0.00    +0.048 A 
ATOM      2  C   UNK A   0     -10.838  16.198  68.036  0.00  0.00    +0.015 A 
ATOM      3  C   UNK A   0     -10.543  17.530  67.741  0.00  0.00    +0.006 A 
ATOM      4  C   UNK A   0      -9.646  17.819  66.763  0.00  0.00    +0.055 A 
ATOM      5  C   UNK A   0      -9.004  16.755  66.140  0.00  0.00    +0.006 A 
ATOM      6  C   UNK A   0      -9.719  15.568  66.022  0.00  0.00    +0.015 A 
ENDROOT
BRANCH   4   7
ATOM      7  C   UNK A   0      -9.136  19.165  66.453  0.00  0.00    +0.265 C 
ATOM      8  N   GLU A   1      -7.914  19.211  65.833  0.00  0.00    -0.192 NA
ATOM      9  O   UNK A   0      -9.569  20.200  67.022  0.00  0.00    -0.268 OA
BRANCH   8  10
ATOM     10  CA  GLU A   1      -6.980  20.470  65.908  0.00  0.00    +0.199 C 
BRANCH  10  11
ATOM     11  C   GLU A   1      -6.128  19.971  64.626  0.00  0.00    +0.384 C 
ATOM     12  OXT GLU A   1      -6.354  20.894  63.594  0.00  0.00    -0.244 OA
ATOM     13  O   GLU A   1      -6.219  18.799  64.284  0.00  0.00    -0.244 OA
ENDBRANCH  10  11
BRANCH  10  14
ATOM     14  CB  GLU A   1      -5.939  19.823  67.012  0.00  0.00    +0.045 C 
BRANCH  14  15
ATOM     15  CG  GLU A   1      -5.884  20.897  68.075  0.00  0.00    +0.116 C 
BRANCH  15  16
ATOM     16  CD  GLU A   1      -6.195  20.280  69.385  0.00  0.00    +0.365 C 
ATOM     17  OE2 GLU A   1      -5.665  20.811  70.542  0.00  0.00    -0.246 OA
ATOM     18  OE1 GLU A   1      -7.199  19.516  69.454  0.00  0.00    -0.246 OA
ENDBRANCH  15  16
ENDBRANCH  14  15
ENDBRANCH  10  14
ENDBRANCH   8  10
ENDBRANCH   4   7
BRANCH   1  20
ATOM     19  C   UNK A   0     -10.877  13.496  66.581  0.00  0.00    +0.113 C 
ATOM     20  N   UNK A   0     -10.777  13.847  67.212  0.00  0.00    -0.301 N 
BRANCH  20  21
ATOM     21  C   UNK A   0     -10.102  12.951  68.160  0.00  0.00    +0.139 C 
BRANCH  21  22
ATOM     22  C   UNK A   0     -11.250  12.362  68.931  0.00  0.00    +0.098 A 
ATOM     23  N   UNK A   0     -11.002  11.089  69.333  0.00  0.00    -0.240 NA
ATOM     24  C   UNK A   0     -11.651  10.552  70.393  0.00  0.00    +0.151 A 
ATOM     25  C   UNK A   0     -12.468  11.366  71.169  0.00  0.00    +0.186 A 
ATOM     26  N   UNK A   0     -13.480  10.710  71.789  0.00  0.00    -0.190 NA
ATOM     27  C   UNK A   0     -13.471   9.358  71.883  0.00  0.00    +0.259 A 
ATOM     28  N   UNK A   0     -12.470   8.616  71.380  0.00  0.00    -0.191 NA
ATOM     29  N   UNK A   0     -14.498   8.684  72.577  0.00  0.00    -0.086 NA
ATOM     30  N   UNK A   0     -12.528  12.702  70.943  0.00  0.00    -0.222 NA
ATOM     31  C   UNK A   0     -11.520   9.217  70.662  0.00  0.00    +0.193 A 
ATOM     32  N   UNK A   0     -10.537   8.494  69.939  0.00  0.00    -0.105 NA
ATOM     33  C   UNK A   0     -11.894  13.188  69.844  0.00  0.00    +0.117 A 
ENDBRANCH  21  22
ENDBRANCH  20  21
ENDBRANCH   1  20
TORSDOF 9
ENDMDL
MODEL 7
REMARK VINA RESULT:      -7.1      2.912      6.053
REMARK  Name = 
REMARK  9 active torsions:
REMARK  status: ('A' for Active; 'I' for Inactive)
REMARK    1  A    between atoms: N_2  and  C_3
REMARK    2  A    between atoms: N_2  and  C_16
REMARK    3  A    between atoms: C_3  and  C_4
REMARK    4  A    between atoms: C_19  and  C_20
REMARK    5  A    between atoms: N_22  and  CA_23
REMARK    6  A    between atoms: CA_23  and  CB_24
REMARK    7  A    between atoms: CA_23  and  C_29
REMARK    8  A    between atoms: CB_24  and  CG_25
REMARK    9  A    between atoms: CG_25  and  CD_26
REMARK                            x       y       z     vdW  Elec       q    Type
REMARK                         _______ _______ _______ _____ _____    ______ ____
ROOT
ATOM      1  C   UNK A   0     -10.270  15.979  68.458  0.00  0.00    +0.048 A 
ATOM      2  C   UNK A   0     -10.940  17.079  68.043  0.00  0.00    +0.015 A 
ATOM      3  C   UNK A   0     -10.202  18.180  67.605  0.00  0.00    +0.006 A 
ATOM      4  C   UNK A   0      -8.874  18.250  67.878  0.00  0.00    +0.055 A 
ATOM      5  C   UNK A   0      -8.319  17.238  68.652  0.00  0.00    +0.006 A 
ATOM      6  C   UNK A   0      -8.881  15.971  68.533  0.00  0.00    +0.015 A 
ENDROOT
BRANCH   4   7
ATOM      7  C   UNK A   0      -8.014  19.415  67.607  0.00  0.00    +0.265 C 
ATOM      8  N   GLU A   1      -6.736  19.339  68.098  0.00  0.00    -0.192 NA
ATOM      9  O   UNK A   0      -8.480  20.540  67.292  0.00  0.00    -0.268 OA
BRANCH   8  10
ATOM     10  CA  GLU A   1      -5.873  20.616  68.395  0.00  0.00    +0.199 C 
BRANCH  10  11
ATOM     11  C   GLU A   1      -4.530  19.886  67.865  0.00  0.00    +0.384 C 
ATOM     12  OXT GLU A   1      -4.372  20.238  66.517  0.00  0.00    -0.244 OA
ATOM     13  O   GLU A   1      -4.383  18.693  68.096  0.00  0.00    -0.244 OA
ENDBRANCH  10  11
BRANCH  10  14
ATOM     14  CB  GLU A   1      -5.600  20.250  69.981  0.00  0.00    +0.045 C 
BRANCH  14  15
ATOM     15  CG  GLU A   1      -4.491  21.210  70.348  0.00  0.00    +0.116 C 
BRANCH  15  16
ATOM     16  CD  GLU A   1      -4.326  21.199  71.819  0.00  0.00    +0.365 C 
ATOM     17  OE2 GLU A   1      -3.683  20.146  72.436  0.00  0.00    -0.246 OA
ATOM     18  OE1 GLU A   1      -4.458  22.294  72.436  0.00  0.00    -0.246 OA
ENDBRANCH  15  16
ENDBRANCH  14  15
ENDBRANCH  10  14
ENDBRANCH   8  10
ENDBRANCH   4   7
BRANCH   1  20
ATOM     19  C   UNK A   0     -10.910  14.569  69.534  0.00  0.00    +0.113 C 
ATOM     20  N   UNK A   0     -10.839  14.715  68.823  0.00  0.00    -0.301 N 
BRANCH  20  21
ATOM     21  C   UNK A   0     -11.988  14.156  68.098  0.00  0.00    +0.139 C 
BRANCH  21  22
ATOM     22  C   UNK A   0     -11.386  13.763  66.779  0.00  0.00    +0.098 A 
ATOM     23  N   UNK A   0     -10.964  12.472  66.769  0.00  0.00    -0.240 NA
ATOM     24  C   UNK A   0     -10.836  11.788  65.608  0.00  0.00    +0.151 A 
ATOM     25  C   UNK A   0     -11.288  12.367  64.428  0.00  0.00    +0.186 A 
ATOM     26  N   UNK A   0     -10.640  11.942  63.316  0.00  0.00    -0.190 NA
ATOM     27  C   UNK A   0      -9.865  10.830  63.349  0.00  0.00    +0.259 A 
ATOM     28  N   UNK A   0      -9.712  10.104  64.470  0.00  0.00    -0.191 NA
ATOM     29  N   UNK A   0      -9.238  10.360  62.177  0.00  0.00    -0.086 NA
ATOM     30  N   UNK A   0     -11.951  13.549  64.448  0.00  0.00    -0.222 NA
ATOM     31  C   UNK A   0     -10.236  10.557  65.609  0.00  0.00    +0.193 A 
ATOM     32  N   UNK A   0      -9.965   9.960  66.867  0.00  0.00    -0.105 NA
ATOM     33  C   UNK A   0     -12.019  14.219  65.628  0.00  0.00    +0.117 A 
ENDBRANCH  21  22
ENDBRANCH  20  21
ENDBRANCH   1  20
TORSDOF 9
ENDMDL
MODEL 8
REMARK VINA RESULT:      -7.0      5.205      8.595
REMARK  Name = 
REMARK  9 active torsions:
REMARK  status: ('A' for Active; 'I' for Inactive)
REMARK    1  A    between atoms: N_2  and  C_3
REMARK    2  A    between atoms: N_2  and  C_16
REMARK    3  A    between atoms: C_3  and  C_4
REMARK    4  A    between atoms: C_19  and  C_20
REMARK    5  A    between atoms: N_22  and  CA_23
REMARK    6  A    between atoms: CA_23  and  CB_24
REMARK    7  A    between atoms: CA_23  and  C_29
REMARK    8  A    between atoms: CB_24  and  CG_25
REMARK    9  A    between atoms: CG_25  and  CD_26
REMARK                            x       y       z     vdW  Elec       q    Type
REMARK                         _______ _______ _______ _____ _____    ______ ____
ROOT
ATOM      1  C   UNK A   0     -11.340  11.807  66.451  0.00  0.00    +0.048 A 
ATOM      2  C   UNK A   0     -11.707  12.065  67.728  0.00  0.00    +0.015 A 
ATOM      3  C   UNK A   0     -11.101  11.338  68.753  0.00  0.00    +0.006 A 
ATOM      4  C   UNK A   0     -10.404  10.211  68.457  0.00  0.00    +0.055 A 
ATOM      5  C   UNK A   0     -10.386   9.792  67.131  0.00  0.00    +0.006 A 
ATOM      6  C   UNK A   0     -10.447  10.782  66.156  0.00  0.00    +0.015 A 
ENDROOT
BRANCH   4   7
ATOM      7  C   UNK A   0      -9.846   9.275  69.448  0.00  0.00    +0.265 C 
ATOM      8  N   GLU A   1     -10.481   8.064  69.547  0.00  0.00    -0.192 NA
ATOM      9  O   UNK A   0      -9.102   9.652  70.389  0.00  0.00    -0.268 OA
BRANCH   8  10
ATOM     10  CA  GLU A   1     -10.410   7.183  70.844  0.00  0.00    +0.199 C 
BRANCH  10  11
ATOM     11  C   GLU A   1     -10.314   5.824  69.970  0.00  0.00    +0.384 C 
ATOM     12  OXT GLU A   1     -11.276   5.918  68.953  0.00  0.00    -0.244 OA
ATOM     13  O   GLU A   1     -10.304   4.751  70.557  0.00  0.00    -0.244 OA
ENDBRANCH  10  11
BRANCH  10  14
ATOM     14  CB  GLU A   1     -12.045   7.085  71.051  0.00  0.00    +0.045 C 
BRANCH  14  15
ATOM     15  CG  GLU A   1     -12.291   8.082  72.160  0.00  0.00    +0.116 C 
BRANCH  15  16
ATOM     16  CD  GLU A   1     -13.503   8.866  71.829  0.00  0.00    +0.365 C 
ATOM     17  OE2 GLU A   1     -14.627   8.770  72.623  0.00  0.00    -0.246 OA
ATOM     18  OE1 GLU A   1     -13.373   9.854  71.052  0.00  0.00    -0.246 OA
ENDBRANCH  15  16
ENDBRANCH  14  15
ENDBRANCH  10  14
ENDBRANCH   8  10
ENDBRANCH   4   7
BRANCH   1  20
ATOM     19  C   UNK A   0     -12.407  12.835  65.285  0.00  0.00    +0.113 C 
ATOM     20  N   UNK A   0     -11.748  12.523  65.278  0.00  0.00    -0.301 N 
BRANCH  20  21
ATOM     21  C   UNK A   0     -10.812  13.386  64.546  0.00  0.00    +0.139 C 
BRANCH  21  22
ATOM     22  C   UNK A   0     -11.022  14.725  65.193  0.00  0.00    +0.098 A 
ATOM     23  N   UNK A   0     -10.074  15.002  66.126  0.00  0.00    -0.240 NA
ATOM     24  C   UNK A   0      -9.792  16.278  66.477  0.00  0.00    +0.151 A 
ATOM     25  C   UNK A   0     -10.371  17.320  65.764  0.00  0.00    +0.186 A 
ATOM     26  N   UNK A   0     -10.526  18.464  66.477  0.00  0.00    -0.190 NA
ATOM     27  C   UNK A   0      -9.876  18.638  67.653  0.00  0.00    +0.259 A 
ATOM     28  N   UNK A   0      -9.054  17.702  68.157  0.00  0.00    -0.191 NA
ATOM     29  N   UNK A   0      -9.997  19.851  68.363  0.00  0.00    -0.086 NA
ATOM     30  N   UNK A   0     -11.118  17.071  64.660  0.00  0.00    -0.222 NA
ATOM     31  C   UNK A   0      -8.970  16.520  67.545  0.00  0.00    +0.193 A 
ATOM     32  N   UNK A   0      -8.281  15.415  68.107  0.00  0.00    -0.105 NA
ATOM     33  C   UNK A   0     -11.410  15.777  64.371  0.00  0.00    +0.117 A 
ENDBRANCH  21  22
ENDBRANCH  20  21
ENDBRANCH   1  20
TORSDOF 9
ENDMDL
MODEL 9
REMARK VINA RESULT:      -7.0      3.058      5.925
REMARK  Name = 
REMARK  9 active torsions:
REMARK  status: ('A' for Active; 'I' for Inactive)
REMARK    1  A    between atoms: N_2  and  C_3
REMARK    2  A    between atoms: N_2  and  C_16
REMARK    3  A    between atoms: C_3  and  C_4
REMARK    4  A    between atoms: C_19  and  C_20
REMARK    5  A    between atoms: N_22  and  CA_23
REMARK    6  A    between atoms: CA_23  and  CB_24
REMARK    7  A    between atoms: CA_23  and  C_29
REMARK    8  A    between atoms: CB_24  and  CG_25
REMARK    9  A    between atoms: CG_25  and  CD_26
REMARK                            x       y       z     vdW  Elec       q    Type
REMARK                         _______ _______ _______ _____ _____    ______ ____
ROOT
ATOM      1  C   UNK A   0      -9.618  17.526  68.507  0.00  0.00    +0.048 A 
ATOM      2  C   UNK A   0     -10.049  18.703  67.996  0.00  0.00    +0.015 A 
ATOM      3  C   UNK A   0      -9.102  19.587  67.477  0.00  0.00    +0.006 A 
ATOM      4  C   UNK A   0      -7.786  19.403  67.756  0.00  0.00    +0.055 A 
ATOM      5  C   UNK A   0      -7.447  18.365  68.616  0.00  0.00    +0.006 A 
ATOM      6  C   UNK A   0      -8.261  17.237  68.596  0.00  0.00    +0.015 A 
ENDROOT
BRANCH   4   7
ATOM      7  C   UNK A   0      -6.706  20.339  67.399  0.00  0.00    +0.265 C 
ATOM      8  N   GLU A   1      -5.430  19.862  67.555  0.00  0.00    -0.192 NA
ATOM      9  O   UNK A   0      -6.886  21.580  67.318  0.00  0.00    -0.268 OA
BRANCH   8  10
ATOM     10  CA  GLU A   1      -4.197  20.812  67.756  0.00  0.00    +0.199 C 
BRANCH  10  11
ATOM     11  C   GLU A   1      -3.246  19.837  66.882  0.00  0.00    +0.384 C 
ATOM     12  OXT GLU A   1      -3.507  20.108  65.530  0.00  0.00    -0.244 OA
ATOM     13  O   GLU A   1      -3.214  18.646  67.162  0.00  0.00    -0.244 OA
ENDBRANCH  10  11
BRANCH  10  14
ATOM     14  CB  GLU A   1      -3.742  20.167  69.205  0.00  0.00    +0.045 C 
BRANCH  14  15
ATOM     15  CG  GLU A   1      -4.404  21.096  70.196  0.00  0.00    +0.116 C 
BRANCH  15  16
ATOM     16  CD  GLU A   1      -5.133  20.280  71.193  0.00  0.00    +0.365 C 
ATOM     17  OE2 GLU A   1      -4.438  19.593  72.166  0.00  0.00    -0.246 OA
ATOM     18  OE1 GLU A   1      -6.367  20.505  71.352  0.00  0.00    -0.246 OA
ENDBRANCH  15  16
ENDBRANCH  14  15
ENDBRANCH  10  14
ENDBRANCH   8  10
ENDBRANCH   4   7
BRANCH   1  20
ATOM     19  C   UNK A   0     -10.614  16.430  69.674  0.00  0.00    +0.113 C 
ATOM     20  N   UNK A   0     -10.434  16.441  68.968  0.00  0.00    -0.301 N 
BRANCH  20  21
ATOM     21  C   UNK A   0     -11.565  15.944  68.173  0.00  0.00    +0.139 C 
BRANCH  21  22
ATOM     22  C   UNK A   0     -10.893  15.073  67.151  0.00  0.00    +0.098 A 
ATOM     23  N   UNK A   0     -11.221  13.763  67.293  0.00  0.00    -0.240 NA
ATOM     24  C   UNK A   0     -11.127  12.903  66.252  0.00  0.00    +0.151 A 
ATOM     25  C   UNK A   0     -10.835  13.400  64.987  0.00  0.00    +0.186 A 
ATOM     26  N   UNK A   0     -10.204  12.517  64.174  0.00  0.00    -0.190 NA
ATOM     27  C   UNK A   0     -10.171  11.197  64.480  0.00  0.00    +0.259 A 
ATOM     28  N   UNK A   0     -10.760  10.708  65.586  0.00  0.00    -0.191 NA
ATOM     29  N   UNK A   0      -9.561  10.275  63.604  0.00  0.00    -0.086 NA
ATOM     30  N   UNK A   0     -10.759  14.736  64.771  0.00  0.00    -0.222 NA
ATOM     31  C   UNK A   0     -11.285  11.560  66.467  0.00  0.00    +0.193 A 
ATOM     32  N   UNK A   0     -11.753  11.149  67.741  0.00  0.00    -0.105 NA
ATOM     33  C   UNK A   0     -10.819  15.558  65.851  0.00  0.00    +0.117 A 
ENDBRANCH  21  22
ENDBRANCH  20  21
ENDBRANCH   1  20
TORSDOF 9
ENDMDL
