MODEL 1
REMARK VINA RESULT:      -4.2      0.000      0.000
REMARK  Name = 
REMARK  4 active torsions:
REMARK  status: ('A' for Active; 'I' for Inactive)
REMARK    1  A    between atoms: CA_2  and  CB_3
REMARK    2  A    between atoms: CA_2  and  C_8
REMARK    3  A    between atoms: CB_3  and  CG_4
REMARK    4  A    between atoms: CG_4  and  CD_5
REMARK                            x       y       z     vdW  Elec       q    Type
REMARK                         _______ _______ _______ _____ _____    ______ ____
ROOT
ATOM      1  N   GLU A   1      -9.461  14.714  66.637  0.00  0.00    -0.121 NA
ATOM      2  CA  GLU A   1     -10.309  14.614  65.278  0.00  0.00    +0.195 C 
ENDROOT
BRANCH   2   3
ATOM      3  C   GLU A   1     -10.651  16.223  65.327  0.00  0.00    +0.382 C 
ATOM      4  OXT GLU A   1     -11.360  16.638  64.191  0.00  0.00    -0.244 OA
ATOM      5  O   GLU A   1      -9.580  16.846  65.591  0.00  0.00    -0.244 OA
ENDBRANCH   2   3
BRANCH   2   6
ATOM      6  CB  GLU A   1     -11.739  14.252  66.067  0.00  0.00    +0.042 C 
BRANCH   6   7
ATOM      7  CG  GLU A   1     -12.428  13.214  65.294  0.00  0.00    +0.116 C 
BRANCH   7   8
ATOM      8  CD  GLU A   1     -11.953  12.991  63.911  0.00  0.00    +0.365 C 
ATOM      9  OE2 GLU A   1     -11.632  11.667  63.579  0.00  0.00    -0.246 OA
ATOM     10  OE1 GLU A   1     -12.662  13.576  63.035  0.00  0.00    -0.246 OA
ENDBRANCH   7   8
ENDBRANCH   6   7
ENDBRANCH   2   6
TORSDOF 4
ENDMDL
MODEL 2
REMARK VINA RESULT:      -4.2      1.572      3.852
REMARK  Name = 
REMARK  4 active torsions:
REMARK  status: ('A' for Active; 'I' for Inactive)
REMARK    1  A    between atoms: CA_2  and  CB_3
REMARK    2  A    between atoms: CA_2  and  C_8
REMARK    3  A    between atoms: CB_3  and  CG_4
REMARK    4  A    between atoms: CG_4  and  CD_5
REMARK                            x       y       z     vdW  Elec       q    Type
REMARK                         _______ _______ _______ _____ _____    ______ ____
ROOT
ATOM      1  N   GLU A   1     -11.369  12.970  67.978  0.00  0.00    -0.121 NA
ATOM      2  CA  GLU A   1     -11.816  14.053  66.880  0.00  0.00    +0.195 C 
ENDROOT
BRANCH   2   3
ATOM      3  C   GLU A   1     -12.019  12.878  65.746  0.00  0.00    +0.382 C 
ATOM      4  OXT GLU A   1     -13.152  13.112  64.954  0.00  0.00    -0.244 OA
ATOM      5  O   GLU A   1     -11.949  11.755  66.326  0.00  0.00    -0.244 OA
ENDBRANCH   2   3
BRANCH   2   6
ATOM      6  CB  GLU A   1     -10.250  14.333  66.359  0.00  0.00    +0.042 C 
BRANCH   6   7
ATOM      7  CG  GLU A   1     -10.325  15.008  65.059  0.00  0.00    +0.116 C 
BRANCH   7   8
ATOM      8  CD  GLU A   1     -10.978  16.334  65.035  0.00  0.00    +0.365 C 
ATOM      9  OE2 GLU A   1     -10.217  17.402  65.529  0.00  0.00    -0.246 OA
ATOM     10  OE1 GLU A   1     -11.557  16.590  63.934  0.00  0.00    -0.246 OA
ENDBRANCH   7   8
ENDBRANCH   6   7
ENDBRANCH   2   6
TORSDOF 4
ENDMDL
MODEL 3
REMARK VINA RESULT:      -4.1      1.416      3.937
REMARK  Name = 
REMARK  4 active torsions:
REMARK  status: ('A' for Active; 'I' for Inactive)
REMARK    1  A    between atoms: CA_2  and  CB_3
REMARK    2  A    between atoms: CA_2  and  C_8
REMARK    3  A    between atoms: CB_3  and  CG_4
REMARK    4  A    between atoms: CG_4  and  CD_5
REMARK                            x       y       z     vdW  Elec       q    Type
REMARK                         _______ _______ _______ _____ _____    ______ ____
ROOT
ATOM      1  N   GLU A   1     -12.000  12.139  66.477  0.00  0.00    -0.121 NA
ATOM      2  CA  GLU A   1     -12.297  13.517  65.708  0.00  0.00    +0.195 C 
ENDROOT
BRANCH   2   3
ATOM      3  C   GLU A   1     -11.855  12.854  64.268  0.00  0.00    +0.382 C 
ATOM      4  OXT GLU A   1     -10.464  12.878  64.092  0.00  0.00    -0.244 OA
ATOM      5  O   GLU A   1     -12.556  13.386  63.358  0.00  0.00    -0.244 OA
ENDBRANCH   2   3
BRANCH   2   6
ATOM      6  CB  GLU A   1     -10.752  14.112  65.948  0.00  0.00    +0.042 C 
BRANCH   6   7
ATOM      7  CG  GLU A   1     -10.867  15.532  66.294  0.00  0.00    +0.116 C 
BRANCH   7   8
ATOM      8  CD  GLU A   1     -10.488  16.504  65.247  0.00  0.00    +0.365 C 
ATOM      9  OE2 GLU A   1     -11.415  16.681  64.210  0.00  0.00    -0.246 OA
ATOM     10  OE1 GLU A   1     -10.034  17.595  65.713  0.00  0.00    -0.246 OA
ENDBRANCH   7   8
ENDBRANCH   6   7
ENDBRANCH   2   6
TORSDOF 4
ENDMDL
MODEL 4
REMARK VINA RESULT:      -4.1      6.423      7.340
REMARK  Name = 
REMARK  4 active torsions:
REMARK  status: ('A' for Active; 'I' for Inactive)
REMARK    1  A    between atoms: CA_2  and  CB_3
REMARK    2  A    between atoms: CA_2  and  C_8
REMARK    3  A    between atoms: CB_3  and  CG_4
REMARK    4  A    between atoms: CG_4  and  CD_5
REMARK                            x       y       z     vdW  Elec       q    Type
REMARK                         _______ _______ _______ _____ _____    ______ ____
ROOT
ATOM      1  N   GLU A   1     -14.523  15.521  71.602  0.00  0.00    -0.121 NA
ATOM      2  CA  GLU A   1     -13.779  14.327  72.375  0.00  0.00    +0.195 C 
ENDROOT
BRANCH   2   3
ATOM      3  C   GLU A   1     -12.910  15.398  73.274  0.00  0.00    +0.382 C 
ATOM      4  OXT GLU A   1     -12.248  14.766  74.336  0.00  0.00    -0.244 OA
ATOM      5  O   GLU A   1     -13.667  16.369  73.569  0.00  0.00    -0.244 OA
ENDBRANCH   2   3
BRANCH   2   6
ATOM      6  CB  GLU A   1     -12.546  14.218  71.250  0.00  0.00    +0.042 C 
BRANCH   6   7
ATOM      7  CG  GLU A   1     -12.491  15.489  70.520  0.00  0.00    +0.116 C 
BRANCH   7   8
ATOM      8  CD  GLU A   1     -11.705  15.502  69.268  0.00  0.00    +0.365 C 
ATOM      9  OE2 GLU A   1     -11.957  14.452  68.374  0.00  0.00    -0.246 OA
ATOM     10  OE1 GLU A   1     -11.664  16.644  68.712  0.00  0.00    -0.246 OA
ENDBRANCH   7   8
ENDBRANCH   6   7
ENDBRANCH   2   6
TORSDOF 4
ENDMDL
MODEL 5
REMARK VINA RESULT:      -4.1      2.652      3.377
REMARK  Name = 
REMARK  4 active torsions:
REMARK  status: ('A' for Active; 'I' for Inactive)
REMARK    1  A    between atoms: CA_2  and  CB_3
REMARK    2  A    between atoms: CA_2  and  C_8
REMARK    3  A    between atoms: CB_3  and  CG_4
REMARK    4  A    between atoms: CG_4  and  CD_5
REMARK                            x       y       z     vdW  Elec       q    Type
REMARK                         _______ _______ _______ _____ _____    ______ ____
ROOT
ATOM      1  N   GLU A   1     -10.450  16.240  65.094  0.00  0.00    -0.121 NA
ATOM      2  CA  GLU A   1     -10.733  14.662  65.016  0.00  0.00    +0.195 C 
ENDROOT
BRANCH   2   3
ATOM      3  C   GLU A   1     -12.206  14.920  64.329  0.00  0.00    +0.382 C 
ATOM      4  OXT GLU A   1     -12.553  13.890  63.445  0.00  0.00    -0.244 OA
ATOM      5  O   GLU A   1     -12.223  16.099  63.868  0.00  0.00    -0.244 OA
ENDBRANCH   2   3
BRANCH   2   6
ATOM      6  CB  GLU A   1     -11.418  14.597  66.542  0.00  0.00    +0.042 C 
BRANCH   6   7
ATOM      7  CG  GLU A   1     -12.003  13.264  66.714  0.00  0.00    +0.116 C 
BRANCH   7   8
ATOM      8  CD  GLU A   1     -11.679  12.554  67.970  0.00  0.00    +0.365 C 
ATOM      9  OE2 GLU A   1     -11.928  13.260  69.155  0.00  0.00    -0.246 OA
ATOM     10  OE1 GLU A   1     -12.101  11.356  67.994  0.00  0.00    -0.246 OA
ENDBRANCH   7   8
ENDBRANCH   6   7
ENDBRANCH   2   6
TORSDOF 4
ENDMDL
MODEL 6
REMARK VINA RESULT:      -4.0      2.482      4.524
REMARK  Name = 
REMARK  4 active torsions:
REMARK  status: ('A' for Active; 'I' for Inactive)
REMARK    1  A    between atoms: CA_2  and  CB_3
REMARK    2  A    between atoms: CA_2  and  C_8
REMARK    3  A    between atoms: CB_3  and  CG_4
REMARK    4  A    between atoms: CG_4  and  CD_5
REMARK                            x       y       z     vdW  Elec       q    Type
REMARK                         _______ _______ _______ _____ _____    ______ ____
ROOT
ATOM      1  N   GLU A   1     -10.982  16.465  64.564  0.00  0.00    -0.121 NA
ATOM      2  CA  GLU A   1     -10.497  15.007  65.032  0.00  0.00    +0.195 C 
ENDROOT
BRANCH   2   3
ATOM      3  C   GLU A   1     -11.989  14.376  64.746  0.00  0.00    +0.382 C 
ATOM      4  OXT GLU A   1     -12.722  15.163  63.847  0.00  0.00    -0.244 OA
ATOM      5  O   GLU A   1     -12.533  14.128  65.863  0.00  0.00    -0.244 OA
ENDBRANCH   2   3
BRANCH   2   6
ATOM      6  CB  GLU A   1     -10.880  15.274  66.639  0.00  0.00    +0.042 C 
BRANCH   6   7
ATOM      7  CG  GLU A   1     -10.023  16.357  67.130  0.00  0.00    +0.116 C 
BRANCH   7   8
ATOM      8  CD  GLU A   1     -10.606  17.255  68.150  0.00  0.00    +0.365 C 
ATOM      9  OE2 GLU A   1     -10.925  18.549  67.718  0.00  0.00    -0.246 OA
ATOM     10  OE1 GLU A   1     -11.525  16.708  68.836  0.00  0.00    -0.246 OA
ENDBRANCH   7   8
ENDBRANCH   6   7
ENDBRANCH   2   6
TORSDOF 4
ENDMDL
MODEL 7
REMARK VINA RESULT:      -4.0      6.103      7.322
REMARK  Name = 
REMARK  4 active torsions:
REMARK  status: ('A' for Active; 'I' for Inactive)
REMARK    1  A    between atoms: CA_2  and  CB_3
REMARK    2  A    between atoms: CA_2  and  C_8
REMARK    3  A    between atoms: CB_3  and  CG_4
REMARK    4  A    between atoms: CG_4  and  CD_5
REMARK                            x       y       z     vdW  Elec       q    Type
REMARK                         _______ _______ _______ _____ _____    ______ ____
ROOT
ATOM      1  N   GLU A   1     -11.619  16.493  68.818  0.00  0.00    -0.121 NA
ATOM      2  CA  GLU A   1     -11.166  15.358  69.859  0.00  0.00    +0.195 C 
ENDROOT
BRANCH   2   3
ATOM      3  C   GLU A   1     -11.961  14.200  69.002  0.00  0.00    +0.382 C 
ATOM      4  OXT GLU A   1     -11.622  12.910  69.436  0.00  0.00    -0.244 OA
ATOM      5  O   GLU A   1     -11.807  14.447  67.770  0.00  0.00    -0.244 OA
ENDBRANCH   2   3
BRANCH   2   6
ATOM      6  CB  GLU A   1     -12.495  15.583  70.851  0.00  0.00    +0.042 C 
BRANCH   6   7
ATOM      7  CG  GLU A   1     -12.007  15.753  72.223  0.00  0.00    +0.116 C 
BRANCH   7   8
ATOM      8  CD  GLU A   1     -13.027  15.770  73.294  0.00  0.00    +0.365 C 
ATOM      9  OE2 GLU A   1     -12.646  16.386  74.494  0.00  0.00    -0.246 OA
ATOM     10  OE1 GLU A   1     -14.178  16.120  72.887  0.00  0.00    -0.246 OA
ENDBRANCH   7   8
ENDBRANCH   6   7
ENDBRANCH   2   6
TORSDOF 4
ENDMDL
MODEL 8
REMARK VINA RESULT:      -3.9      2.892      4.097
REMARK  Name = 
REMARK  4 active torsions:
REMARK  status: ('A' for Active; 'I' for Inactive)
REMARK    1  A    between atoms: CA_2  and  CB_3
REMARK    2  A    between atoms: CA_2  and  C_8
REMARK    3  A    between atoms: CB_3  and  CG_4
REMARK    4  A    between atoms: CG_4  and  CD_5
REMARK                            x       y       z     vdW  Elec       q    Type
REMARK                         _______ _______ _______ _____ _____    ______ ____
ROOT
ATOM      1  N   GLU A   1     -12.559  14.888  63.938  0.00  0.00    -0.121 NA
ATOM      2  CA  GLU A   1     -11.508  14.033  64.800  0.00  0.00    +0.195 C 
ENDROOT
BRANCH   2   3
ATOM      3  C   GLU A   1     -11.957  12.643  64.042  0.00  0.00    +0.382 C 
ATOM      4  OXT GLU A   1     -13.277  12.287  64.351  0.00  0.00    -0.244 OA
ATOM      5  O   GLU A   1     -11.064  11.771  64.257  0.00  0.00    -0.244 OA
ENDBRANCH   2   3
BRANCH   2   6
ATOM      6  CB  GLU A   1     -12.593  13.746  66.042  0.00  0.00    +0.042 C 
BRANCH   6   7
ATOM      7  CG  GLU A   1     -11.858  13.832  67.308  0.00  0.00    +0.116 C 
BRANCH   7   8
ATOM      8  CD  GLU A   1     -11.485  12.553  67.948  0.00  0.00    +0.365 C 
ATOM      9  OE2 GLU A   1     -11.491  12.545  69.350  0.00  0.00    -0.246 OA
ATOM     10  OE1 GLU A   1     -12.061  11.545  67.432  0.00  0.00    -0.246 OA
ENDBRANCH   7   8
ENDBRANCH   6   7
ENDBRANCH   2   6
TORSDOF 4
ENDMDL
MODEL 9
REMARK VINA RESULT:      -3.9      2.798      3.323
REMARK  Name = 
REMARK  4 active torsions:
REMARK  status: ('A' for Active; 'I' for Inactive)
REMARK    1  A    between atoms: CA_2  and  CB_3
REMARK    2  A    between atoms: CA_2  and  C_8
REMARK    3  A    between atoms: CB_3  and  CG_4
REMARK    4  A    between atoms: CG_4  and  CD_5
REMARK                            x       y       z     vdW  Elec       q    Type
REMARK                         _______ _______ _______ _____ _____    ______ ____
ROOT
ATOM      1  N   GLU A   1     -11.179  13.332  64.272  0.00  0.00    -0.121 NA
ATOM      2  CA  GLU A   1     -12.266  14.406  64.765  0.00  0.00    +0.195 C 
ENDROOT
BRANCH   2   3
ATOM      3  C   GLU A   1     -11.153  15.616  64.712  0.00  0.00    +0.382 C 
ATOM      4  OXT GLU A   1     -10.761  16.017  65.997  0.00  0.00    -0.244 OA
ATOM      5  O   GLU A   1     -11.590  16.520  63.940  0.00  0.00    -0.244 OA
ENDBRANCH   2   3
BRANCH   2   6
ATOM      6  CB  GLU A   1     -11.953  14.142  66.388  0.00  0.00    +0.042 C 
BRANCH   6   7
ATOM      7  CG  GLU A   1     -11.778  12.700  66.582  0.00  0.00    +0.116 C 
BRANCH   7   8
ATOM      8  CD  GLU A   1     -11.663  12.226  67.978  0.00  0.00    +0.365 C 
ATOM      9  OE2 GLU A   1     -11.980  13.164  68.971  0.00  0.00    -0.246 OA
ATOM     10  OE1 GLU A   1     -12.191  11.087  68.169  0.00  0.00    -0.246 OA
ENDBRANCH   7   8
ENDBRANCH   6   7
ENDBRANCH   2   6
TORSDOF 4
ENDMDL
