MODEL 1
REMARK VINA RESULT:      -5.0      0.000      0.000
REMARK  Name = 
REMARK  3 active torsions:
REMARK  status: ('A' for Active; 'I' for Inactive)
REMARK    1  A    between atoms: C_2  and  C_3
REMARK    2  A    between atoms: C_3  and  C_4
REMARK    3  A    between atoms: C_9  and  O_10
REMARK                            x       y       z     vdW  Elec       q    Type
REMARK                         _______ _______ _______ _____ _____    ______ ____
ROOT
ATOM      1  C   UNL     1     -11.564  14.460  67.349  0.00  0.00    -0.015 A 
ATOM      2  C   UNL     1     -12.242  13.997  66.234  0.00  0.00    +0.036 A 
ATOM      3  C   UNL     1     -11.944  14.528  64.985  0.00  0.00    +0.177 A 
ATOM      4  C   UNL     1     -11.207  15.701  64.876  0.00  0.00    +0.229 A 
ATOM      5  O   UNL     1     -11.474  16.595  63.854  0.00  0.00    -0.283 OA
ATOM      6  C   UNL     1     -10.599  16.179  66.026  0.00  0.00    +0.045 A 
ATOM      7  C   UNL     1     -10.496  15.313  67.109  0.00  0.00    -0.000 A 
ENDROOT
BRANCH   3   8
ATOM      8  O   UNL     1     -12.550  14.050  63.844  0.00  0.00    -0.468 OA
ATOM      9  C   UNL     1     -12.169  12.792  63.350  0.00  0.00    +0.253 C 
ENDBRANCH   3   8
BRANCH   1  10
ATOM     10  C   UNL     1     -11.613  13.813  68.671  0.00  0.00    +0.052 C 
BRANCH  10  12
ATOM     11  C   UNL     1     -12.420  15.464  70.289  0.00  0.00    -0.005 C 
ATOM     12  C   UNL     1     -11.394  14.760  69.796  0.00  0.00    -0.021 C 
ENDBRANCH  10  12
ENDBRANCH   1  10
TORSDOF 3
ENDMDL
MODEL 2
REMARK VINA RESULT:      -4.8      4.245      6.191
REMARK  Name = 
REMARK  3 active torsions:
REMARK  status: ('A' for Active; 'I' for Inactive)
REMARK    1  A    between atoms: C_2  and  C_3
REMARK    2  A    between atoms: C_3  and  C_4
REMARK    3  A    between atoms: C_9  and  O_10
REMARK                            x       y       z     vdW  Elec       q    Type
REMARK                         _______ _______ _______ _____ _____    ______ ____
ROOT
ATOM      1  C   UNL     1     -12.565  12.407  70.819  0.00  0.00    -0.015 A 
ATOM      2  C   UNL     1     -12.252  13.605  70.200  0.00  0.00    +0.036 A 
ATOM      3  C   UNL     1     -12.709  14.797  70.749  0.00  0.00    +0.177 A 
ATOM      4  C   UNL     1     -13.703  14.789  71.719  0.00  0.00    +0.229 A 
ATOM      5  O   UNL     1     -14.633  15.814  71.767  0.00  0.00    -0.283 OA
ATOM      6  C   UNL     1     -14.046  13.564  72.269  0.00  0.00    +0.045 A 
ATOM      7  C   UNL     1     -13.178  12.498  72.061  0.00  0.00    -0.000 A 
ENDROOT
BRANCH   3   8
ATOM      8  O   UNL     1     -12.366  16.013  70.200  0.00  0.00    -0.468 OA
ATOM      9  C   UNL     1     -11.582  16.034  69.036  0.00  0.00    +0.253 C 
ENDBRANCH   3   8
BRANCH   1  10
ATOM     10  C   UNL     1     -11.944  11.116  70.478  0.00  0.00    +0.052 C 
BRANCH  10  12
ATOM     11  C   UNL     1     -11.584   9.018  71.687  0.00  0.00    -0.005 C 
ATOM     12  C   UNL     1     -12.427   9.991  71.321  0.00  0.00    -0.021 C 
ENDBRANCH  10  12
ENDBRANCH   1  10
TORSDOF 3
ENDMDL
MODEL 3
REMARK VINA RESULT:      -4.6      3.641      5.311
REMARK  Name = 
REMARK  3 active torsions:
REMARK  status: ('A' for Active; 'I' for Inactive)
REMARK    1  A    between atoms: C_2  and  C_3
REMARK    2  A    between atoms: C_3  and  C_4
REMARK    3  A    between atoms: C_9  and  O_10
REMARK                            x       y       z     vdW  Elec       q    Type
REMARK                         _______ _______ _______ _____ _____    ______ ____
ROOT
ATOM      1  C   UNL     1     -12.532  14.398  70.620  0.00  0.00    -0.015 A 
ATOM      2  C   UNL     1     -12.573  13.091  71.077  0.00  0.00    +0.036 A 
ATOM      3  C   UNL     1     -12.075  12.072  70.275  0.00  0.00    +0.177 A 
ATOM      4  C   UNL     1     -11.816  12.298  68.929  0.00  0.00    +0.229 A 
ATOM      5  O   UNL     1     -12.017  11.286  68.006  0.00  0.00    -0.283 OA
ATOM      6  C   UNL     1     -11.854  13.610  68.486  0.00  0.00    +0.045 A 
ATOM      7  C   UNL     1     -11.826  14.616  69.445  0.00  0.00    -0.000 A 
ENDROOT
BRANCH   3   8
ATOM      8  O   UNL     1     -12.039  10.768  70.720  0.00  0.00    -0.468 OA
ATOM      9  C   UNL     1     -12.992  10.346  71.661  0.00  0.00    +0.253 C 
ENDBRANCH   3   8
BRANCH   1  10
ATOM     10  C   UNL     1     -12.797  15.575  71.464  0.00  0.00    +0.052 C 
BRANCH  10  12
ATOM     11  C   UNL     1     -12.584  15.532  73.902  0.00  0.00    -0.005 C 
ATOM     12  C   UNL     1     -13.305  15.225  72.816  0.00  0.00    -0.021 C 
ENDBRANCH  10  12
ENDBRANCH   1  10
TORSDOF 3
ENDMDL
MODEL 4
REMARK VINA RESULT:      -4.5      3.902      5.725
REMARK  Name = 
REMARK  3 active torsions:
REMARK  status: ('A' for Active; 'I' for Inactive)
REMARK    1  A    between atoms: C_2  and  C_3
REMARK    2  A    between atoms: C_3  and  C_4
REMARK    3  A    between atoms: C_9  and  O_10
REMARK                            x       y       z     vdW  Elec       q    Type
REMARK                         _______ _______ _______ _____ _____    ______ ____
ROOT
ATOM      1  C   UNL     1     -12.117  12.559  70.397  0.00  0.00    -0.015 A 
ATOM      2  C   UNL     1     -12.765  13.494  71.186  0.00  0.00    +0.036 A 
ATOM      3  C   UNL     1     -12.838  14.814  70.759  0.00  0.00    +0.177 A 
ATOM      4  C   UNL     1     -12.032  15.264  69.721  0.00  0.00    +0.229 A 
ATOM      5  O   UNL     1     -11.548  16.561  69.731  0.00  0.00    -0.283 OA
ATOM      6  C   UNL     1     -11.338  14.309  68.995  0.00  0.00    +0.045 A 
ATOM      7  C   UNL     1     -11.732  12.983  69.133  0.00  0.00    -0.000 A 
ENDROOT
BRANCH   3   8
ATOM      8  O   UNL     1     -13.528  15.761  71.484  0.00  0.00    -0.468 OA
ATOM      9  C   UNL     1     -13.425  15.751  72.884  0.00  0.00    +0.253 C 
ENDBRANCH   3   8
BRANCH   1  10
ATOM     10  C   UNL     1     -12.185  11.105  70.618  0.00  0.00    +0.052 C 
BRANCH  10  12
ATOM     11  C   UNL     1     -13.256   9.433  72.050  0.00  0.00    -0.005 C 
ATOM     12  C   UNL     1     -13.123  10.719  71.705  0.00  0.00    -0.021 C 
ENDBRANCH  10  12
ENDBRANCH   1  10
TORSDOF 3
ENDMDL
MODEL 5
REMARK VINA RESULT:      -4.5      3.718      5.729
REMARK  Name = 
REMARK  3 active torsions:
REMARK  status: ('A' for Active; 'I' for Inactive)
REMARK    1  A    between atoms: C_2  and  C_3
REMARK    2  A    between atoms: C_3  and  C_4
REMARK    3  A    between atoms: C_9  and  O_10
REMARK                            x       y       z     vdW  Elec       q    Type
REMARK                         _______ _______ _______ _____ _____    ______ ____
ROOT
ATOM      1  C   UNL     1     -12.717  14.113  71.343  0.00  0.00    -0.015 A 
ATOM      2  C   UNL     1     -12.030  13.709  70.211  0.00  0.00    +0.036 A 
ATOM      3  C   UNL     1     -12.030  12.365  69.856  0.00  0.00    +0.177 A 
ATOM      4  C   UNL     1     -12.448  11.398  70.761  0.00  0.00    +0.229 A 
ATOM      5  O   UNL     1     -11.847  10.151  70.770  0.00  0.00    -0.283 OA
ATOM      6  C   UNL     1     -13.068  11.837  71.920  0.00  0.00    +0.045 A 
ATOM      7  C   UNL     1     -13.513  13.154  71.954  0.00  0.00    -0.000 A 
ENDROOT
BRANCH   3   8
ATOM      8  O   UNL     1     -11.412  11.932  68.703  0.00  0.00    -0.468 OA
ATOM      9  C   UNL     1     -11.684  12.598  67.497  0.00  0.00    +0.253 C 
ENDBRANCH   3   8
BRANCH   1  10
ATOM     10  C   UNL     1     -12.993  15.519  71.681  0.00  0.00    +0.052 C 
BRANCH  10  12
ATOM     11  C   UNL     1     -12.515  15.859  74.057  0.00  0.00    -0.005 C 
ATOM     12  C   UNL     1     -13.428  15.710  73.090  0.00  0.00    -0.021 C 
ENDBRANCH  10  12
ENDBRANCH   1  10
TORSDOF 3
ENDMDL
MODEL 6
REMARK VINA RESULT:      -4.4      2.094      3.482
REMARK  Name = 
REMARK  3 active torsions:
REMARK  status: ('A' for Active; 'I' for Inactive)
REMARK    1  A    between atoms: C_2  and  C_3
REMARK    2  A    between atoms: C_3  and  C_4
REMARK    3  A    between atoms: C_9  and  O_10
REMARK                            x       y       z     vdW  Elec       q    Type
REMARK                         _______ _______ _______ _____ _____    ______ ____
ROOT
ATOM      1  C   UNL     1     -10.961  15.306  66.627  0.00  0.00    -0.015 A 
ATOM      2  C   UNL     1     -11.294  14.120  67.259  0.00  0.00    +0.036 A 
ATOM      3  C   UNL     1     -11.773  13.055  66.506  0.00  0.00    +0.177 A 
ATOM      4  C   UNL     1     -12.198  13.253  65.198  0.00  0.00    +0.229 A 
ATOM      5  O   UNL     1     -13.254  12.515  64.693  0.00  0.00    -0.283 OA
ATOM      6  C   UNL     1     -11.913  14.478  64.615  0.00  0.00    +0.045 A 
ATOM      7  C   UNL     1     -10.968  15.284  65.239  0.00  0.00    -0.000 A 
ENDROOT
BRANCH   3   8
ATOM      8  O   UNL     1     -12.054  11.839  67.088  0.00  0.00    -0.468 OA
ATOM      9  C   UNL     1     -11.660  11.616  68.418  0.00  0.00    +0.253 C 
ENDBRANCH   3   8
BRANCH   1  10
ATOM     10  C   UNL     1     -10.223  16.405  67.271  0.00  0.00    +0.052 C 
BRANCH  10  12
ATOM     11  C   UNL     1     -10.570  18.818  67.060  0.00  0.00    -0.005 C 
ATOM     12  C   UNL     1     -10.232  17.662  66.478  0.00  0.00    -0.021 C 
ENDBRANCH  10  12
ENDBRANCH   1  10
TORSDOF 3
ENDMDL
MODEL 7
REMARK VINA RESULT:      -4.4      2.615      4.222
REMARK  Name = 
REMARK  3 active torsions:
REMARK  status: ('A' for Active; 'I' for Inactive)
REMARK    1  A    between atoms: C_2  and  C_3
REMARK    2  A    between atoms: C_3  and  C_4
REMARK    3  A    between atoms: C_9  and  O_10
REMARK                            x       y       z     vdW  Elec       q    Type
REMARK                         _______ _______ _______ _____ _____    ______ ____
ROOT
ATOM      1  C   UNL     1     -10.716  13.022  65.526  0.00  0.00    -0.015 A 
ATOM      2  C   UNL     1      -9.853  14.089  65.709  0.00  0.00    +0.036 A 
ATOM      3  C   UNL     1     -10.300  15.380  65.450  0.00  0.00    +0.177 A 
ATOM      4  C   UNL     1     -11.476  15.589  64.741  0.00  0.00    +0.229 A 
ATOM      5  O   UNL     1     -11.589  16.675  63.891  0.00  0.00    -0.283 OA
ATOM      6  C   UNL     1     -12.284  14.487  64.511  0.00  0.00    +0.045 A 
ATOM      7  C   UNL     1     -12.040  13.340  65.259  0.00  0.00    -0.000 A 
ENDROOT
BRANCH   3   8
ATOM      8  O   UNL     1      -9.494  16.473  65.681  0.00  0.00    -0.468 OA
ATOM      9  C   UNL     1      -8.260  16.282  66.325  0.00  0.00    +0.253 C 
ENDBRANCH   3   8
BRANCH   1  10
ATOM     10  C   UNL     1     -10.443  11.653  65.994  0.00  0.00    +0.052 C 
BRANCH  10  12
ATOM     11  C   UNL     1     -10.044  10.468  63.889  0.00  0.00    -0.005 C 
ATOM     12  C   UNL     1      -9.570  10.880  65.071  0.00  0.00    -0.021 C 
ENDBRANCH  10  12
ENDBRANCH   1  10
TORSDOF 3
ENDMDL
MODEL 8
REMARK VINA RESULT:      -4.4      1.741      3.220
REMARK  Name = 
REMARK  3 active torsions:
REMARK  status: ('A' for Active; 'I' for Inactive)
REMARK    1  A    between atoms: C_2  and  C_3
REMARK    2  A    between atoms: C_3  and  C_4
REMARK    3  A    between atoms: C_9  and  O_10
REMARK                            x       y       z     vdW  Elec       q    Type
REMARK                         _______ _______ _______ _____ _____    ______ ____
ROOT
ATOM      1  C   UNL     1     -10.769  15.546  66.273  0.00  0.00    -0.015 A 
ATOM      2  C   UNL     1     -11.414  14.832  65.276  0.00  0.00    +0.036 A 
ATOM      3  C   UNL     1     -12.123  13.684  65.609  0.00  0.00    +0.177 A 
ATOM      4  C   UNL     1     -11.952  13.087  66.851  0.00  0.00    +0.229 A 
ATOM      5  O   UNL     1     -12.025  11.710  66.973  0.00  0.00    -0.283 OA
ATOM      6  C   UNL     1     -11.240  13.795  67.806  0.00  0.00    +0.045 A 
ATOM      7  C   UNL     1     -11.028  15.151  67.578  0.00  0.00    -0.000 A 
ENDROOT
BRANCH   3   8
ATOM      8  O   UNL     1     -12.830  12.983  64.657  0.00  0.00    -0.468 OA
ATOM      9  C   UNL     1     -12.159  12.531  63.510  0.00  0.00    +0.253 C 
ENDBRANCH   3   8
BRANCH   1  10
ATOM     10  C   UNL     1     -10.201  16.892  66.087  0.00  0.00    +0.052 C 
BRANCH  10  12
ATOM     11  C   UNL     1     -10.644  19.077  67.097  0.00  0.00    -0.005 C 
ATOM     12  C   UNL     1     -10.385  17.775  67.268  0.00  0.00    -0.021 C 
ENDBRANCH  10  12
ENDBRANCH   1  10
TORSDOF 3
ENDMDL
MODEL 9
REMARK VINA RESULT:      -4.4      2.277      2.923
REMARK  Name = 
REMARK  3 active torsions:
REMARK  status: ('A' for Active; 'I' for Inactive)
REMARK    1  A    between atoms: C_2  and  C_3
REMARK    2  A    between atoms: C_3  and  C_4
REMARK    3  A    between atoms: C_9  and  O_10
REMARK                            x       y       z     vdW  Elec       q    Type
REMARK                         _______ _______ _______ _____ _____    ______ ____
ROOT
ATOM      1  C   UNL     1     -11.447  11.922  66.739  0.00  0.00    -0.015 A 
ATOM      2  C   UNL     1     -10.942  11.557  65.503  0.00  0.00    +0.036 A 
ATOM      3  C   UNL     1     -11.068  12.430  64.429  0.00  0.00    +0.177 A 
ATOM      4  C   UNL     1     -11.937  13.511  64.500  0.00  0.00    +0.229 A 
ATOM      5  O   UNL     1     -12.608  13.936  63.366  0.00  0.00    -0.283 OA
ATOM      6  C   UNL     1     -12.484  13.809  65.738  0.00  0.00    +0.045 A 
ATOM      7  C   UNL     1     -11.897  13.229  66.858  0.00  0.00    -0.000 A 
ENDROOT
BRANCH   3   8
ATOM      8  O   UNL     1     -10.522  12.131  63.200  0.00  0.00    -0.468 OA
ATOM      9  C   UNL     1      -9.664  11.025  63.089  0.00  0.00    +0.253 C 
ENDBRANCH   3   8
BRANCH   1  10
ATOM     10  C   UNL     1     -11.162  11.201  67.991  0.00  0.00    +0.052 C 
BRANCH  10  12
ATOM     11  C   UNL     1     -12.028  11.175  70.281  0.00  0.00    -0.005 C 
ATOM     12  C   UNL     1     -11.695  11.888  69.198  0.00  0.00    -0.021 C 
ENDBRANCH  10  12
ENDBRANCH   1  10
TORSDOF 3
ENDMDL
