MODEL 1
REMARK VINA RESULT:      -4.7      0.000      0.000
REMARK  Name = 
REMARK  4 active torsions:
REMARK  status: ('A' for Active; 'I' for Inactive)
REMARK    1  A    between atoms: N_4  and  C_5
REMARK    2  A    between atoms: C_5  and  C_6
REMARK    3  A    between atoms: C_6  and  C_7
REMARK    4  A    between atoms: C_7  and  S_8
REMARK                            x       y       z     vdW  Elec       q    Type
REMARK                         _______ _______ _______ _____ _____    ______ ____
ROOT
ATOM      1  C   UNL     1     -10.574  14.985  66.333  0.00  0.00    +0.047 C 
ENDROOT
BRANCH   1   2
ATOM      2  C   UNL     1      -9.539  16.090  66.217  0.00  0.00    +0.117 C 
BRANCH   2   5
ATOM      3  C   UNL     1     -10.398  19.764  66.196  0.00  0.00    +0.096 C 
ATOM      4  C   UNL     1     -10.282  18.371  66.720  0.00  0.00    +0.242 C 
ATOM      5  N   UNL     1     -10.188  17.314  65.757  0.00  0.00    -0.205 NA
ATOM      6  O   UNL     1     -10.842  18.053  67.810  0.00  0.00    -0.273 OA
ENDBRANCH   2   5
ENDBRANCH   1   2
BRANCH   1   7
ATOM      7  C   UNL     1     -10.600  14.290  64.979  0.00  0.00    +0.128 C 
BRANCH   7   8
ATOM      8  S   UNL     1     -12.249  14.459  64.323  0.00  0.00    -0.107 S 
ATOM      9  O   UNL     1     -12.456  16.049  63.811  0.00  0.00    -0.291 OA
ATOM     10  O   UNL     1     -12.384  13.503  63.191  0.00  0.00    -0.371 OA
ATOM     11  O   UNL     1     -13.197  14.136  65.453  0.00  0.00    -0.371 OA
ENDBRANCH   7   8
ENDBRANCH   1   7
TORSDOF 4
ENDMDL
MODEL 2
REMARK VINA RESULT:      -4.7      1.126      1.636
REMARK  Name = 
REMARK  4 active torsions:
REMARK  status: ('A' for Active; 'I' for Inactive)
REMARK    1  A    between atoms: N_4  and  C_5
REMARK    2  A    between atoms: C_5  and  C_6
REMARK    3  A    between atoms: C_6  and  C_7
REMARK    4  A    between atoms: C_7  and  S_8
REMARK                            x       y       z     vdW  Elec       q    Type
REMARK                         _______ _______ _______ _____ _____    ______ ____
ROOT
ATOM      1  C   UNL     1     -11.131  15.554  64.819  0.00  0.00    +0.047 C 
ENDROOT
BRANCH   1   2
ATOM      2  C   UNL     1     -10.188  16.284  65.760  0.00  0.00    +0.117 C 
BRANCH   2   5
ATOM      3  C   UNL     1      -9.951  19.913  66.762  0.00  0.00    +0.096 C 
ATOM      4  C   UNL     1     -10.275  18.461  66.882  0.00  0.00    +0.242 C 
ATOM      5  N   UNL     1     -10.427  17.721  65.664  0.00  0.00    -0.205 NA
ATOM      6  O   UNL     1     -10.972  18.043  67.853  0.00  0.00    -0.273 OA
ENDBRANCH   2   5
ENDBRANCH   1   2
BRANCH   1   7
ATOM      7  C   UNL     1     -10.773  14.078  64.927  0.00  0.00    +0.128 C 
BRANCH   7   8
ATOM      8  S   UNL     1     -12.299  13.161  65.002  0.00  0.00    -0.107 S 
ATOM      9  O   UNL     1     -12.601  12.508  63.479  0.00  0.00    -0.291 OA
ATOM     10  O   UNL     1     -12.136  12.096  66.027  0.00  0.00    -0.371 OA
ATOM     11  O   UNL     1     -13.377  14.149  65.378  0.00  0.00    -0.371 OA
ENDBRANCH   7   8
ENDBRANCH   1   7
TORSDOF 4
ENDMDL
MODEL 3
REMARK VINA RESULT:      -4.5      5.099      6.225
REMARK  Name = 
REMARK  4 active torsions:
REMARK  status: ('A' for Active; 'I' for Inactive)
REMARK    1  A    between atoms: N_4  and  C_5
REMARK    2  A    between atoms: C_5  and  C_6
REMARK    3  A    between atoms: C_6  and  C_7
REMARK    4  A    between atoms: C_7  and  S_8
REMARK                            x       y       z     vdW  Elec       q    Type
REMARK                         _______ _______ _______ _____ _____    ______ ____
ROOT
ATOM      1  C   UNL     1     -12.283  15.643  70.333  0.00  0.00    +0.047 C 
ENDROOT
BRANCH   1   2
ATOM      2  C   UNL     1     -11.013  16.287  69.803  0.00  0.00    +0.117 C 
BRANCH   2   5
ATOM      3  C   UNL     1     -10.236  18.015  66.540  0.00  0.00    +0.096 C 
ATOM      4  C   UNL     1     -10.260  17.785  68.015  0.00  0.00    +0.242 C 
ATOM      5  N   UNL     1     -11.299  16.943  68.531  0.00  0.00    -0.205 NA
ATOM      6  O   UNL     1      -9.861  18.689  68.806  0.00  0.00    -0.273 OA
ENDBRANCH   2   5
ENDBRANCH   1   2
BRANCH   1   7
ATOM      7  C   UNL     1     -11.863  14.813  71.537  0.00  0.00    +0.128 C 
BRANCH   7   8
ATOM      8  S   UNL     1     -13.205  14.850  72.709  0.00  0.00    -0.107 S 
ATOM      9  O   UNL     1     -14.007  13.371  72.643  0.00  0.00    -0.291 OA
ATOM     10  O   UNL     1     -12.623  15.093  74.055  0.00  0.00    -0.371 OA
ATOM     11  O   UNL     1     -14.121  15.970  72.278  0.00  0.00    -0.371 OA
ENDBRANCH   7   8
ENDBRANCH   1   7
TORSDOF 4
ENDMDL
MODEL 4
REMARK VINA RESULT:      -4.4      5.157      6.342
REMARK  Name = 
REMARK  4 active torsions:
REMARK  status: ('A' for Active; 'I' for Inactive)
REMARK    1  A    between atoms: N_4  and  C_5
REMARK    2  A    between atoms: C_5  and  C_6
REMARK    3  A    between atoms: C_6  and  C_7
REMARK    4  A    between atoms: C_7  and  S_8
REMARK                            x       y       z     vdW  Elec       q    Type
REMARK                         _______ _______ _______ _____ _____    ______ ____
ROOT
ATOM      1  C   UNL     1     -12.493  15.466  70.330  0.00  0.00    +0.047 C 
ENDROOT
BRANCH   1   2
ATOM      2  C   UNL     1     -11.324  15.583  69.368  0.00  0.00    +0.117 C 
BRANCH   2   5
ATOM      3  C   UNL     1     -10.332  18.267  66.909  0.00  0.00    +0.096 C 
ATOM      4  C   UNL     1     -10.174  17.260  67.999  0.00  0.00    +0.242 C 
ATOM      5  N   UNL     1     -11.351  16.897  68.732  0.00  0.00    -0.205 NA
ATOM      6  O   UNL     1      -9.094  17.200  68.657  0.00  0.00    -0.273 OA
ENDBRANCH   2   5
ENDBRANCH   1   2
BRANCH   1   7
ATOM      7  C   UNL     1     -11.938  15.798  71.708  0.00  0.00    +0.128 C 
BRANCH   7   8
ATOM      8  S   UNL     1     -13.234  15.498  72.894  0.00  0.00    -0.107 S 
ATOM      9  O   UNL     1     -12.817  16.257  74.338  0.00  0.00    -0.291 OA
ATOM     10  O   UNL     1     -14.495  16.052  72.334  0.00  0.00    -0.371 OA
ATOM     11  O   UNL     1     -13.307  14.002  73.083  0.00  0.00    -0.371 OA
ENDBRANCH   7   8
ENDBRANCH   1   7
TORSDOF 4
ENDMDL
MODEL 5
REMARK VINA RESULT:      -4.4      5.385      7.085
REMARK  Name = 
REMARK  4 active torsions:
REMARK  status: ('A' for Active; 'I' for Inactive)
REMARK    1  A    between atoms: N_4  and  C_5
REMARK    2  A    between atoms: C_5  and  C_6
REMARK    3  A    between atoms: C_6  and  C_7
REMARK    4  A    between atoms: C_7  and  S_8
REMARK                            x       y       z     vdW  Elec       q    Type
REMARK                         _______ _______ _______ _____ _____    ______ ____
ROOT
ATOM      1  C   UNL     1     -12.467  15.475  70.336  0.00  0.00    +0.047 C 
ENDROOT
BRANCH   1   2
ATOM      2  C   UNL     1     -11.851  14.158  69.895  0.00  0.00    +0.117 C 
BRANCH   2   5
ATOM      3  C   UNL     1     -12.097  13.829  66.144  0.00  0.00    +0.096 C 
ATOM      4  C   UNL     1     -12.069  13.400  67.575  0.00  0.00    +0.242 C 
ATOM      5  N   UNL     1     -11.415  14.270  68.507  0.00  0.00    -0.205 NA
ATOM      6  O   UNL     1     -12.024  12.169  67.869  0.00  0.00    -0.273 OA
ENDBRANCH   2   5
ENDBRANCH   1   2
BRANCH   1   7
ATOM      7  C   UNL     1     -11.904  15.758  71.722  0.00  0.00    +0.128 C 
BRANCH   7   8
ATOM      8  S   UNL     1     -13.214  15.481  72.899  0.00  0.00    -0.107 S 
ATOM      9  O   UNL     1     -12.796  16.237  74.344  0.00  0.00    -0.291 OA
ATOM     10  O   UNL     1     -14.462  16.053  72.328  0.00  0.00    -0.371 OA
ATOM     11  O   UNL     1     -13.311  13.987  73.089  0.00  0.00    -0.371 OA
ENDBRANCH   7   8
ENDBRANCH   1   7
TORSDOF 4
ENDMDL
MODEL 6
REMARK VINA RESULT:      -4.4      1.981      2.873
REMARK  Name = 
REMARK  4 active torsions:
REMARK  status: ('A' for Active; 'I' for Inactive)
REMARK    1  A    between atoms: N_4  and  C_5
REMARK    2  A    between atoms: C_5  and  C_6
REMARK    3  A    between atoms: C_6  and  C_7
REMARK    4  A    between atoms: C_7  and  S_8
REMARK                            x       y       z     vdW  Elec       q    Type
REMARK                         _______ _______ _______ _____ _____    ______ ____
ROOT
ATOM      1  C   UNL     1     -10.989  15.458  64.995  0.00  0.00    +0.047 C 
ENDROOT
BRANCH   1   2
ATOM      2  C   UNL     1     -10.079  15.943  66.110  0.00  0.00    +0.117 C 
BRANCH   2   5
ATOM      3  C   UNL     1     -11.938  14.287  68.946  0.00  0.00    +0.096 C 
ATOM      4  C   UNL     1     -11.387  15.394  68.109  0.00  0.00    +0.242 C 
ATOM      5  N   UNL     1     -10.256  15.091  67.283  0.00  0.00    -0.205 NA
ATOM      6  O   UNL     1     -11.444  16.591  68.520  0.00  0.00    -0.273 OA
ENDBRANCH   2   5
ENDBRANCH   1   2
BRANCH   1   7
ATOM      7  C   UNL     1     -10.718  13.967  64.850  0.00  0.00    +0.128 C 
BRANCH   7   8
ATOM      8  S   UNL     1     -12.281  13.122  64.995  0.00  0.00    -0.107 S 
ATOM      9  O   UNL     1     -12.636  12.406  63.513  0.00  0.00    -0.291 OA
ATOM     10  O   UNL     1     -12.146  12.105  66.071  0.00  0.00    -0.371 OA
ATOM     11  O   UNL     1     -13.309  14.174  65.336  0.00  0.00    -0.371 OA
ENDBRANCH   7   8
ENDBRANCH   1   7
TORSDOF 4
ENDMDL
MODEL 7
REMARK VINA RESULT:      -4.4      7.193      9.500
REMARK  Name = 
REMARK  4 active torsions:
REMARK  status: ('A' for Active; 'I' for Inactive)
REMARK    1  A    between atoms: N_4  and  C_5
REMARK    2  A    between atoms: C_5  and  C_6
REMARK    3  A    between atoms: C_6  and  C_7
REMARK    4  A    between atoms: C_7  and  S_8
REMARK                            x       y       z     vdW  Elec       q    Type
REMARK                         _______ _______ _______ _____ _____    ______ ____
ROOT
ATOM      1  C   UNL     1      -6.039  20.026  70.473  0.00  0.00    +0.047 C 
ENDROOT
BRANCH   1   2
ATOM      2  C   UNL     1      -6.370  19.246  69.212  0.00  0.00    +0.117 C 
BRANCH   2   5
ATOM      3  C   UNL     1      -9.224  19.921  66.838  0.00  0.00    +0.096 C 
ATOM      4  C   UNL     1      -7.909  20.121  67.517  0.00  0.00    +0.242 C 
ATOM      5  N   UNL     1      -7.745  19.533  68.813  0.00  0.00    -0.205 NA
ATOM      6  O   UNL     1      -7.249  21.183  67.323  0.00  0.00    -0.273 OA
ENDBRANCH   2   5
ENDBRANCH   1   2
BRANCH   1   7
ATOM      7  C   UNL     1      -4.900  20.964  70.100  0.00  0.00    +0.128 C 
BRANCH   7   8
ATOM      8  S   UNL     1      -3.909  21.210  71.561  0.00  0.00    -0.107 S 
ATOM      9  O   UNL     1      -4.553  22.502  72.427  0.00  0.00    -0.291 OA
ATOM     10  O   UNL     1      -3.951  19.951  72.353  0.00  0.00    -0.371 OA
ATOM     11  O   UNL     1      -2.513  21.532  71.085  0.00  0.00    -0.371 OA
ENDBRANCH   7   8
ENDBRANCH   1   7
TORSDOF 4
ENDMDL
MODEL 8
REMARK VINA RESULT:      -4.3      5.914      7.739
REMARK  Name = 
REMARK  4 active torsions:
REMARK  status: ('A' for Active; 'I' for Inactive)
REMARK    1  A    between atoms: N_4  and  C_5
REMARK    2  A    between atoms: C_5  and  C_6
REMARK    3  A    between atoms: C_6  and  C_7
REMARK    4  A    between atoms: C_7  and  S_8
REMARK                            x       y       z     vdW  Elec       q    Type
REMARK                         _______ _______ _______ _____ _____    ______ ____
ROOT
ATOM      1  C   UNL     1     -12.474  15.308  70.354  0.00  0.00    +0.047 C 
ENDROOT
BRANCH   1   2
ATOM      2  C   UNL     1     -11.776  14.300  69.457  0.00  0.00    +0.117 C 
BRANCH   2   5
ATOM      3  C   UNL     1     -11.255  10.577  69.784  0.00  0.00    +0.096 C 
ATOM      4  C   UNL     1     -11.581  11.879  69.129  0.00  0.00    +0.242 C 
ATOM      5  N   UNL     1     -11.996  12.955  69.980  0.00  0.00    -0.205 NA
ATOM      6  O   UNL     1     -12.072  11.898  67.963  0.00  0.00    -0.273 OA
ENDBRANCH   2   5
ENDBRANCH   1   2
BRANCH   1   7
ATOM      7  C   UNL     1     -11.804  15.193  71.716  0.00  0.00    +0.128 C 
BRANCH   7   8
ATOM      8  S   UNL     1     -13.094  15.012  72.933  0.00  0.00    -0.107 S 
ATOM      9  O   UNL     1     -13.784  13.487  72.751  0.00  0.00    -0.291 OA
ATOM     10  O   UNL     1     -12.473  15.170  74.275  0.00  0.00    -0.371 OA
ATOM     11  O   UNL     1     -14.109  16.092  72.647  0.00  0.00    -0.371 OA
ENDBRANCH   7   8
ENDBRANCH   1   7
TORSDOF 4
ENDMDL
MODEL 9
REMARK VINA RESULT:      -4.3      2.826      5.354
REMARK  Name = 
REMARK  4 active torsions:
REMARK  status: ('A' for Active; 'I' for Inactive)
REMARK    1  A    between atoms: N_4  and  C_5
REMARK    2  A    between atoms: C_5  and  C_6
REMARK    3  A    between atoms: C_6  and  C_7
REMARK    4  A    between atoms: C_7  and  S_8
REMARK                            x       y       z     vdW  Elec       q    Type
REMARK                         _______ _______ _______ _____ _____    ______ ____
ROOT
ATOM      1  C   UNL     1     -11.522  14.791  65.238  0.00  0.00    +0.047 C 
ENDROOT
BRANCH   1   2
ATOM      2  C   UNL     1     -12.399  13.672  65.773  0.00  0.00    +0.117 C 
BRANCH   2   5
ATOM      3  C   UNL     1     -10.740  11.136  63.525  0.00  0.00    +0.096 C 
ATOM      4  C   UNL     1     -11.774  12.105  63.995  0.00  0.00    +0.242 C 
ATOM      5  N   UNL     1     -11.820  12.385  65.399  0.00  0.00    -0.205 NA
ATOM      6  O   UNL     1     -12.886  12.187  63.396  0.00  0.00    -0.273 OA
ENDBRANCH   2   5
ENDBRANCH   1   2
BRANCH   1   7
ATOM      7  C   UNL     1     -10.822  15.391  66.449  0.00  0.00    +0.128 C 
BRANCH   7   8
ATOM      8  S   UNL     1     -10.266  17.022  65.993  0.00  0.00    -0.107 S 
ATOM      9  O   UNL     1     -10.638  18.079  67.249  0.00  0.00    -0.291 OA
ATOM     10  O   UNL     1      -8.799  16.950  65.761  0.00  0.00    -0.371 OA
ATOM     11  O   UNL     1     -11.020  17.398  64.741  0.00  0.00    -0.371 OA
ENDBRANCH   7   8
ENDBRANCH   1   7
TORSDOF 4
ENDMDL
