MODEL 1
REMARK VINA RESULT:      -8.3      0.000      0.000
REMARK  Name = 
REMARK  4 active torsions:
REMARK  status: ('A' for Active; 'I' for Inactive)
REMARK    1  A    between atoms: C_2  and  O_4
REMARK    2  A    between atoms: O_4  and  C_5
REMARK    3  A    between atoms: C_5  and  C_6
REMARK    4  A    between atoms: C_6  and  C_8
REMARK                            x       y       z     vdW  Elec       q    Type
REMARK                         _______ _______ _______ _____ _____    ______ ____
ROOT
ATOM      1  C   UNL     1     -11.153  15.029  67.498  0.00  0.00    +0.174 C 
ATOM      2  C   UNL     1     -10.266  15.978  66.933  0.00  0.00    +0.034 C 
ATOM      3  C   UNL     1      -9.116  15.992  68.063  0.00  0.00    +0.008 C 
ATOM      4  C   UNL     1      -8.089  16.673  66.904  0.00  0.00    +0.036 C 
ATOM      5  C   UNL     1      -8.248  18.106  67.575  0.00  0.00    +0.168 C 
ATOM      6  C   UNL     1      -9.837  18.405  67.712  0.00  0.00    +0.182 C 
ATOM      7  O   UNL     1      -9.794  19.511  66.666  0.00  0.00    -0.220 OA
ATOM      8  F   UNL     1      -7.944  18.014  68.929  0.00  0.00    -0.237 F 
ATOM      9  C   UNL     1      -7.406  19.081  67.008  0.00  0.00    +0.066 C 
ATOM     10  C   UNL     1      -6.020  18.497  67.198  0.00  0.00    -0.003 C 
ATOM     11  C   UNL     1      -5.018  19.201  66.656  0.00  0.00    +0.036 C 
ATOM     12  C   UNL     1      -5.153  20.660  66.752  0.00  0.00    +0.195 C 
ATOM     13  C   UNL     1      -6.267  21.090  67.566  0.00  0.00    +0.038 C 
ATOM     14  O   UNL     1      -4.247  21.371  66.292  0.00  0.00    -0.287 OA
ATOM     15  C   UNL     1      -5.855  17.037  66.501  0.00  0.00    +0.180 C 
ATOM     16  F   UNL     1      -4.550  16.759  67.206  0.00  0.00    -0.233 F 
ATOM     17  C   UNL     1      -7.483  19.478  65.583  0.00  0.00    +0.011 C 
ATOM     18  C   UNL     1      -7.273  20.286  67.898  0.00  0.00    -0.017 C 
ATOM     19  C   UNL     1      -6.728  16.312  67.710  0.00  0.00    +0.042 C 
ATOM     20  C   UNL     1      -8.774  14.467  67.673  0.00  0.00    +0.033 C 
ATOM     21  C   UNL     1      -9.665  15.325  65.678  0.00  0.00    +0.003 C 
ATOM     22  C   UNL     1     -10.421  17.328  66.610  0.00  0.00    +0.038 C 
ATOM     23  C   UNL     1     -10.223  13.874  68.202  0.00  0.00    +0.149 C 
ATOM     24  O   UNL     1     -10.144  14.626  69.516  0.00  0.00    -0.334 OA
ATOM     25  C   UNL     1     -11.481  14.953  69.710  0.00  0.00    +0.188 C 
ATOM     26  C   UNL     1     -11.569  15.967  70.796  0.00  0.00    +0.061 C 
ATOM     27  C   UNL     1     -12.180  13.639  70.035  0.00  0.00    +0.061 C 
ATOM     28  O   UNL     1     -12.011  15.350  68.503  0.00  0.00    -0.330 OA
ENDROOT
BRANCH   1  29
ATOM     29  C   UNL     1     -11.816  14.193  66.439  0.00  0.00    +0.221 C 
ATOM     30  O   UNL     1     -12.805  14.733  65.961  0.00  0.00    -0.290 OA
BRANCH  29  31
ATOM     31  C   UNL     1     -11.726  12.727  66.318  0.00  0.00    +0.275 C 
BRANCH  31  32
ATOM     32  O   UNL     1     -12.409  12.197  65.221  0.00  0.00    -0.440 OA
BRANCH  32  34
ATOM     33  C   UNL     1     -10.721  11.403  63.577  0.00  0.00    +0.121 C 
ATOM     34  C   UNL     1     -11.894  12.196  63.921  0.00  0.00    +0.318 C 
ATOM     35  O   UNL     1     -12.500  12.974  63.149  0.00  0.00    -0.250 OA
ENDBRANCH  32  34
ENDBRANCH  31  32
ENDBRANCH  29  31
ENDBRANCH   1  29
TORSDOF 4
ENDMDL
MODEL 2
REMARK VINA RESULT:      -7.9      1.956      4.301
REMARK  Name = 
REMARK  4 active torsions:
REMARK  status: ('A' for Active; 'I' for Inactive)
REMARK    1  A    between atoms: C_2  and  O_4
REMARK    2  A    between atoms: O_4  and  C_5
REMARK    3  A    between atoms: C_5  and  C_6
REMARK    4  A    between atoms: C_6  and  C_8
REMARK                            x       y       z     vdW  Elec       q    Type
REMARK                         _______ _______ _______ _____ _____    ______ ____
ROOT
ATOM      1  C   UNL     1     -10.438  13.744  67.682  0.00  0.00    +0.174 C 
ATOM      2  C   UNL     1      -9.567  14.824  67.974  0.00  0.00    +0.034 C 
ATOM      3  C   UNL     1     -10.167  15.943  66.980  0.00  0.00    +0.008 C 
ATOM      4  C   UNL     1      -9.379  17.100  67.929  0.00  0.00    +0.036 C 
ATOM      5  C   UNL     1      -8.244  17.262  66.827  0.00  0.00    +0.168 C 
ATOM      6  C   UNL     1      -7.677  15.779  66.493  0.00  0.00    +0.182 C 
ATOM      7  O   UNL     1      -6.325  16.071  67.132  0.00  0.00    -0.220 OA
ATOM      8  F   UNL     1      -8.835  17.531  65.597  0.00  0.00    -0.237 F 
ATOM      9  C   UNL     1      -7.339  18.302  67.110  0.00  0.00    +0.066 C 
ATOM     10  C   UNL     1      -8.233  19.523  67.212  0.00  0.00    -0.003 C 
ATOM     11  C   UNL     1      -7.620  20.658  67.568  0.00  0.00    +0.036 C 
ATOM     12  C   UNL     1      -6.279  20.851  67.003  0.00  0.00    +0.195 C 
ATOM     13  C   UNL     1      -5.912  19.858  66.020  0.00  0.00    +0.038 C 
ATOM     14  O   UNL     1      -5.666  21.895  67.274  0.00  0.00    -0.287 OA
ATOM     15  C   UNL     1      -9.386  19.361  68.347  0.00  0.00    +0.180 C 
ATOM     16  F   UNL     1     -10.148  20.568  67.859  0.00  0.00    -0.233 F 
ATOM     17  C   UNL     1      -6.492  18.322  68.325  0.00  0.00    +0.011 C 
ATOM     18  C   UNL     1      -6.548  18.696  65.894  0.00  0.00    -0.017 C 
ATOM     19  C   UNL     1     -10.263  18.343  67.376  0.00  0.00    +0.042 C 
ATOM     20  C   UNL     1     -11.517  15.938  67.859  0.00  0.00    +0.033 C 
ATOM     21  C   UNL     1      -9.886  15.269  69.410  0.00  0.00    +0.003 C 
ATOM     22  C   UNL     1      -8.185  14.974  67.838  0.00  0.00    +0.038 C 
ATOM     23  C   UNL     1     -11.929  14.391  67.448  0.00  0.00    +0.149 C 
ATOM     24  O   UNL     1     -11.681  14.629  65.972  0.00  0.00    -0.334 OA
ATOM     25  C   UNL     1     -11.160  13.398  65.593  0.00  0.00    +0.188 C 
ATOM     26  C   UNL     1     -10.561  13.534  64.237  0.00  0.00    +0.061 C 
ATOM     27  C   UNL     1     -12.328  12.423  65.656  0.00  0.00    +0.061 C 
ATOM     28  O   UNL     1     -10.288  12.975  66.571  0.00  0.00    -0.330 OA
ENDROOT
BRANCH   1  29
ATOM     29  C   UNL     1     -10.722  12.916  68.904  0.00  0.00    +0.221 C 
ATOM     30  O   UNL     1      -9.907  12.017  69.065  0.00  0.00    -0.290 OA
BRANCH  29  31
ATOM     31  C   UNL     1     -12.038  12.755  69.548  0.00  0.00    +0.275 C 
BRANCH  31  32
ATOM     32  O   UNL     1     -12.066  13.117  70.897  0.00  0.00    -0.440 OA
BRANCH  32  34
ATOM     33  C   UNL     1     -13.258  15.286  71.127  0.00  0.00    +0.121 C 
ATOM     34  C   UNL     1     -13.088  13.879  71.469  0.00  0.00    +0.318 C 
ATOM     35  O   UNL     1     -13.760  13.249  72.316  0.00  0.00    -0.250 OA
ENDBRANCH  32  34
ENDBRANCH  31  32
ENDBRANCH  29  31
ENDBRANCH   1  29
TORSDOF 4
ENDMDL
MODEL 3
REMARK VINA RESULT:      -7.6      3.489      7.385
REMARK  Name = 
REMARK  4 active torsions:
REMARK  status: ('A' for Active; 'I' for Inactive)
REMARK    1  A    between atoms: C_2  and  O_4
REMARK    2  A    between atoms: O_4  and  C_5
REMARK    3  A    between atoms: C_5  and  C_6
REMARK    4  A    between atoms: C_6  and  C_8
REMARK                            x       y       z     vdW  Elec       q    Type
REMARK                         _______ _______ _______ _____ _____    ______ ____
ROOT
ATOM      1  C   UNL     1     -10.173  14.840  68.715  0.00  0.00    +0.174 C 
ATOM      2  C   UNL     1      -9.486  13.924  67.881  0.00  0.00    +0.034 C 
ATOM      3  C   UNL     1     -10.727  13.041  67.354  0.00  0.00    +0.008 C 
ATOM      4  C   UNL     1      -9.728  12.527  66.089  0.00  0.00    +0.036 C 
ATOM      5  C   UNL     1      -9.512  11.122  66.803  0.00  0.00    +0.168 C 
ATOM      6  C   UNL     1      -9.025  11.419  68.322  0.00  0.00    +0.182 C 
ATOM      7  O   UNL     1      -7.626  10.876  68.059  0.00  0.00    -0.220 OA
ATOM      8  F   UNL     1     -10.750  10.562  67.096  0.00  0.00    -0.237 F 
ATOM      9  C   UNL     1      -8.796  10.203  66.013  0.00  0.00    +0.066 C 
ATOM     10  C   UNL     1      -9.637  10.096  64.756  0.00  0.00    -0.003 C 
ATOM     11  C   UNL     1      -9.124   9.334  63.782  0.00  0.00    +0.036 C 
ATOM     12  C   UNL     1      -8.431   8.120  64.235  0.00  0.00    +0.195 C 
ATOM     13  C   UNL     1      -8.566   7.866  65.650  0.00  0.00    +0.038 C 
ATOM     14  O   UNL     1      -7.954   7.358  63.381  0.00  0.00    -0.287 OA
ATOM     15  C   UNL     1      -9.847  11.531  64.021  0.00  0.00    +0.180 C 
ATOM     16  F   UNL     1     -10.931  10.999  63.116  0.00  0.00    -0.233 F 
ATOM     17  C   UNL     1      -7.411  10.448  65.552  0.00  0.00    +0.011 C 
ATOM     18  C   UNL     1      -8.956   8.795  66.518  0.00  0.00    -0.017 C 
ATOM     19  C   UNL     1     -10.952  12.005  65.162  0.00  0.00    +0.042 C 
ATOM     20  C   UNL     1     -11.271  14.345  66.580  0.00  0.00    +0.033 C 
ATOM     21  C   UNL     1      -8.957  14.730  66.684  0.00  0.00    +0.003 C 
ATOM     22  C   UNL     1      -8.499  12.972  68.150  0.00  0.00    +0.038 C 
ATOM     23  C   UNL     1     -11.592  15.188  67.965  0.00  0.00    +0.149 C 
ATOM     24  O   UNL     1     -12.310  14.018  68.608  0.00  0.00    -0.334 OA
ATOM     25  C   UNL     1     -11.926  14.175  69.935  0.00  0.00    +0.188 C 
ATOM     26  C   UNL     1     -12.280  12.935  70.680  0.00  0.00    +0.061 C 
ATOM     27  C   UNL     1     -12.655  15.418  70.427  0.00  0.00    +0.061 C 
ATOM     28  O   UNL     1     -10.591  14.507  69.966  0.00  0.00    -0.330 OA
ENDROOT
BRANCH   1  29
ATOM     29  C   UNL     1      -9.540  16.203  68.679  0.00  0.00    +0.221 C 
ATOM     30  O   UNL     1      -8.552  16.285  69.398  0.00  0.00    -0.290 OA
BRANCH  29  31
ATOM     31  C   UNL     1     -10.225  17.462  68.332  0.00  0.00    +0.275 C 
BRANCH  31  32
ATOM     32  O   UNL     1      -9.597  18.199  67.325  0.00  0.00    -0.440 OA
BRANCH  32  34
ATOM     33  C   UNL     1     -10.573  19.990  65.902  0.00  0.00    +0.121 C 
ATOM     34  C   UNL     1     -10.237  18.592  66.146  0.00  0.00    +0.318 C 
ATOM     35  O   UNL     1     -10.529  17.631  65.399  0.00  0.00    -0.250 OA
ENDBRANCH  32  34
ENDBRANCH  31  32
ENDBRANCH  29  31
ENDBRANCH   1  29
TORSDOF 4
ENDMDL
MODEL 4
REMARK VINA RESULT:      -7.6      1.888      2.246
REMARK  Name = 
REMARK  4 active torsions:
REMARK  status: ('A' for Active; 'I' for Inactive)
REMARK    1  A    between atoms: C_2  and  O_4
REMARK    2  A    between atoms: O_4  and  C_5
REMARK    3  A    between atoms: C_5  and  C_6
REMARK    4  A    between atoms: C_6  and  C_8
REMARK                            x       y       z     vdW  Elec       q    Type
REMARK                         _______ _______ _______ _____ _____    ______ ____
ROOT
ATOM      1  C   UNL     1      -9.796  16.312  66.962  0.00  0.00    +0.174 C 
ATOM      2  C   UNL     1      -8.698  17.207  66.993  0.00  0.00    +0.034 C 
ATOM      3  C   UNL     1      -7.955  16.691  68.328  0.00  0.00    +0.008 C 
ATOM      4  C   UNL     1      -6.565  17.477  67.768  0.00  0.00    +0.036 C 
ATOM      5  C   UNL     1      -6.796  18.664  68.802  0.00  0.00    +0.168 C 
ATOM      6  C   UNL     1      -8.317  19.192  68.603  0.00  0.00    +0.182 C 
ATOM      7  O   UNL     1      -7.857  20.525  68.023  0.00  0.00    -0.220 OA
ATOM      8  F   UNL     1      -6.933  18.138  70.081  0.00  0.00    -0.237 F 
ATOM      9  C   UNL     1      -5.738  19.592  68.826  0.00  0.00    +0.066 C 
ATOM     10  C   UNL     1      -4.535  18.739  69.176  0.00  0.00    -0.003 C 
ATOM     11  C   UNL     1      -3.357  19.375  69.178  0.00  0.00    +0.036 C 
ATOM     12  C   UNL     1      -3.386  20.746  69.703  0.00  0.00    +0.195 C 
ATOM     13  C   UNL     1      -4.653  21.120  70.287  0.00  0.00    +0.038 C 
ATOM     14  O   UNL     1      -2.323  21.383  69.756  0.00  0.00    -0.287 OA
ATOM     15  C   UNL     1      -4.293  17.532  68.112  0.00  0.00    +0.180 C 
ATOM     16  F   UNL     1      -3.297  16.836  69.007  0.00  0.00    -0.233 F 
ATOM     17  C   UNL     1      -5.338  20.385  67.641  0.00  0.00    +0.011 C 
ATOM     18  C   UNL     1      -5.780  20.449  70.060  0.00  0.00    -0.017 C 
ATOM     19  C   UNL     1      -5.556  16.663  68.743  0.00  0.00    +0.042 C 
ATOM     20  C   UNL     1      -7.645  15.304  67.568  0.00  0.00    +0.033 C 
ATOM     21  C   UNL     1      -7.800  16.841  65.800  0.00  0.00    +0.003 C 
ATOM     22  C   UNL     1      -8.627  18.598  67.097  0.00  0.00    +0.038 C 
ATOM     23  C   UNL     1      -9.233  14.856  67.473  0.00  0.00    +0.149 C 
ATOM     24  O   UNL     1      -9.497  15.176  68.931  0.00  0.00    -0.334 OA
ATOM     25  C   UNL     1     -10.794  15.670  68.859  0.00  0.00    +0.188 C 
ATOM     26  C   UNL     1     -11.122  16.332  70.152  0.00  0.00    +0.061 C 
ATOM     27  C   UNL     1     -11.672  14.466  68.543  0.00  0.00    +0.061 C 
ATOM     28  O   UNL     1     -10.890  16.483  67.752  0.00  0.00    -0.330 OA
ENDROOT
BRANCH   1  29
ATOM     29  C   UNL     1     -10.172  15.945  65.554  0.00  0.00    +0.221 C 
ATOM     30  O   UNL     1     -10.795  16.833  64.985  0.00  0.00    -0.290 OA
BRANCH  29  31
ATOM     31  C   UNL     1     -10.326  14.575  65.033  0.00  0.00    +0.275 C 
BRANCH  31  32
ATOM     32  O   UNL     1     -11.630  14.246  64.654  0.00  0.00    -0.440 OA
BRANCH  32  34
ATOM     33  C   UNL     1     -11.240  12.070  63.515  0.00  0.00    +0.121 C 
ATOM     34  C   UNL     1     -12.042  12.942  64.365  0.00  0.00    +0.318 C 
ATOM     35  O   UNL     1     -13.160  12.659  64.851  0.00  0.00    -0.250 OA
ENDBRANCH  32  34
ENDBRANCH  31  32
ENDBRANCH  29  31
ENDBRANCH   1  29
TORSDOF 4
ENDMDL
MODEL 5
REMARK VINA RESULT:      -7.6      3.764      7.861
REMARK  Name = 
REMARK  4 active torsions:
REMARK  status: ('A' for Active; 'I' for Inactive)
REMARK    1  A    between atoms: C_2  and  O_4
REMARK    2  A    between atoms: O_4  and  C_5
REMARK    3  A    between atoms: C_5  and  C_6
REMARK    4  A    between atoms: C_6  and  C_8
REMARK                            x       y       z     vdW  Elec       q    Type
REMARK                         _______ _______ _______ _____ _____    ______ ____
ROOT
ATOM      1  C   UNL     1     -10.942  14.959  67.292  0.00  0.00    +0.174 C 
ATOM      2  C   UNL     1     -10.638  13.787  68.028  0.00  0.00    +0.034 C 
ATOM      3  C   UNL     1      -9.769  12.986  66.933  0.00  0.00    +0.008 C 
ATOM      4  C   UNL     1      -9.155  12.058  68.207  0.00  0.00    +0.036 C 
ATOM      5  C   UNL     1     -10.099  10.842  67.804  0.00  0.00    +0.168 C 
ATOM      6  C   UNL     1     -11.613  11.416  67.705  0.00  0.00    +0.182 C 
ATOM      7  O   UNL     1     -12.066  10.638  68.935  0.00  0.00    -0.220 OA
ATOM      8  F   UNL     1      -9.910  10.543  66.459  0.00  0.00    -0.237 F 
ATOM      9  C   UNL     1      -9.847   9.675  68.548  0.00  0.00    +0.066 C 
ATOM     10  C   UNL     1      -8.383   9.394  68.271  0.00  0.00    -0.003 C 
ATOM     11  C   UNL     1      -7.856   8.363  68.942  0.00  0.00    +0.036 C 
ATOM     12  C   UNL     1      -8.743   7.205  69.110  0.00  0.00    +0.195 C 
ATOM     13  C   UNL     1      -9.982   7.308  68.374  0.00  0.00    +0.038 C 
ATOM     14  O   UNL     1      -8.307   6.205  69.701  0.00  0.00    -0.287 OA
ATOM     15  C   UNL     1      -7.418  10.634  68.694  0.00  0.00    +0.180 C 
ATOM     16  F   UNL     1      -6.227  10.060  67.966  0.00  0.00    -0.233 F 
ATOM     17  C   UNL     1      -9.997   9.612  70.020  0.00  0.00    +0.011 C 
ATOM     18  C   UNL     1     -10.442   8.460  67.892  0.00  0.00    -0.017 C 
ATOM     19  C   UNL     1      -7.883  11.508  67.365  0.00  0.00    +0.042 C 
ATOM     20  C   UNL     1      -8.646  14.136  67.045  0.00  0.00    +0.033 C 
ATOM     21  C   UNL     1      -9.678  14.211  69.152  0.00  0.00    +0.003 C 
ATOM     22  C   UNL     1     -11.449  12.797  68.589  0.00  0.00    +0.038 C 
ATOM     23  C   UNL     1      -9.610  15.315  66.401  0.00  0.00    +0.149 C 
ATOM     24  O   UNL     1     -10.050  14.438  65.245  0.00  0.00    -0.334 OA
ATOM     25  C   UNL     1     -11.371  14.845  65.099  0.00  0.00    +0.188 C 
ATOM     26  C   UNL     1     -12.071  13.874  64.213  0.00  0.00    +0.061 C 
ATOM     27  C   UNL     1     -11.303  16.257  64.534  0.00  0.00    +0.061 C 
ATOM     28  O   UNL     1     -11.924  14.987  66.352  0.00  0.00    -0.330 OA
ENDROOT
BRANCH   1  29
ATOM     29  C   UNL     1     -10.975  16.175  68.174  0.00  0.00    +0.221 C 
ATOM     30  O   UNL     1     -12.011  16.263  68.820  0.00  0.00    -0.290 OA
BRANCH  29  31
ATOM     31  C   UNL     1     -10.208  17.415  67.959  0.00  0.00    +0.275 C 
BRANCH  31  32
ATOM     32  O   UNL     1     -10.970  18.488  67.488  0.00  0.00    -0.440 OA
BRANCH  32  34
ATOM     33  C   UNL     1      -9.550  20.529  67.446  0.00  0.00    +0.121 C 
ATOM     34  C   UNL     1     -10.428  19.568  66.787  0.00  0.00    +0.318 C 
ATOM     35  O   UNL     1     -10.825  19.638  65.602  0.00  0.00    -0.250 OA
ENDBRANCH  32  34
ENDBRANCH  31  32
ENDBRANCH  29  31
ENDBRANCH   1  29
TORSDOF 4
ENDMDL
MODEL 6
REMARK VINA RESULT:      -7.0      2.612      8.059
REMARK  Name = 
REMARK  4 active torsions:
REMARK  status: ('A' for Active; 'I' for Inactive)
REMARK    1  A    between atoms: C_2  and  O_4
REMARK    2  A    between atoms: O_4  and  C_5
REMARK    3  A    between atoms: C_5  and  C_6
REMARK    4  A    between atoms: C_6  and  C_8
REMARK                            x       y       z     vdW  Elec       q    Type
REMARK                         _______ _______ _______ _____ _____    ______ ____
ROOT
ATOM      1  C   UNL     1      -4.083  19.627  65.870  0.00  0.00    +0.174 C 
ATOM      2  C   UNL     1      -5.219  18.780  65.905  0.00  0.00    +0.034 C 
ATOM      3  C   UNL     1      -6.032  19.452  67.124  0.00  0.00    +0.008 C 
ATOM      4  C   UNL     1      -7.410  18.665  66.540  0.00  0.00    +0.036 C 
ATOM      5  C   UNL     1      -7.306  17.579  67.698  0.00  0.00    +0.168 C 
ATOM      6  C   UNL     1      -5.798  16.979  67.665  0.00  0.00    +0.182 C 
ATOM      7  O   UNL     1      -6.273  15.613  67.184  0.00  0.00    -0.220 OA
ATOM      8  F   UNL     1      -7.237  18.225  68.927  0.00  0.00    -0.237 F 
ATOM      9  C   UNL     1      -8.402  16.697  67.732  0.00  0.00    +0.066 C 
ATOM     10  C   UNL     1      -9.589  17.624  67.906  0.00  0.00    -0.003 C 
ATOM     11  C   UNL     1     -10.790  17.034  67.881  0.00  0.00    +0.036 C 
ATOM     12  C   UNL     1     -10.858  15.722  68.537  0.00  0.00    +0.195 C 
ATOM     13  C   UNL     1      -9.653  15.362  69.248  0.00  0.00    +0.038 C 
ATOM     14  O   UNL     1     -11.948  15.132  68.571  0.00  0.00    -0.287 OA
ATOM     15  C   UNL     1      -9.702  18.727  66.716  0.00  0.00    +0.180 C 
ATOM     16  F   UNL     1     -10.727  19.544  67.462  0.00  0.00    -0.233 F 
ATOM     17  C   UNL     1      -8.751  15.805  66.602  0.00  0.00    +0.011 C 
ATOM     18  C   UNL     1      -8.485  15.966  69.043  0.00  0.00    -0.017 C 
ATOM     19  C   UNL     1      -8.451  19.608  67.353  0.00  0.00    +0.042 C 
ATOM     20  C   UNL     1      -6.226  20.767  66.213  0.00  0.00    +0.033 C 
ATOM     21  C   UNL     1      -6.013  19.057  64.618  0.00  0.00    +0.003 C 
ATOM     22  C   UNL     1      -5.357  17.410  66.137  0.00  0.00    +0.038 C 
ATOM     23  C   UNL     1      -4.617  21.145  66.194  0.00  0.00    +0.149 C 
ATOM     24  O   UNL     1      -4.472  20.963  67.692  0.00  0.00    -0.334 OA
ATOM     25  C   UNL     1      -3.196  20.418  67.766  0.00  0.00    +0.188 C 
ATOM     26  C   UNL     1      -2.990  19.876  69.137  0.00  0.00    +0.061 C 
ATOM     27  C   UNL     1      -2.246  21.552  67.402  0.00  0.00    +0.061 C 
ATOM     28  O   UNL     1      -3.057  19.496  66.753  0.00  0.00    -0.330 OA
ENDROOT
BRANCH   1  29
ATOM     29  C   UNL     1      -3.592  19.838  64.466  0.00  0.00    +0.221 C 
ATOM     30  O   UNL     1      -2.883  18.921  64.070  0.00  0.00    -0.290 OA
BRANCH  29  31
ATOM     31  C   UNL     1      -3.447  21.140  63.791  0.00  0.00    +0.275 C 
BRANCH  31  32
ATOM     32  O   UNL     1      -3.997  21.187  62.507  0.00  0.00    -0.440 OA
BRANCH  32  34
ATOM     33  C   UNL     1      -6.394  21.723  62.117  0.00  0.00    +0.121 C 
ATOM     34  C   UNL     1      -4.986  22.099  62.127  0.00  0.00    +0.318 C 
ATOM     35  O   UNL     1      -4.524  23.201  61.751  0.00  0.00    -0.250 OA
ENDBRANCH  32  34
ENDBRANCH  31  32
ENDBRANCH  29  31
ENDBRANCH   1  29
TORSDOF 4
ENDMDL
MODEL 7
REMARK VINA RESULT:      -6.9      5.062      7.426
REMARK  Name = 
REMARK  4 active torsions:
REMARK  status: ('A' for Active; 'I' for Inactive)
REMARK    1  A    between atoms: C_2  and  O_4
REMARK    2  A    between atoms: O_4  and  C_5
REMARK    3  A    between atoms: C_5  and  C_6
REMARK    4  A    between atoms: C_6  and  C_8
REMARK                            x       y       z     vdW  Elec       q    Type
REMARK                         _______ _______ _______ _____ _____    ______ ____
ROOT
ATOM      1  C   UNL     1      -9.715   9.200  69.342  0.00  0.00    +0.174 C 
ATOM      2  C   UNL     1     -10.315  10.374  68.823  0.00  0.00    +0.034 C 
ATOM      3  C   UNL     1      -9.685  10.378  67.339  0.00  0.00    +0.008 C 
ATOM      4  C   UNL     1     -10.937  11.424  66.891  0.00  0.00    +0.036 C 
ATOM      5  C   UNL     1      -9.939  12.663  66.917  0.00  0.00    +0.168 C 
ATOM      6  C   UNL     1      -9.193  12.655  68.358  0.00  0.00    +0.182 C 
ATOM      7  O   UNL     1      -9.902  13.925  68.814  0.00  0.00    -0.220 OA
ATOM      8  F   UNL     1      -8.836  12.379  66.120  0.00  0.00    -0.237 F 
ATOM      9  C   UNL     1     -10.521  13.854  66.444  0.00  0.00    +0.066 C 
ATOM     10  C   UNL     1     -10.965  13.491  65.041  0.00  0.00    -0.003 C 
ATOM     11  C   UNL     1     -11.642  14.442  64.386  0.00  0.00    +0.036 C 
ATOM     12  C   UNL     1     -11.169  15.814  64.608  0.00  0.00    +0.195 C 
ATOM     13  C   UNL     1      -9.943  15.892  65.368  0.00  0.00    +0.038 C 
ATOM     14  O   UNL     1     -11.737  16.741  64.012  0.00  0.00    -0.287 OA
ATOM     15  C   UNL     1     -11.995  12.231  65.017  0.00  0.00    +0.180 C 
ATOM     16  F   UNL     1     -11.873  12.058  63.523  0.00  0.00    -0.233 F 
ATOM     17  C   UNL     1     -11.697  14.484  67.088  0.00  0.00    +0.011 C 
ATOM     18  C   UNL     1      -9.479  14.881  66.098  0.00  0.00    -0.017 C 
ATOM     19  C   UNL     1     -10.762  11.161  65.300  0.00  0.00    +0.042 C 
ATOM     20  C   UNL     1     -10.513   9.031  67.031  0.00  0.00    +0.033 C 
ATOM     21  C   UNL     1     -11.817  10.073  68.681  0.00  0.00    +0.003 C 
ATOM     22  C   UNL     1     -10.242  11.714  69.212  0.00  0.00    +0.038 C 
ATOM     23  C   UNL     1      -9.666   8.113  68.113  0.00  0.00    +0.149 C 
ATOM     24  O   UNL     1      -8.325   8.615  67.615  0.00  0.00    -0.334 OA
ATOM     25  C   UNL     1      -7.609   8.668  68.805  0.00  0.00    +0.188 C 
ATOM     26  C   UNL     1      -6.356   9.437  68.571  0.00  0.00    +0.061 C 
ATOM     27  C   UNL     1      -7.375   7.217  69.206  0.00  0.00    +0.061 C 
ATOM     28  O   UNL     1      -8.429   9.182  69.785  0.00  0.00    -0.330 OA
ENDROOT
BRANCH   1  29
ATOM     29  C   UNL     1     -10.640   8.470  70.274  0.00  0.00    +0.221 C 
ATOM     30  O   UNL     1     -10.597   8.904  71.419  0.00  0.00    -0.290 OA
BRANCH  29  31
ATOM     31  C   UNL     1     -11.132   7.092  70.095  0.00  0.00    +0.275 C 
BRANCH  31  32
ATOM     32  O   UNL     1     -10.555   6.159  70.961  0.00  0.00    -0.440 OA
BRANCH  32  34
ATOM     33  C   UNL     1      -9.728   3.883  71.526  0.00  0.00    +0.121 C 
ATOM     34  C   UNL     1     -10.132   4.891  70.553  0.00  0.00    +0.318 C 
ATOM     35  O   UNL     1     -10.085   4.762  69.309  0.00  0.00    -0.250 OA
ENDBRANCH  32  34
ENDBRANCH  31  32
ENDBRANCH  29  31
ENDBRANCH   1  29
TORSDOF 4
ENDMDL
MODEL 8
REMARK VINA RESULT:      -6.9      2.652      8.076
REMARK  Name = 
REMARK  4 active torsions:
REMARK  status: ('A' for Active; 'I' for Inactive)
REMARK    1  A    between atoms: C_2  and  O_4
REMARK    2  A    between atoms: O_4  and  C_5
REMARK    3  A    between atoms: C_5  and  C_6
REMARK    4  A    between atoms: C_6  and  C_8
REMARK                            x       y       z     vdW  Elec       q    Type
REMARK                         _______ _______ _______ _____ _____    ______ ____
ROOT
ATOM      1  C   UNL     1      -5.967  19.383  67.813  0.00  0.00    +0.174 C 
ATOM      2  C   UNL     1      -6.937  18.430  68.214  0.00  0.00    +0.034 C 
ATOM      3  C   UNL     1      -6.753  17.336  67.045  0.00  0.00    +0.008 C 
ATOM      4  C   UNL     1      -7.525  16.227  68.064  0.00  0.00    +0.036 C 
ATOM      5  C   UNL     1      -8.868  16.358  67.221  0.00  0.00    +0.168 C 
ATOM      6  C   UNL     1      -9.222  17.937  67.113  0.00  0.00    +0.182 C 
ATOM      7  O   UNL     1     -10.449  17.799  68.006  0.00  0.00    -0.220 OA
ATOM      8  F   UNL     1      -8.591  16.123  65.879  0.00  0.00    -0.237 F 
ATOM      9  C   UNL     1      -9.865  15.450  67.624  0.00  0.00    +0.066 C 
ATOM     10  C   UNL     1      -9.197  14.100  67.452  0.00  0.00    -0.003 C 
ATOM     11  C   UNL     1      -9.915  13.045  67.857  0.00  0.00    +0.036 C 
ATOM     12  C   UNL     1     -11.355  13.123  67.580  0.00  0.00    +0.195 C 
ATOM     13  C   UNL     1     -11.731  14.255  66.765  0.00  0.00    +0.038 C 
ATOM     14  O   UNL     1     -12.074  12.167  67.908  0.00  0.00    -0.287 OA
ATOM     15  C   UNL     1      -7.830  13.964  68.323  0.00  0.00    +0.180 C 
ATOM     16  F   UNL     1      -7.404  12.706  67.607  0.00  0.00    -0.233 F 
ATOM     17  C   UNL     1     -10.442  15.443  68.988  0.00  0.00    +0.011 C 
ATOM     18  C   UNL     1     -10.940  15.309  66.582  0.00  0.00    -0.017 C 
ATOM     19  C   UNL     1      -7.001  14.923  67.255  0.00  0.00    +0.042 C 
ATOM     20  C   UNL     1      -5.274  17.040  67.613  0.00  0.00    +0.033 C 
ATOM     21  C   UNL     1      -6.420  17.799  69.517  0.00  0.00    +0.003 C 
ATOM     22  C   UNL     1      -8.322  18.513  68.368  0.00  0.00    +0.038 C 
ATOM     23  C   UNL     1      -4.689  18.536  67.225  0.00  0.00    +0.149 C 
ATOM     24  O   UNL     1      -5.264  18.488  65.823  0.00  0.00    -0.334 OA
ATOM     25  C   UNL     1      -5.628  19.818  65.645  0.00  0.00    +0.188 C 
ATOM     26  C   UNL     1      -6.500  19.914  64.442  0.00  0.00    +0.061 C 
ATOM     27  C   UNL     1      -4.318  20.585  65.520  0.00  0.00    +0.061 C 
ATOM     28  O   UNL     1      -6.199  20.273  66.812  0.00  0.00    -0.330 OA
ENDROOT
BRANCH   1  29
ATOM     29  C   UNL     1      -5.304  20.029  68.997  0.00  0.00    +0.221 C 
ATOM     30  O   UNL     1      -6.017  20.863  69.541  0.00  0.00    -0.290 OA
BRANCH  29  31
ATOM     31  C   UNL     1      -3.850  20.142  69.215  0.00  0.00    +0.275 C 
BRANCH  31  32
ATOM     32  O   UNL     1      -3.401  19.567  70.406  0.00  0.00    -0.440 OA
BRANCH  32  34
ATOM     33  C   UNL     1      -1.938  21.185  71.600  0.00  0.00    +0.121 C 
ATOM     34  C   UNL     1      -3.101  20.308  71.553  0.00  0.00    +0.318 C 
ATOM     35  O   UNL     1      -3.882  20.081  72.505  0.00  0.00    -0.250 OA
ENDBRANCH  32  34
ENDBRANCH  31  32
ENDBRANCH  29  31
ENDBRANCH   1  29
TORSDOF 4
ENDMDL
MODEL 9
REMARK VINA RESULT:      -6.9      6.105     10.268
REMARK  Name = 
REMARK  4 active torsions:
REMARK  status: ('A' for Active; 'I' for Inactive)
REMARK    1  A    between atoms: C_2  and  O_4
REMARK    2  A    between atoms: O_4  and  C_5
REMARK    3  A    between atoms: C_5  and  C_6
REMARK    4  A    between atoms: C_6  and  C_8
REMARK                            x       y       z     vdW  Elec       q    Type
REMARK                         _______ _______ _______ _____ _____    ______ ____
ROOT
ATOM      1  C   UNL     1      -9.121   9.808  65.988  0.00  0.00    +0.174 C 
ATOM      2  C   UNL     1      -9.836   9.143  67.016  0.00  0.00    +0.034 C 
ATOM      3  C   UNL     1      -8.649   8.924  68.085  0.00  0.00    +0.008 C 
ATOM      4  C   UNL     1      -9.848   8.695  69.256  0.00  0.00    +0.036 C 
ATOM      5  C   UNL     1      -9.608   7.123  69.224  0.00  0.00    +0.168 C 
ATOM      6  C   UNL     1      -9.706   6.648  67.676  0.00  0.00    +0.182 C 
ATOM      7  O   UNL     1     -11.004   5.887  67.915  0.00  0.00    -0.220 OA
ATOM      8  F   UNL     1      -8.257   6.862  69.428  0.00  0.00    -0.237 F 
ATOM      9  C   UNL     1     -10.336   6.430  70.209  0.00  0.00    +0.066 C 
ATOM     10  C   UNL     1      -9.866   7.067  71.502  0.00  0.00    -0.003 C 
ATOM     11  C   UNL     1     -10.482   6.641  72.612  0.00  0.00    +0.036 C 
ATOM     12  C   UNL     1     -10.797   5.207  72.644  0.00  0.00    +0.195 C 
ATOM     13  C   UNL     1     -10.238   4.463  71.539  0.00  0.00    +0.038 C 
ATOM     14  O   UNL     1     -11.346   4.743  73.654  0.00  0.00    -0.287 OA
ATOM     15  C   UNL     1     -10.123   8.673  71.538  0.00  0.00    +0.180 C 
ATOM     16  F   UNL     1      -9.251   8.865  72.754  0.00  0.00    -0.233 F 
ATOM     17  C   UNL     1     -11.816   6.441  70.270  0.00  0.00    +0.011 C 
ATOM     18  C   UNL     1      -9.797   5.043  70.426  0.00  0.00    -0.017 C 
ATOM     19  C   UNL     1      -8.851   8.944  70.511  0.00  0.00    +0.042 C 
ATOM     20  C   UNL     1      -8.579  10.523  68.269  0.00  0.00    +0.033 C 
ATOM     21  C   UNL     1     -10.806  10.174  67.614  0.00  0.00    +0.003 C 
ATOM     22  C   UNL     1     -10.526   7.928  67.041  0.00  0.00    +0.038 C 
ATOM     23  C   UNL     1      -8.047  10.803  66.729  0.00  0.00    +0.149 C 
ATOM     24  O   UNL     1      -6.984   9.725  66.812  0.00  0.00    -0.334 OA
ATOM     25  C   UNL     1      -7.012   9.232  65.513  0.00  0.00    +0.188 C 
ATOM     26  C   UNL     1      -6.254   7.951  65.477  0.00  0.00    +0.061 C 
ATOM     27  C   UNL     1      -6.410  10.329  64.646  0.00  0.00    +0.061 C 
ATOM     28  O   UNL     1      -8.326   9.138  65.112  0.00  0.00    -0.330 OA
ENDROOT
BRANCH   1  29
ATOM     29  C   UNL     1      -9.972  10.839  65.300  0.00  0.00    +0.221 C 
ATOM     30  O   UNL     1     -10.514  10.407  64.291  0.00  0.00    -0.290 OA
BRANCH  29  31
ATOM     31  C   UNL     1      -9.804  12.300  65.402  0.00  0.00    +0.275 C 
BRANCH  31  32
ATOM     32  O   UNL     1     -10.878  13.038  64.898  0.00  0.00    -0.440 OA
BRANCH  32  34
ATOM     33  C   UNL     1     -12.143  13.852  66.878  0.00  0.00    +0.121 C 
ATOM     34  C   UNL     1     -12.089  13.196  65.577  0.00  0.00    +0.318 C 
ATOM     35  O   UNL     1     -13.059  12.670  64.985  0.00  0.00    -0.250 OA
ENDBRANCH  32  34
ENDBRANCH  31  32
ENDBRANCH  29  31
ENDBRANCH   1  29
TORSDOF 4
ENDMDL
