MODEL 1
REMARK VINA RESULT:      -8.4      0.000      0.000
REMARK  Name = 
REMARK  3 active torsions:
REMARK  status: ('A' for Active; 'I' for Inactive)
REMARK    1  A    between atoms: C_6  and  C_7
REMARK    2  A    between atoms: C_7  and  C_8
REMARK    3  A    between atoms: C_8  and  N_9
REMARK                            x       y       z     vdW  Elec       q    Type
REMARK                         _______ _______ _______ _____ _____    ______ ____
ROOT
ATOM      1  N   UNL     1      -8.802  16.731  67.052  0.00  0.00    -0.269 NA
ATOM      2  C   UNL     1      -8.516  15.535  67.814  0.00  0.00    +0.094 C 
ATOM      3  C   UNL     1      -8.990  15.785  69.242  0.00  0.00    +0.110 C 
ATOM      4  N   UNL     1     -10.450  15.751  69.177  0.00  0.00    -0.290 N 
ATOM      5  C   UNL     1     -11.108  14.496  69.408  0.00  0.00    +0.140 A 
ATOM      6  C   UNL     1     -12.246  14.368  70.195  0.00  0.00    +0.040 A 
ATOM      7  C   UNL     1     -12.365  13.059  70.652  0.00  0.00    +0.050 A 
ATOM      8  C   UNL     1     -13.150  12.779  71.764  0.00  0.00    +0.008 A 
ATOM      9  C   UNL     1     -13.861  13.769  72.432  0.00  0.00    +0.001 A 
ATOM     10  C   UNL     1     -13.971  14.979  71.760  0.00  0.00    +0.000 A 
ATOM     11  S   UNL     1     -11.692  12.207  69.322  0.00  0.00    +0.014 S 
ATOM     12  C   UNL     1     -12.989  15.337  70.860  0.00  0.00    +0.003 A 
ATOM     13  N   UNL     1     -11.079  13.531  68.454  0.00  0.00    -0.194 NA
ATOM     14  C   UNL     1     -11.022  16.556  68.102  0.00  0.00    +0.110 C 
ATOM     15  C   UNL     1      -9.955  17.448  67.532  0.00  0.00    +0.094 C 
ENDROOT
BRANCH   1  16
ATOM     16  C   UNL     1      -7.601  17.552  67.058  0.00  0.00    +0.077 C 
BRANCH  16  17
ATOM     17  C   UNL     1      -7.888  19.001  66.781  0.00  0.00    +0.045 C 
BRANCH  17  24
ATOM     18  O   UNL     1      -3.756  20.079  72.447  0.00  0.00    -0.273 OA
ATOM     19  C   UNL     1      -4.609  20.394  71.570  0.00  0.00    +0.250 C 
ATOM     20  N   UNL     1      -4.512  21.411  70.567  0.00  0.00    -0.179 NA
ATOM     21  C   UNL     1      -5.291  21.000  69.451  0.00  0.00    +0.071 A 
ATOM     22  C   UNL     1      -6.215  20.070  69.910  0.00  0.00    +0.002 A 
ATOM     23  C   UNL     1      -7.197  19.592  69.059  0.00  0.00    -0.006 A 
ATOM     24  C   UNL     1      -7.135  19.898  67.705  0.00  0.00    -0.010 A 
ATOM     25  C   UNL     1      -6.093  20.658  67.200  0.00  0.00    +0.055 A 
ATOM     26 CL   UNL     1      -5.504  20.471  65.558  0.00  0.00    -0.083 Cl
ATOM     27  C   UNL     1      -5.245  21.298  68.095  0.00  0.00    +0.027 A 
ATOM     28  C   UNL     1      -5.962  19.791  71.359  0.00  0.00    +0.115 C 
ENDBRANCH  17  24
ENDBRANCH  16  17
ENDBRANCH   1  16
TORSDOF 3
ENDMDL
MODEL 2
REMARK VINA RESULT:      -7.7      6.064      8.958
REMARK  Name = 
REMARK  3 active torsions:
REMARK  status: ('A' for Active; 'I' for Inactive)
REMARK    1  A    between atoms: C_6  and  C_7
REMARK    2  A    between atoms: C_7  and  C_8
REMARK    3  A    between atoms: C_8  and  N_9
REMARK                            x       y       z     vdW  Elec       q    Type
REMARK                         _______ _______ _______ _____ _____    ______ ____
ROOT
ATOM      1  N   UNL     1     -11.043  10.243  70.290  0.00  0.00    -0.269 NA
ATOM      2  C   UNL     1     -11.712   9.707  71.456  0.00  0.00    +0.094 C 
ATOM      3  C   UNL     1     -12.217   8.315  71.088  0.00  0.00    +0.110 C 
ATOM      4  N   UNL     1     -11.021   7.476  71.023  0.00  0.00    -0.290 N 
ATOM      5  C   UNL     1     -10.617   6.780  72.212  0.00  0.00    +0.140 A 
ATOM      6  C   UNL     1     -10.197   5.456  72.212  0.00  0.00    +0.040 A 
ATOM      7  C   UNL     1     -10.356   4.904  73.479  0.00  0.00    +0.050 A 
ATOM      8  C   UNL     1     -10.410   3.524  73.636  0.00  0.00    +0.008 A 
ATOM      9  C   UNL     1     -10.276   2.655  72.560  0.00  0.00    +0.001 A 
ATOM     10  C   UNL     1      -9.801   3.228  71.388  0.00  0.00    +0.000 A 
ATOM     11  S   UNL     1     -10.058   6.286  74.455  0.00  0.00    +0.014 S 
ATOM     12  C   UNL     1     -10.034   4.568  71.154  0.00  0.00    +0.003 A 
ATOM     13  N   UNL     1     -10.038   7.463  73.232  0.00  0.00    -0.194 NA
ATOM     14  C   UNL     1      -9.927   8.049  70.244  0.00  0.00    +0.110 C 
ATOM     15  C   UNL     1     -10.440   9.227  69.466  0.00  0.00    +0.094 C 
ENDROOT
BRANCH   1  16
ATOM     16  C   UNL     1     -12.014  11.042  69.557  0.00  0.00    +0.077 C 
BRANCH  16  17
ATOM     17  C   UNL     1     -11.391  12.228  68.877  0.00  0.00    +0.045 C 
BRANCH  17  24
ATOM     18  O   UNL     1     -12.441  15.924  74.841  0.00  0.00    -0.273 OA
ATOM     19  C   UNL     1     -12.556  15.675  73.607  0.00  0.00    +0.250 C 
ATOM     20  N   UNL     1     -12.098  16.460  72.501  0.00  0.00    -0.179 NA
ATOM     21  C   UNL     1     -11.814  15.574  71.426  0.00  0.00    +0.071 A 
ATOM     22  C   UNL     1     -12.526  14.403  71.653  0.00  0.00    +0.002 A 
ATOM     23  C   UNL     1     -12.543  13.405  70.693  0.00  0.00    -0.006 A 
ATOM     24  C   UNL     1     -11.694  13.498  69.598  0.00  0.00    -0.010 A 
ATOM     25  C   UNL     1     -10.823  14.567  69.469  0.00  0.00    +0.055 A 
ATOM     26 CL   UNL     1      -9.282  14.428  68.640  0.00  0.00    -0.083 Cl
ATOM     27  C   UNL     1     -10.973  15.652  70.322  0.00  0.00    +0.027 A 
ATOM     28  C   UNL     1     -13.221  14.493  72.976  0.00  0.00    +0.115 C 
ENDBRANCH  17  24
ENDBRANCH  16  17
ENDBRANCH   1  16
TORSDOF 3
ENDMDL
MODEL 3
REMARK VINA RESULT:      -7.7      4.924      9.604
REMARK  Name = 
REMARK  3 active torsions:
REMARK  status: ('A' for Active; 'I' for Inactive)
REMARK    1  A    between atoms: C_6  and  C_7
REMARK    2  A    between atoms: C_7  and  C_8
REMARK    3  A    between atoms: C_8  and  N_9
REMARK                            x       y       z     vdW  Elec       q    Type
REMARK                         _______ _______ _______ _____ _____    ______ ____
ROOT
ATOM      1  N   UNL     1     -11.122  13.613  66.535  0.00  0.00    -0.269 NA
ATOM      2  C   UNL     1     -11.688  14.837  67.060  0.00  0.00    +0.094 C 
ATOM      3  C   UNL     1     -10.695  15.396  68.074  0.00  0.00    +0.110 C 
ATOM      4  N   UNL     1      -9.578  15.905  67.279  0.00  0.00    -0.290 N 
ATOM      5  C   UNL     1      -9.609  17.282  66.873  0.00  0.00    +0.140 A 
ATOM      6  C   UNL     1      -8.501  18.118  66.935  0.00  0.00    +0.040 A 
ATOM      7  C   UNL     1      -8.907  19.447  66.977  0.00  0.00    +0.050 A 
ATOM      8  C   UNL     1      -8.042  20.426  67.456  0.00  0.00    +0.008 A 
ATOM      9  C   UNL     1      -6.751  20.126  67.872  0.00  0.00    +0.001 A 
ATOM     10  C   UNL     1      -6.286  18.868  67.513  0.00  0.00    +0.000 A 
ATOM     11  S   UNL     1     -10.328  19.365  66.017  0.00  0.00    +0.014 S 
ATOM     12  C   UNL     1      -7.194  17.846  67.328  0.00  0.00    +0.003 A 
ATOM     13  N   UNL     1     -10.446  17.677  65.881  0.00  0.00    -0.194 NA
ATOM     14  C   UNL     1      -9.089  14.976  66.264  0.00  0.00    +0.110 C 
ATOM     15  C   UNL     1      -9.682  13.618  66.514  0.00  0.00    +0.094 C 
ENDROOT
BRANCH   1  16
ATOM     16  C   UNL     1     -11.658  12.511  67.319  0.00  0.00    +0.077 C 
BRANCH  16  17
ATOM     17  C   UNL     1     -10.747  11.317  67.337  0.00  0.00    +0.045 C 
BRANCH  17  24
ATOM     18  O   UNL     1     -14.445   8.785  72.836  0.00  0.00    -0.273 OA
ATOM     19  C   UNL     1     -13.411   9.195  72.238  0.00  0.00    +0.250 C 
ATOM     20  N   UNL     1     -12.209   8.471  71.953  0.00  0.00    -0.179 NA
ATOM     21  C   UNL     1     -11.647   9.009  70.764  0.00  0.00    +0.071 A 
ATOM     22  C   UNL     1     -12.157  10.292  70.607  0.00  0.00    +0.002 A 
ATOM     23  C   UNL     1     -11.679  11.109  69.596  0.00  0.00    -0.006 A 
ATOM     24  C   UNL     1     -10.838  10.575  68.628  0.00  0.00    -0.010 A 
ATOM     25  C   UNL     1     -10.489   9.235  68.657  0.00  0.00    +0.055 A 
ATOM     26 CL   UNL     1     -10.121   8.328  67.201  0.00  0.00    -0.083 Cl
ATOM     27  C   UNL     1     -10.802   8.492  69.789  0.00  0.00    +0.027 A 
ATOM     28  C   UNL     1     -13.164  10.561  71.682  0.00  0.00    +0.115 C 
ENDBRANCH  17  24
ENDBRANCH  16  17
ENDBRANCH   1  16
TORSDOF 3
ENDMDL
MODEL 4
REMARK VINA RESULT:      -7.7      6.840      9.892
REMARK  Name = 
REMARK  3 active torsions:
REMARK  status: ('A' for Active; 'I' for Inactive)
REMARK    1  A    between atoms: C_6  and  C_7
REMARK    2  A    between atoms: C_7  and  C_8
REMARK    3  A    between atoms: C_8  and  N_9
REMARK                            x       y       z     vdW  Elec       q    Type
REMARK                         _______ _______ _______ _____ _____    ______ ____
ROOT
ATOM      1  N   UNL     1     -11.291   9.911  70.732  0.00  0.00    -0.269 NA
ATOM      2  C   UNL     1     -11.943   9.273  71.855  0.00  0.00    +0.094 C 
ATOM      3  C   UNL     1     -12.378   7.885  71.398  0.00  0.00    +0.110 C 
ATOM      4  N   UNL     1     -11.143   7.109  71.293  0.00  0.00    -0.290 N 
ATOM      5  C   UNL     1     -10.715   6.360  72.441  0.00  0.00    +0.140 A 
ATOM      6  C   UNL     1     -10.232   5.060  72.364  0.00  0.00    +0.040 A 
ATOM      7  C   UNL     1     -10.375   4.424  73.593  0.00  0.00    +0.050 A 
ATOM      8  C   UNL     1     -10.364   3.035  73.664  0.00  0.00    +0.008 A 
ATOM      9  C   UNL     1     -10.181   2.242  72.538  0.00  0.00    +0.001 A 
ATOM     10  C   UNL     1      -9.725   2.909  71.408  0.00  0.00    +0.000 A 
ATOM     11  S   UNL     1     -10.151   5.754  74.655  0.00  0.00    +0.014 S 
ATOM     12  C   UNL     1     -10.020   4.247  71.255  0.00  0.00    +0.003 A 
ATOM     13  N   UNL     1     -10.177   7.005  73.507  0.00  0.00    -0.194 NA
ATOM     14  C   UNL     1     -10.071   7.779  70.563  0.00  0.00    +0.110 C 
ATOM     15  C   UNL     1     -10.634   8.978  69.853  0.00  0.00    +0.094 C 
ENDROOT
BRANCH   1  16
ATOM     16  C   UNL     1     -12.293  10.708  70.039  0.00  0.00    +0.077 C 
BRANCH  16  17
ATOM     17  C   UNL     1     -12.165  12.177  70.329  0.00  0.00    +0.045 C 
BRANCH  17  24
ATOM     18  O   UNL     1     -12.676  13.831  63.449  0.00  0.00    -0.273 OA
ATOM     19  C   UNL     1     -12.091  13.712  64.562  0.00  0.00    +0.250 C 
ATOM     20  N   UNL     1     -11.518  14.742  65.375  0.00  0.00    -0.179 NA
ATOM     21  C   UNL     1     -11.596  14.322  66.730  0.00  0.00    +0.071 A 
ATOM     22  C   UNL     1     -11.719  12.938  66.730  0.00  0.00    +0.002 A 
ATOM     23  C   UNL     1     -11.684  12.239  67.925  0.00  0.00    -0.006 A 
ATOM     24  C   UNL     1     -11.721  12.938  69.125  0.00  0.00    -0.010 A 
ATOM     25  C   UNL     1     -11.811  14.320  69.135  0.00  0.00    +0.055 A 
ATOM     26 CL   UNL     1     -12.597  15.201  70.433  0.00  0.00    -0.083 Cl
ATOM     27  C   UNL     1     -11.630  15.005  67.940  0.00  0.00    +0.027 A 
ATOM     28  C   UNL     1     -11.825  12.449  65.319  0.00  0.00    +0.115 C 
ENDBRANCH  17  24
ENDBRANCH  16  17
ENDBRANCH   1  16
TORSDOF 3
ENDMDL
MODEL 5
REMARK VINA RESULT:      -7.7      4.743      9.628
REMARK  Name = 
REMARK  3 active torsions:
REMARK  status: ('A' for Active; 'I' for Inactive)
REMARK    1  A    between atoms: C_6  and  C_7
REMARK    2  A    between atoms: C_7  and  C_8
REMARK    3  A    between atoms: C_8  and  N_9
REMARK                            x       y       z     vdW  Elec       q    Type
REMARK                         _______ _______ _______ _____ _____    ______ ____
ROOT
ATOM      1  N   UNL     1     -11.611  14.184  67.545  0.00  0.00    -0.269 NA
ATOM      2  C   UNL     1     -11.287  15.138  68.584  0.00  0.00    +0.094 C 
ATOM      3  C   UNL     1      -9.779  15.362  68.537  0.00  0.00    +0.110 C 
ATOM      4  N   UNL     1      -9.542  16.150  67.329  0.00  0.00    -0.290 N 
ATOM      5  C   UNL     1      -9.534  17.581  67.445  0.00  0.00    +0.140 A 
ATOM      6  C   UNL     1      -8.592  18.389  66.821  0.00  0.00    +0.040 A 
ATOM      7  C   UNL     1      -8.500  19.611  67.479  0.00  0.00    +0.050 A 
ATOM      8  C   UNL     1      -7.369  20.404  67.321  0.00  0.00    +0.008 A 
ATOM      9  C   UNL     1      -6.319  20.032  66.489  0.00  0.00    +0.001 A 
ATOM     10  C   UNL     1      -6.593  18.985  65.619  0.00  0.00    +0.000 A 
ATOM     11  S   UNL     1     -10.124  19.801  68.003  0.00  0.00    +0.014 S 
ATOM     12  C   UNL     1      -7.544  18.051  65.971  0.00  0.00    +0.003 A 
ATOM     13  N   UNL     1     -10.701  18.254  67.611  0.00  0.00    -0.194 NA
ATOM     14  C   UNL     1     -10.207  15.635  66.135  0.00  0.00    +0.110 C 
ATOM     15  C   UNL     1     -10.719  14.250  66.416  0.00  0.00    +0.094 C 
ENDROOT
BRANCH   1  16
ATOM     16  C   UNL     1     -11.631  12.863  68.155  0.00  0.00    +0.077 C 
BRANCH  16  17
ATOM     17  C   UNL     1     -11.781  12.918  69.649  0.00  0.00    +0.045 C 
BRANCH  17  24
ATOM     18  O   UNL     1      -9.758   6.931  72.874  0.00  0.00    -0.273 OA
ATOM     19  C   UNL     1     -10.496   7.650  72.143  0.00  0.00    +0.250 C 
ATOM     20  N   UNL     1     -11.873   7.990  72.340  0.00  0.00    -0.179 NA
ATOM     21  C   UNL     1     -12.098   9.262  71.748  0.00  0.00    +0.071 A 
ATOM     22  C   UNL     1     -11.095   9.466  70.808  0.00  0.00    +0.002 A 
ATOM     23  C   UNL     1     -11.138  10.575  69.980  0.00  0.00    -0.006 A 
ATOM     24  C   UNL     1     -12.073  11.573  70.223  0.00  0.00    -0.010 A 
ATOM     25  C   UNL     1     -12.947  11.476  71.293  0.00  0.00    +0.055 A 
ATOM     26 CL   UNL     1     -13.581  12.888  72.120  0.00  0.00    -0.083 Cl
ATOM     27  C   UNL     1     -13.029  10.269  71.975  0.00  0.00    +0.027 A 
ATOM     28  C   UNL     1     -10.126   8.327  70.861  0.00  0.00    +0.115 C 
ENDBRANCH  17  24
ENDBRANCH  16  17
ENDBRANCH   1  16
TORSDOF 3
ENDMDL
MODEL 6
REMARK VINA RESULT:      -7.7      4.259      9.301
REMARK  Name = 
REMARK  3 active torsions:
REMARK  status: ('A' for Active; 'I' for Inactive)
REMARK    1  A    between atoms: C_6  and  C_7
REMARK    2  A    between atoms: C_7  and  C_8
REMARK    3  A    between atoms: C_8  and  N_9
REMARK                            x       y       z     vdW  Elec       q    Type
REMARK                         _______ _______ _______ _____ _____    ______ ____
ROOT
ATOM      1  N   UNL     1     -10.427  15.211  67.898  0.00  0.00    -0.269 NA
ATOM      2  C   UNL     1     -10.531  16.458  67.170  0.00  0.00    +0.094 C 
ATOM      3  C   UNL     1     -10.197  17.581  68.146  0.00  0.00    +0.110 C 
ATOM      4  N   UNL     1      -8.754  17.486  68.364  0.00  0.00    -0.290 N 
ATOM      5  C   UNL     1      -7.890  18.258  67.516  0.00  0.00    +0.140 A 
ATOM      6  C   UNL     1      -6.797  18.971  67.992  0.00  0.00    +0.040 A 
ATOM      7  C   UNL     1      -6.464  19.986  67.102  0.00  0.00    +0.050 A 
ATOM      8  C   UNL     1      -5.707  21.070  67.532  0.00  0.00    +0.008 A 
ATOM      9  C   UNL     1      -5.232  21.165  68.835  0.00  0.00    +0.001 A 
ATOM     10  C   UNL     1      -5.309  19.998  69.583  0.00  0.00    +0.000 A 
ATOM     11  S   UNL     1      -6.890  19.242  65.614  0.00  0.00    +0.014 S 
ATOM     12  C   UNL     1      -6.286  19.072  69.282  0.00  0.00    +0.003 A 
ATOM     13  N   UNL     1      -7.685  17.875  66.231  0.00  0.00    -0.194 NA
ATOM     14  C   UNL     1      -8.279  16.138  68.663  0.00  0.00    +0.110 C 
ATOM     15  C   UNL     1      -9.457  15.255  68.961  0.00  0.00    +0.094 C 
ENDROOT
BRANCH   1  16
ATOM     16  C   UNL     1     -11.758  14.873  68.380  0.00  0.00    +0.077 C 
BRANCH  16  17
ATOM     17  C   UNL     1     -11.843  14.855  69.879  0.00  0.00    +0.045 C 
BRANCH  17  24
ATOM     18  O   UNL     1     -11.341   8.163  72.182  0.00  0.00    -0.273 OA
ATOM     19  C   UNL     1     -11.916   9.158  71.656  0.00  0.00    +0.250 C 
ATOM     20  N   UNL     1     -13.077   9.855  72.120  0.00  0.00    -0.179 NA
ATOM     21  C   UNL     1     -12.978  11.205  71.686  0.00  0.00    +0.071 A 
ATOM     22  C   UNL     1     -12.105  11.231  70.605  0.00  0.00    +0.002 A 
ATOM     23  C   UNL     1     -11.919  12.404  69.893  0.00  0.00    -0.006 A 
ATOM     24  C   UNL     1     -12.454  13.590  70.380  0.00  0.00    -0.010 A 
ATOM     25  C   UNL     1     -13.153  13.611  71.576  0.00  0.00    +0.055 A 
ATOM     26 CL   UNL     1     -13.192  15.023  72.618  0.00  0.00    -0.083 Cl
ATOM     27  C   UNL     1     -13.508  12.400  72.158  0.00  0.00    +0.027 A 
ATOM     28  C   UNL     1     -11.540   9.862  70.390  0.00  0.00    +0.115 C 
ENDBRANCH  17  24
ENDBRANCH  16  17
ENDBRANCH   1  16
TORSDOF 3
ENDMDL
MODEL 7
REMARK VINA RESULT:      -7.6      2.804      3.573
REMARK  Name = 
REMARK  3 active torsions:
REMARK  status: ('A' for Active; 'I' for Inactive)
REMARK    1  A    between atoms: C_6  and  C_7
REMARK    2  A    between atoms: C_7  and  C_8
REMARK    3  A    between atoms: C_8  and  N_9
REMARK                            x       y       z     vdW  Elec       q    Type
REMARK                         _______ _______ _______ _____ _____    ______ ____
ROOT
ATOM      1  N   UNL     1     -10.291  17.250  67.371  0.00  0.00    -0.269 NA
ATOM      2  C   UNL     1      -9.471  16.582  66.383  0.00  0.00    +0.094 C 
ATOM      3  C   UNL     1      -8.905  15.327  67.040  0.00  0.00    +0.110 C 
ATOM      4  N   UNL     1     -10.036  14.408  67.155  0.00  0.00    -0.290 N 
ATOM      5  C   UNL     1     -10.267  13.482  66.082  0.00  0.00    +0.140 A 
ATOM      6  C   UNL     1     -10.587  12.146  66.288  0.00  0.00    +0.040 A 
ATOM      7  C   UNL     1     -10.262  11.398  65.161  0.00  0.00    +0.050 A 
ATOM      8  C   UNL     1     -10.091  10.022  65.262  0.00  0.00    +0.008 A 
ATOM      9  C   UNL     1     -10.268   9.345  66.463  0.00  0.00    +0.001 A 
ATOM     10  C   UNL     1     -10.897  10.069  67.467  0.00  0.00    +0.000 A 
ATOM     11  S   UNL     1     -10.561  12.555  63.928  0.00  0.00    +0.014 S 
ATOM     12  C   UNL     1     -10.788  11.444  67.472  0.00  0.00    +0.003 A 
ATOM     13  N   UNL     1     -10.790  13.921  64.910  0.00  0.00    -0.194 NA
ATOM     14  C   UNL     1     -11.242  15.007  67.720  0.00  0.00    +0.110 C 
ATOM     15  C   UNL     1     -10.897  16.344  68.312  0.00  0.00    +0.094 C 
ENDROOT
BRANCH   1  16
ATOM     16  C   UNL     1      -9.460  18.250  68.026  0.00  0.00    +0.077 C 
BRANCH  16  17
ATOM     17  C   UNL     1      -8.420  18.828  67.108  0.00  0.00    +0.045 C 
BRANCH  17  24
ATOM     18  O   UNL     1      -3.807  20.059  72.356  0.00  0.00    -0.273 OA
ATOM     19  C   UNL     1      -4.653  20.374  71.472  0.00  0.00    +0.250 C 
ATOM     20  N   UNL     1      -4.457  21.189  70.312  0.00  0.00    -0.179 NA
ATOM     21  C   UNL     1      -5.363  20.748  69.310  0.00  0.00    +0.071 A 
ATOM     22  C   UNL     1      -6.394  20.072  69.951  0.00  0.00    +0.002 A 
ATOM     23  C   UNL     1      -7.494  19.642  69.228  0.00  0.00    -0.006 A 
ATOM     24  C   UNL     1      -7.472  19.716  67.842  0.00  0.00    -0.010 A 
ATOM     25  C   UNL     1      -6.355  20.198  67.178  0.00  0.00    +0.055 A 
ATOM     26 CL   UNL     1      -5.912  19.658  65.568  0.00  0.00    -0.083 Cl
ATOM     27  C   UNL     1      -5.358  20.817  67.922  0.00  0.00    +0.027 A 
ATOM     28  C   UNL     1      -6.096  19.986  71.415  0.00  0.00    +0.115 C 
ENDBRANCH  17  24
ENDBRANCH  16  17
ENDBRANCH   1  16
TORSDOF 3
ENDMDL
MODEL 8
REMARK VINA RESULT:      -7.3      2.697      3.561
REMARK  Name = 
REMARK  3 active torsions:
REMARK  status: ('A' for Active; 'I' for Inactive)
REMARK    1  A    between atoms: C_6  and  C_7
REMARK    2  A    between atoms: C_7  and  C_8
REMARK    3  A    between atoms: C_8  and  N_9
REMARK                            x       y       z     vdW  Elec       q    Type
REMARK                         _______ _______ _______ _____ _____    ______ ____
ROOT
ATOM      1  N   UNL     1     -10.449  14.635  66.206  0.00  0.00    -0.269 NA
ATOM      2  C   UNL     1      -9.446  13.705  66.682  0.00  0.00    +0.094 C 
ATOM      3  C   UNL     1      -9.618  13.589  68.193  0.00  0.00    +0.110 C 
ATOM      4  N   UNL     1     -10.847  12.820  68.384  0.00  0.00    -0.290 N 
ATOM      5  C   UNL     1     -10.740  11.393  68.503  0.00  0.00    +0.140 A 
ATOM      6  C   UNL     1     -11.445  10.655  69.445  0.00  0.00    +0.040 A 
ATOM      7  C   UNL     1     -10.805   9.442  69.677  0.00  0.00    +0.050 A 
ATOM      8  C   UNL     1     -11.060   8.731  70.845  0.00  0.00    +0.008 A 
ATOM      9  C   UNL     1     -11.973   9.177  71.793  0.00  0.00    +0.001 A 
ATOM     10  C   UNL     1     -12.812  10.202  71.375  0.00  0.00    +0.000 A 
ATOM     11  S   UNL     1     -10.150   9.137  68.119  0.00  0.00    +0.014 S 
ATOM     12  C   UNL     1     -12.377  11.066  70.392  0.00  0.00    +0.003 A 
ATOM     13  N   UNL     1     -10.483  10.640  67.404  0.00  0.00    -0.194 NA
ATOM     14  C   UNL     1     -11.978  13.288  67.587  0.00  0.00    +0.110 C 
ATOM     15  C   UNL     1     -11.647  14.632  67.004  0.00  0.00    +0.094 C 
ENDROOT
BRANCH   1  16
ATOM     16  C   UNL     1      -9.831  15.951  66.144  0.00  0.00    +0.077 C 
BRANCH  16  17
ATOM     17  C   UNL     1     -10.597  16.987  66.916  0.00  0.00    +0.045 C 
BRANCH  17  24
ATOM     18  O   UNL     1      -4.120  19.246  68.725  0.00  0.00    -0.273 OA
ATOM     19  C   UNL     1      -5.373  19.134  68.843  0.00  0.00    +0.250 C 
ATOM     20  N   UNL     1      -6.362  20.167  68.783  0.00  0.00    -0.179 NA
ATOM     21  C   UNL     1      -7.565  19.592  68.291  0.00  0.00    +0.071 A 
ATOM     22  C   UNL     1      -7.495  18.224  68.522  0.00  0.00    +0.002 A 
ATOM     23  C   UNL     1      -8.593  17.421  68.260  0.00  0.00    -0.006 A 
ATOM     24  C   UNL     1      -9.686  17.956  67.591  0.00  0.00    -0.010 A 
ATOM     25  C   UNL     1      -9.678  19.275  67.168  0.00  0.00    +0.055 A 
ATOM     26 CL   UNL     1     -10.562  19.813  65.750  0.00  0.00    -0.083 Cl
ATOM     27  C   UNL     1      -8.668  20.112  67.624  0.00  0.00    +0.027 A 
ATOM     28  C   UNL     1      -6.155  17.884  69.094  0.00  0.00    +0.115 C 
ENDBRANCH  17  24
ENDBRANCH  16  17
ENDBRANCH   1  16
TORSDOF 3
ENDMDL
MODEL 9
REMARK VINA RESULT:      -7.2      4.671      9.305
REMARK  Name = 
REMARK  3 active torsions:
REMARK  status: ('A' for Active; 'I' for Inactive)
REMARK    1  A    between atoms: C_6  and  C_7
REMARK    2  A    between atoms: C_7  and  C_8
REMARK    3  A    between atoms: C_8  and  N_9
REMARK                            x       y       z     vdW  Elec       q    Type
REMARK                         _______ _______ _______ _____ _____    ______ ____
ROOT
ATOM      1  N   UNL     1     -10.129  14.399  66.596  0.00  0.00    -0.269 NA
ATOM      2  C   UNL     1     -10.485  15.785  66.380  0.00  0.00    +0.094 C 
ATOM      3  C   UNL     1     -10.228  16.527  67.688  0.00  0.00    +0.110 C 
ATOM      4  N   UNL     1      -8.773  16.610  67.804  0.00  0.00    -0.290 N 
ATOM      5  C   UNL     1      -8.117  17.770  67.269  0.00  0.00    +0.140 A 
ATOM      6  C   UNL     1      -7.100  18.443  67.933  0.00  0.00    +0.040 A 
ATOM      7  C   UNL     1      -7.008  19.750  67.467  0.00  0.00    +0.050 A 
ATOM      8  C   UNL     1      -6.381  20.723  68.237  0.00  0.00    +0.008 A 
ATOM      9  C   UNL     1      -5.802  20.428  69.466  0.00  0.00    +0.001 A 
ATOM     10  C   UNL     1      -5.634  19.076  69.735  0.00  0.00    +0.000 A 
ATOM     11  S   UNL     1      -7.460  19.523  65.826  0.00  0.00    +0.014 S 
ATOM     12  C   UNL     1      -6.488  18.165  69.151  0.00  0.00    +0.003 A 
ATOM     13  N   UNL     1      -7.982  17.911  65.926  0.00  0.00    -0.194 NA
ATOM     14  C   UNL     1      -8.077  15.348  67.570  0.00  0.00    +0.110 C 
ATOM     15  C   UNL     1      -9.078  14.228  67.565  0.00  0.00    +0.094 C 
ENDROOT
BRANCH   1  16
ATOM     16  C   UNL     1     -11.344  13.688  66.967  0.00  0.00    +0.077 C 
BRANCH  16  17
ATOM     17  C   UNL     1     -11.261  12.215  66.682  0.00  0.00    +0.045 C 
BRANCH  17  24
ATOM     18  O   UNL     1     -13.700   9.041  72.540  0.00  0.00    -0.273 OA
ATOM     19  C   UNL     1     -12.832   9.602  71.813  0.00  0.00    +0.250 C 
ATOM     20  N   UNL     1     -11.612   9.049  71.307  0.00  0.00    -0.179 NA
ATOM     21  C   UNL     1     -11.316   9.695  70.077  0.00  0.00    +0.071 A 
ATOM     22  C   UNL     1     -11.997  10.907  70.070  0.00  0.00    +0.002 A 
ATOM     23  C   UNL     1     -11.790  11.812  69.043  0.00  0.00    -0.006 A 
ATOM     24  C   UNL     1     -11.054  11.424  67.930  0.00  0.00    -0.010 A 
ATOM     25  C   UNL     1     -10.544  10.140  67.833  0.00  0.00    +0.055 A 
ATOM     26 CL   UNL     1     -10.306   9.338  66.290  0.00  0.00    -0.083 Cl
ATOM     27  C   UNL     1     -10.581   9.325  68.957  0.00  0.00    +0.027 A 
ATOM     28  C   UNL     1     -12.845  11.007  71.299  0.00  0.00    +0.115 C 
ENDBRANCH  17  24
ENDBRANCH  16  17
ENDBRANCH   1  16
TORSDOF 3
ENDMDL
