MODEL 1
REMARK VINA RESULT:      -8.3      0.000      0.000
REMARK  Name = 
REMARK  3 active torsions:
REMARK  status: ('A' for Active; 'I' for Inactive)
REMARK    1  A    between atoms: C_6  and  N_7
REMARK    2  A    between atoms: C_9  and  C_10
REMARK    3  A    between atoms: C_10  and  C_11
REMARK                            x       y       z     vdW  Elec       q    Type
REMARK                         _______ _______ _______ _____ _____    ______ ____
ROOT
ATOM      1  N   UNL     1     -10.918  13.648  68.509  0.00  0.00    -0.219 N 
ATOM      2  C   UNL     1     -11.521  14.693  69.076  0.00  0.00    +0.276 A 
ATOM      3  O   UNL     1     -11.451  15.857  68.576  0.00  0.00    -0.266 OA
ATOM      4  C   UNL     1     -12.271  14.468  70.217  0.00  0.00    +0.059 A 
ATOM      5  C   UNL     1     -12.302  13.180  70.737  0.00  0.00    +0.020 A 
ATOM      6  C   UNL     1     -13.077  12.935  71.858  0.00  0.00    +0.001 A 
ATOM      7  C   UNL     1     -13.515  14.039  72.577  0.00  0.00    +0.000 A 
ATOM      8  C   UNL     1     -13.725  15.254  71.947  0.00  0.00    +0.000 A 
ATOM      9  C   UNL     1     -11.981  12.126  69.899  0.00  0.00    +0.083 A 
ATOM     10  C   UNL     1     -13.049  15.474  70.769  0.00  0.00    +0.005 A 
ATOM     11  N   UNL     1     -11.232  12.395  68.824  0.00  0.00    -0.171 NA
ENDROOT
BRANCH   1  16
ATOM     12  C   UNL     1     -12.018  13.285  63.570  0.00  0.00    +0.090 C 
ATOM     13  N   UNL     1     -11.711  12.985  64.306  0.00  0.00    -0.271 NA
ATOM     14  C   UNL     1     -12.291  12.517  65.523  0.00  0.00    +0.074 C 
ATOM     15  C   UNL     1     -12.198  13.538  66.594  0.00  0.00    +0.042 C 
ATOM     16  C   UNL     1     -10.620  13.772  66.969  0.00  0.00    +0.110 C 
ATOM     17  C   UNL     1     -10.248  12.179  66.851  0.00  0.00    +0.026 C 
ATOM     18  C   UNL     1      -9.772  11.969  65.443  0.00  0.00    +0.019 C 
ATOM     19  C   UNL     1     -10.279  12.979  64.465  0.00  0.00    +0.072 C 
ENDBRANCH   1  16
BRANCH   9  20
ATOM     20  C   UNL     1     -12.602  10.785  70.027  0.00  0.00    +0.074 C 
BRANCH  20  21
ATOM     21  C   UNL     1     -11.772   9.993  70.987  0.00  0.00    -0.016 A 
ATOM     22  C   UNL     1     -12.378   9.261  71.998  0.00  0.00    -0.003 A 
ATOM     23  C   UNL     1     -11.896   7.998  72.319  0.00  0.00    +0.011 A 
ATOM     24  C   UNL     1     -10.789   7.454  71.687  0.00  0.00    +0.058 A 
ATOM     25 CL   UNL     1     -10.668   5.733  71.367  0.00  0.00    -0.082 Cl
ATOM     26  C   UNL     1      -9.963   8.376  71.056  0.00  0.00    +0.011 A 
ATOM     27  C   UNL     1     -10.502   9.578  70.615  0.00  0.00    -0.003 A 
ENDBRANCH  20  21
ENDBRANCH   9  20
TORSDOF 3
ENDMDL
MODEL 2
REMARK VINA RESULT:      -8.1      3.812      6.336
REMARK  Name = 
REMARK  3 active torsions:
REMARK  status: ('A' for Active; 'I' for Inactive)
REMARK    1  A    between atoms: C_6  and  N_7
REMARK    2  A    between atoms: C_9  and  C_10
REMARK    3  A    between atoms: C_10  and  C_11
REMARK                            x       y       z     vdW  Elec       q    Type
REMARK                         _______ _______ _______ _____ _____    ______ ____
ROOT
ATOM      1  N   UNL     1     -10.756  16.518  66.777  0.00  0.00    -0.219 N 
ATOM      2  C   UNL     1     -10.643  15.680  65.748  0.00  0.00    +0.276 A 
ATOM      3  O   UNL     1     -10.255  16.073  64.605  0.00  0.00    -0.266 OA
ATOM      4  C   UNL     1     -10.921  14.342  65.967  0.00  0.00    +0.059 A 
ATOM      5  C   UNL     1     -11.361  13.963  67.230  0.00  0.00    +0.020 A 
ATOM      6  C   UNL     1     -11.610  12.622  67.471  0.00  0.00    +0.001 A 
ATOM      7  C   UNL     1     -11.716  11.790  66.365  0.00  0.00    +0.000 A 
ATOM      8  C   UNL     1     -11.034  12.080  65.195  0.00  0.00    +0.000 A 
ATOM      9  C   UNL     1     -11.085  14.798  68.298  0.00  0.00    +0.083 A 
ATOM     10  C   UNL     1     -10.677  13.392  64.987  0.00  0.00    +0.005 A 
ATOM     11  N   UNL     1     -10.847  16.087  68.032  0.00  0.00    -0.171 NA
ENDROOT
BRANCH   1  16
ATOM     12  C   UNL     1      -6.659  19.367  67.688  0.00  0.00    +0.090 C 
ATOM     13  N   UNL     1      -7.436  19.070  67.871  0.00  0.00    -0.271 NA
ATOM     14  C   UNL     1      -7.953  17.833  68.358  0.00  0.00    +0.074 C 
ATOM     15  C   UNL     1      -8.562  17.035  67.266  0.00  0.00    +0.042 C 
ATOM     16  C   UNL     1      -9.884  17.826  66.706  0.00  0.00    +0.110 C 
ATOM     17  C   UNL     1     -10.363  18.301  68.201  0.00  0.00    +0.026 C 
ATOM     18  C   UNL     1      -9.768  19.663  68.411  0.00  0.00    +0.019 C 
ATOM     19  C   UNL     1      -8.551  19.938  67.589  0.00  0.00    +0.072 C 
ENDBRANCH   1  16
BRANCH   9  20
ATOM     20  C   UNL     1     -10.834  14.287  69.669  0.00  0.00    +0.074 C 
BRANCH  20  21
ATOM     21  C   UNL     1     -11.904  14.835  70.558  0.00  0.00    -0.016 A 
ATOM     22  C   UNL     1     -12.799  13.980  71.185  0.00  0.00    -0.003 A 
ATOM     23  C   UNL     1     -13.178  14.223  72.500  0.00  0.00    +0.011 A 
ATOM     24  C   UNL     1     -12.724  15.328  73.201  0.00  0.00    +0.058 A 
ATOM     25 CL   UNL     1     -12.408  15.256  74.926  0.00  0.00    -0.082 Cl
ATOM     26  C   UNL     1     -12.242  16.365  72.412  0.00  0.00    +0.011 A 
ATOM     27  C   UNL     1     -11.734  16.077  71.150  0.00  0.00    -0.003 A 
ENDBRANCH  20  21
ENDBRANCH   9  20
TORSDOF 3
ENDMDL
MODEL 3
REMARK VINA RESULT:      -7.7      3.495      5.895
REMARK  Name = 
REMARK  3 active torsions:
REMARK  status: ('A' for Active; 'I' for Inactive)
REMARK    1  A    between atoms: C_6  and  N_7
REMARK    2  A    between atoms: C_9  and  C_10
REMARK    3  A    between atoms: C_10  and  C_11
REMARK                            x       y       z     vdW  Elec       q    Type
REMARK                         _______ _______ _______ _____ _____    ______ ____
ROOT
ATOM      1  N   UNL     1     -11.078  15.155  66.482  0.00  0.00    -0.219 N 
ATOM      2  C   UNL     1     -10.795  14.119  65.693  0.00  0.00    +0.276 A 
ATOM      3  O   UNL     1     -10.470  14.274  64.477  0.00  0.00    -0.266 OA
ATOM      4  C   UNL     1     -10.826  12.852  66.251  0.00  0.00    +0.059 A 
ATOM      5  C   UNL     1     -11.207  12.732  67.581  0.00  0.00    +0.020 A 
ATOM      6  C   UNL     1     -11.208  11.474  68.161  0.00  0.00    +0.001 A 
ATOM      7  C   UNL     1     -11.141  10.384  67.303  0.00  0.00    +0.000 A 
ATOM      8  C   UNL     1     -10.506  10.487  66.077  0.00  0.00    +0.000 A 
ATOM      9  C   UNL     1     -11.106  13.847  68.396  0.00  0.00    +0.083 A 
ATOM     10  C   UNL     1     -10.395  11.746  65.534  0.00  0.00    +0.005 A 
ATOM     11  N   UNL     1     -11.106  15.047  67.807  0.00  0.00    -0.171 NA
ENDROOT
BRANCH   1  16
ATOM     12  C   UNL     1      -7.420  18.656  66.162  0.00  0.00    +0.090 C 
ATOM     13  N   UNL     1      -8.094  18.291  66.533  0.00  0.00    -0.271 NA
ATOM     14  C   UNL     1      -8.307  17.096  67.283  0.00  0.00    +0.074 C 
ATOM     15  C   UNL     1      -8.951  16.046  66.456  0.00  0.00    +0.042 C 
ATOM     16  C   UNL     1     -10.461  16.539  66.055  0.00  0.00    +0.110 C 
ATOM     17  C   UNL     1     -10.752  17.193  67.531  0.00  0.00    +0.026 C 
ATOM     18  C   UNL     1     -10.367  18.640  67.424  0.00  0.00    +0.019 C 
ATOM     19  C   UNL     1      -9.370  18.934  66.350  0.00  0.00    +0.072 C 
ENDBRANCH   1  16
BRANCH   9  20
ATOM     20  C   UNL     1     -10.786  13.754  69.842  0.00  0.00    +0.074 C 
BRANCH  20  21
ATOM     21  C   UNL     1     -11.818  14.541  70.584  0.00  0.00    -0.016 A 
ATOM     22  C   UNL     1     -12.846  13.892  71.253  0.00  0.00    -0.003 A 
ATOM     23  C   UNL     1     -13.255  14.350  72.500  0.00  0.00    +0.011 A 
ATOM     24  C   UNL     1     -12.695  15.474  73.087  0.00  0.00    +0.058 A 
ATOM     25 CL   UNL     1     -12.477  15.591  74.824  0.00  0.00    -0.082 Cl
ATOM     26  C   UNL     1     -12.044  16.331  72.208  0.00  0.00    +0.011 A 
ATOM     27  C   UNL     1     -11.517  15.820  71.028  0.00  0.00    -0.003 A 
ENDBRANCH  20  21
ENDBRANCH   9  20
TORSDOF 3
ENDMDL
MODEL 4
REMARK VINA RESULT:      -7.7      2.930      5.677
REMARK  Name = 
REMARK  3 active torsions:
REMARK  status: ('A' for Active; 'I' for Inactive)
REMARK    1  A    between atoms: C_6  and  N_7
REMARK    2  A    between atoms: C_9  and  C_10
REMARK    3  A    between atoms: C_10  and  C_11
REMARK                            x       y       z     vdW  Elec       q    Type
REMARK                         _______ _______ _______ _____ _____    ______ ____
ROOT
ATOM      1  N   UNL     1     -11.842  10.962  69.241  0.00  0.00    -0.219 N 
ATOM      2  C   UNL     1     -12.399  11.183  70.431  0.00  0.00    +0.276 A 
ATOM      3  O   UNL     1     -12.703  10.231  71.214  0.00  0.00    -0.266 OA
ATOM      4  C   UNL     1     -12.606  12.496  70.817  0.00  0.00    +0.059 A 
ATOM      5  C   UNL     1     -12.275  13.502  69.918  0.00  0.00    +0.020 A 
ATOM      6  C   UNL     1     -12.445  14.821  70.306  0.00  0.00    +0.001 A 
ATOM      7  C   UNL     1     -13.226  15.053  71.430  0.00  0.00    +0.000 A 
ATOM      8  C   UNL     1     -13.311  14.108  72.438  0.00  0.00    +0.000 A 
ATOM      9  C   UNL     1     -11.377  13.209  68.907  0.00  0.00    +0.083 A 
ATOM     10  C   UNL     1     -13.037  12.803  72.099  0.00  0.00    +0.005 A 
ATOM     11  N   UNL     1     -11.235  11.927  68.556  0.00  0.00    -0.171 NA
ENDROOT
BRANCH   1  16
ATOM     12  C   UNL     1      -7.715   8.024  68.967  0.00  0.00    +0.090 C 
ATOM     13  N   UNL     1      -8.329   8.508  68.629  0.00  0.00    -0.271 NA
ATOM     14  C   UNL     1      -8.595   9.909  68.580  0.00  0.00    +0.074 C 
ATOM     15  C   UNL     1      -9.656  10.291  69.544  0.00  0.00    +0.042 C 
ATOM     16  C   UNL     1     -11.068   9.601  69.080  0.00  0.00    +0.110 C 
ATOM     17  C   UNL     1     -10.798   9.872  67.485  0.00  0.00    +0.026 C 
ATOM     18  C   UNL     1     -10.141   8.629  66.960  0.00  0.00    +0.019 C 
ATOM     19  C   UNL     1      -9.429   7.823  67.999  0.00  0.00    +0.072 C 
ENDBRANCH   1  16
BRANCH   9  20
ATOM     20  C   UNL     1     -10.431  14.214  68.362  0.00  0.00    +0.074 C 
BRANCH  20  21
ATOM     21  C   UNL     1     -10.801  14.456  66.934  0.00  0.00    -0.016 A 
ATOM     22  C   UNL     1      -9.904  14.154  65.918  0.00  0.00    -0.003 A 
ATOM     23  C   UNL     1     -10.364  13.572  64.743  0.00  0.00    +0.011 A 
ATOM     24  C   UNL     1     -11.710  13.319  64.529  0.00  0.00    +0.058 A 
ATOM     25 CL   UNL     1     -12.248  11.916  63.622  0.00  0.00    -0.082 Cl
ATOM     26  C   UNL     1     -12.578  14.048  65.332  0.00  0.00    +0.011 A 
ATOM     27  C   UNL     1     -12.138  14.501  66.570  0.00  0.00    -0.003 A 
ENDBRANCH  20  21
ENDBRANCH   9  20
TORSDOF 3
ENDMDL
MODEL 5
REMARK VINA RESULT:      -7.7      3.140      5.132
REMARK  Name = 
REMARK  3 active torsions:
REMARK  status: ('A' for Active; 'I' for Inactive)
REMARK    1  A    between atoms: C_6  and  N_7
REMARK    2  A    between atoms: C_9  and  C_10
REMARK    3  A    between atoms: C_10  and  C_11
REMARK                            x       y       z     vdW  Elec       q    Type
REMARK                         _______ _______ _______ _____ _____    ______ ____
ROOT
ATOM      1  N   UNL     1     -10.378  15.573  69.932  0.00  0.00    -0.219 N 
ATOM      2  C   UNL     1     -11.387  15.712  70.791  0.00  0.00    +0.276 A 
ATOM      3  O   UNL     1     -11.694  16.840  71.284  0.00  0.00    -0.266 OA
ATOM      4  C   UNL     1     -12.129  14.587  71.107  0.00  0.00    +0.059 A 
ATOM      5  C   UNL     1     -11.742  13.372  70.557  0.00  0.00    +0.020 A 
ATOM      6  C   UNL     1     -12.497  12.245  70.839  0.00  0.00    +0.001 A 
ATOM      7  C   UNL     1     -13.394  12.333  71.895  0.00  0.00    +0.000 A 
ATOM      8  C   UNL     1     -13.963  13.548  72.239  0.00  0.00    +0.000 A 
ATOM      9  C   UNL     1     -10.958  13.387  69.417  0.00  0.00    +0.083 A 
ATOM     10  C   UNL     1     -13.284  14.685  71.870  0.00  0.00    +0.005 A 
ATOM     11  N   UNL     1     -10.241  14.489  69.173  0.00  0.00    -0.171 NA
ENDROOT
BRANCH   1  16
ATOM     12  C   UNL     1     -10.389  18.699  65.937  0.00  0.00    +0.090 C 
ATOM     13  N   UNL     1     -10.082  18.051  66.395  0.00  0.00    -0.271 NA
ATOM     14  C   UNL     1     -10.500  16.710  66.649  0.00  0.00    +0.074 C 
ATOM     15  C   UNL     1     -11.114  16.581  67.993  0.00  0.00    +0.042 C 
ATOM     16  C   UNL     1      -9.968  16.863  69.129  0.00  0.00    +0.110 C 
ATOM     17  C   UNL     1      -8.803  16.055  68.305  0.00  0.00    +0.026 C 
ATOM     18  C   UNL     1      -8.089  17.087  67.481  0.00  0.00    +0.019 C 
ATOM     19  C   UNL     1      -8.902  18.305  67.180  0.00  0.00    +0.072 C 
ENDBRANCH   1  16
BRANCH   9  20
ATOM     20  C   UNL     1     -11.049  12.340  68.370  0.00  0.00    +0.074 C 
BRANCH  20  21
ATOM     21  C   UNL     1     -11.147  13.030  67.048  0.00  0.00    -0.016 A 
ATOM     22  C   UNL     1     -10.197  12.796  66.063  0.00  0.00    -0.003 A 
ATOM     23  C   UNL     1     -10.595  12.673  64.737  0.00  0.00    +0.011 A 
ATOM     24  C   UNL     1     -11.918  12.823  64.352  0.00  0.00    +0.058 A 
ATOM     25 CL   UNL     1     -12.604  11.884  63.038  0.00  0.00    -0.082 Cl
ATOM     26  C   UNL     1     -12.718  13.506  65.259  0.00  0.00    +0.011 A 
ATOM     27  C   UNL     1     -12.377  13.496  66.607  0.00  0.00    -0.003 A 
ENDBRANCH  20  21
ENDBRANCH   9  20
TORSDOF 3
ENDMDL
MODEL 6
REMARK VINA RESULT:      -7.2      3.023      4.497
REMARK  Name = 
REMARK  3 active torsions:
REMARK  status: ('A' for Active; 'I' for Inactive)
REMARK    1  A    between atoms: C_6  and  N_7
REMARK    2  A    between atoms: C_9  and  C_10
REMARK    3  A    between atoms: C_10  and  C_11
REMARK                            x       y       z     vdW  Elec       q    Type
REMARK                         _______ _______ _______ _____ _____    ______ ____
ROOT
ATOM      1  N   UNL     1     -10.677  15.503  69.753  0.00  0.00    -0.219 N 
ATOM      2  C   UNL     1     -11.458  15.417  70.829  0.00  0.00    +0.276 A 
ATOM      3  O   UNL     1     -11.643  16.407  71.601  0.00  0.00    -0.266 OA
ATOM      4  C   UNL     1     -12.106  14.218  71.066  0.00  0.00    +0.059 A 
ATOM      5  C   UNL     1     -11.856  13.158  70.203  0.00  0.00    +0.020 A 
ATOM      6  C   UNL     1     -12.524  11.962  70.410  0.00  0.00    +0.001 A 
ATOM      7  C   UNL     1     -13.151  11.792  71.637  0.00  0.00    +0.000 A 
ATOM      8  C   UNL     1     -13.625  12.883  72.345  0.00  0.00    +0.000 A 
ATOM      9  C   UNL     1     -11.359  13.440  68.943  0.00  0.00    +0.083 A 
ATOM     10  C   UNL     1     -13.051  14.104  72.075  0.00  0.00    +0.005 A 
ATOM     11  N   UNL     1     -10.720  14.603  68.776  0.00  0.00    -0.171 NA
ENDROOT
BRANCH   1  16
ATOM     12  C   UNL     1     -10.419  18.967  66.055  0.00  0.00    +0.090 C 
ATOM     13  N   UNL     1     -10.083  18.383  66.576  0.00  0.00    -0.271 NA
ATOM     14  C   UNL     1     -10.113  16.958  66.646  0.00  0.00    +0.074 C 
ATOM     15  C   UNL     1     -11.045  16.489  67.701  0.00  0.00    +0.042 C 
ATOM     16  C   UNL     1     -10.466  16.947  69.163  0.00  0.00    +0.110 C 
ATOM     17  C   UNL     1      -8.908  16.624  68.765  0.00  0.00    +0.026 C 
ATOM     18  C   UNL     1      -8.336  17.913  68.253  0.00  0.00    +0.019 C 
ATOM     19  C   UNL     1      -9.354  18.870  67.719  0.00  0.00    +0.072 C 
ENDBRANCH   1  16
BRANCH   9  20
ATOM     20  C   UNL     1     -11.690  12.622  67.751  0.00  0.00    +0.074 C 
BRANCH  20  21
ATOM     21  C   UNL     1     -10.582  11.637  67.557  0.00  0.00    -0.016 A 
ATOM     22  C   UNL     1     -10.853  10.276  67.522  0.00  0.00    -0.003 A 
ATOM     23  C   UNL     1     -10.192   9.465  66.607  0.00  0.00    +0.011 A 
ATOM     24  C   UNL     1      -9.228   9.966  65.747  0.00  0.00    +0.058 A 
ATOM     25 CL   UNL     1      -9.030   9.335  64.121  0.00  0.00    -0.082 Cl
ATOM     26  C   UNL     1      -8.670  11.177  66.134  0.00  0.00    +0.011 A 
ATOM     27  C   UNL     1      -9.408  12.039  66.937  0.00  0.00    -0.003 A 
ENDBRANCH  20  21
ENDBRANCH   9  20
TORSDOF 3
ENDMDL
MODEL 7
REMARK VINA RESULT:      -7.2      2.840      6.155
REMARK  Name = 
REMARK  3 active torsions:
REMARK  status: ('A' for Active; 'I' for Inactive)
REMARK    1  A    between atoms: C_6  and  N_7
REMARK    2  A    between atoms: C_9  and  C_10
REMARK    3  A    between atoms: C_10  and  C_11
REMARK                            x       y       z     vdW  Elec       q    Type
REMARK                         _______ _______ _______ _____ _____    ______ ____
ROOT
ATOM      1  N   UNL     1     -12.433  11.178  70.664  0.00  0.00    -0.219 N 
ATOM      2  C   UNL     1     -12.678  12.336  71.274  0.00  0.00    +0.276 A 
ATOM      3  O   UNL     1     -13.159  12.386  72.447  0.00  0.00    -0.266 OA
ATOM      4  C   UNL     1     -12.352  13.503  70.605  0.00  0.00    +0.059 A 
ATOM      5  C   UNL     1     -11.846  13.398  69.315  0.00  0.00    +0.020 A 
ATOM      6  C   UNL     1     -11.483  14.557  68.648  0.00  0.00    +0.001 A 
ATOM      7  C   UNL     1     -11.941  15.758  69.174  0.00  0.00    +0.000 A 
ATOM      8  C   UNL     1     -12.182  15.889  70.531  0.00  0.00    +0.000 A 
ATOM      9  C   UNL     1     -11.281  12.196  68.928  0.00  0.00    +0.083 A 
ATOM     10  C   UNL     1     -12.434  14.736  71.237  0.00  0.00    +0.005 A 
ATOM     11  N   UNL     1     -11.650  11.095  69.592  0.00  0.00    -0.171 NA
ENDROOT
BRANCH   1  16
ATOM     12  C   UNL     1     -10.635   6.590  71.873  0.00  0.00    +0.090 C 
ATOM     13  N   UNL     1     -11.226   7.119  71.561  0.00  0.00    -0.271 NA
ATOM     14  C   UNL     1     -11.362   7.884  70.364  0.00  0.00    +0.074 C 
ATOM     15  C   UNL     1     -11.070   9.318  70.604  0.00  0.00    +0.042 C 
ATOM     16  C   UNL     1     -12.214   9.933  71.602  0.00  0.00    +0.110 C 
ATOM     17  C   UNL     1     -13.434   9.102  70.887  0.00  0.00    +0.026 C 
ATOM     18  C   UNL     1     -13.584   7.832  71.672  0.00  0.00    +0.019 C 
ATOM     19  C   UNL     1     -12.352   7.414  72.409  0.00  0.00    +0.072 C 
ENDBRANCH   1  16
BRANCH   9  20
ATOM     20  C   UNL     1     -10.149  12.115  67.972  0.00  0.00    +0.074 C 
BRANCH  20  21
ATOM     21  C   UNL     1     -10.633  11.390  66.757  0.00  0.00    -0.016 A 
ATOM     22  C   UNL     1     -11.385  12.056  65.799  0.00  0.00    -0.003 A 
ATOM     23  C   UNL     1     -11.158  11.808  64.450  0.00  0.00    +0.011 A 
ATOM     24  C   UNL     1     -10.227  10.874  64.024  0.00  0.00    +0.058 A 
ATOM     25 CL   UNL     1      -9.292  11.112  62.558  0.00  0.00    -0.082 Cl
ATOM     26  C   UNL     1      -9.865   9.930  64.977  0.00  0.00    +0.011 A 
ATOM     27  C   UNL     1      -9.967  10.254  66.325  0.00  0.00    -0.003 A 
ENDBRANCH  20  21
ENDBRANCH   9  20
TORSDOF 3
ENDMDL
MODEL 8
REMARK VINA RESULT:      -7.2      3.962      6.238
REMARK  Name = 
REMARK  3 active torsions:
REMARK  status: ('A' for Active; 'I' for Inactive)
REMARK    1  A    between atoms: C_6  and  N_7
REMARK    2  A    between atoms: C_9  and  C_10
REMARK    3  A    between atoms: C_10  and  C_11
REMARK                            x       y       z     vdW  Elec       q    Type
REMARK                         _______ _______ _______ _____ _____    ______ ____
ROOT
ATOM      1  N   UNL     1     -11.162  12.398  68.887  0.00  0.00    -0.219 N 
ATOM      2  C   UNL     1     -11.979  12.136  69.906  0.00  0.00    +0.276 A 
ATOM      3  O   UNL     1     -12.287  10.948  70.227  0.00  0.00    -0.266 OA
ATOM      4  C   UNL     1     -12.460  13.204  70.643  0.00  0.00    +0.059 A 
ATOM      5  C   UNL     1     -12.111  14.487  70.240  0.00  0.00    +0.020 A 
ATOM      6  C   UNL     1     -12.558  15.563  70.990  0.00  0.00    +0.001 A 
ATOM      7  C   UNL     1     -13.579  15.319  71.899  0.00  0.00    +0.000 A 
ATOM      8  C   UNL     1     -13.723  14.072  72.481  0.00  0.00    +0.000 A 
ATOM      9  C   UNL     1     -10.989  14.643  69.444  0.00  0.00    +0.083 A 
ATOM     10  C   UNL     1     -13.187  12.999  71.806  0.00  0.00    +0.005 A 
ATOM     11  N   UNL     1     -10.582  13.586  68.734  0.00  0.00    -0.171 NA
ENDROOT
BRANCH   1  16
ATOM     12  C   UNL     1      -7.140  10.419  66.511  0.00  0.00    +0.090 C 
ATOM     13  N   UNL     1      -7.964  10.626  66.570  0.00  0.00    -0.271 NA
ATOM     14  C   UNL     1      -8.704  11.844  66.492  0.00  0.00    +0.074 C 
ATOM     15  C   UNL     1      -9.110  12.316  67.838  0.00  0.00    +0.042 C 
ATOM     16  C   UNL     1     -10.171  11.246  68.479  0.00  0.00    +0.110 C 
ATOM     17  C   UNL     1     -10.946  11.001  67.053  0.00  0.00    +0.026 C 
ATOM     18  C   UNL     1     -10.286   9.809  66.424  0.00  0.00    +0.019 C 
ATOM     19  C   UNL     1      -8.885   9.565  66.885  0.00  0.00    +0.072 C 
ENDBRANCH   1  16
BRANCH   9  20
ATOM     20  C   UNL     1     -10.118  15.842  69.516  0.00  0.00    +0.074 C 
BRANCH  20  21
ATOM     21  C   UNL     1      -9.992  16.392  68.131  0.00  0.00    -0.016 A 
ATOM     22  C   UNL     1     -10.773  17.467  67.732  0.00  0.00    -0.003 A 
ATOM     23  C   UNL     1     -10.216  18.470  66.947  0.00  0.00    +0.011 A 
ATOM     24  C   UNL     1      -8.903  18.412  66.507  0.00  0.00    +0.058 A 
ATOM     25 CL   UNL     1      -7.926  19.860  66.337  0.00  0.00    -0.082 Cl
ATOM     26  C   UNL     1      -8.335  17.144  66.524  0.00  0.00    +0.011 A 
ATOM     27  C   UNL     1      -8.817  16.197  67.420  0.00  0.00    -0.003 A 
ENDBRANCH  20  21
ENDBRANCH   9  20
TORSDOF 3
ENDMDL
MODEL 9
REMARK VINA RESULT:      -7.1      2.589      4.372
REMARK  Name = 
REMARK  3 active torsions:
REMARK  status: ('A' for Active; 'I' for Inactive)
REMARK    1  A    between atoms: C_6  and  N_7
REMARK    2  A    between atoms: C_9  and  C_10
REMARK    3  A    between atoms: C_10  and  C_11
REMARK                            x       y       z     vdW  Elec       q    Type
REMARK                         _______ _______ _______ _____ _____    ______ ____
ROOT
ATOM      1  N   UNL     1     -10.883  12.929  68.739  0.00  0.00    -0.219 N 
ATOM      2  C   UNL     1     -11.748  12.855  69.750  0.00  0.00    +0.276 A 
ATOM      3  O   UNL     1     -12.394  13.870  70.153  0.00  0.00    -0.266 OA
ATOM      4  C   UNL     1     -11.960  11.618  70.332  0.00  0.00    +0.059 A 
ATOM      5  C   UNL     1     -11.215  10.540  69.869  0.00  0.00    +0.020 A 
ATOM      6  C   UNL     1     -11.443   9.290  70.421  0.00  0.00    +0.001 A 
ATOM      7  C   UNL     1     -12.160   9.244  71.608  0.00  0.00    +0.000 A 
ATOM      8  C   UNL     1     -13.098  10.219  71.905  0.00  0.00    +0.000 A 
ATOM      9  C   UNL     1     -10.651  10.626  68.608  0.00  0.00    +0.083 A 
ATOM     10  C   UNL     1     -12.956  11.436  71.281  0.00  0.00    +0.005 A 
ATOM     11  N   UNL     1     -10.445  11.847  68.103  0.00  0.00    -0.171 NA
ENDROOT
BRANCH   1  16
ATOM     12  C   UNL     1     -12.248  14.998  64.312  0.00  0.00    +0.090 C 
ATOM     13  N   UNL     1     -11.685  14.650  64.849  0.00  0.00    -0.271 NA
ATOM     14  C   UNL     1     -11.436  13.330  65.330  0.00  0.00    +0.074 C 
ATOM     15  C   UNL     1     -11.954  13.151  66.708  0.00  0.00    +0.042 C 
ATOM     16  C   UNL     1     -11.102  14.113  67.725  0.00  0.00    +0.110 C 
ATOM     17  C   UNL     1      -9.673  13.817  66.976  0.00  0.00    +0.026 C 
ATOM     18  C   UNL     1      -9.502  14.913  65.966  0.00  0.00    +0.019 C 
ATOM     19  C   UNL     1     -10.781  15.547  65.521  0.00  0.00    +0.072 C 
ENDBRANCH   1  16
BRANCH   9  20
ATOM     20  C   UNL     1     -10.473   9.443  67.730  0.00  0.00    +0.074 C 
BRANCH  20  21
ATOM     21  C   UNL     1      -9.537   9.833  66.631  0.00  0.00    -0.016 A 
ATOM     22  C   UNL     1      -8.177   9.579  66.747  0.00  0.00    -0.003 A 
ATOM     23  C   UNL     1      -7.463   9.131  65.643  0.00  0.00    +0.011 A 
ATOM     24  C   UNL     1      -8.059   8.970  64.402  0.00  0.00    +0.058 A 
ATOM     25 CL   UNL     1      -7.572   7.686  63.309  0.00  0.00    -0.082 Cl
ATOM     26  C   UNL     1      -9.248   9.668  64.227  0.00  0.00    +0.011 A 
ATOM     27  C   UNL     1     -10.019   9.981  65.340  0.00  0.00    -0.003 A 
ENDBRANCH  20  21
ENDBRANCH   9  20
TORSDOF 3
ENDMDL
