MODEL 1
REMARK VINA RESULT:      -5.9      0.000      0.000
REMARK  Name = 
REMARK  4 active torsions:
REMARK  status: ('A' for Active; 'I' for Inactive)
REMARK    1  A    between atoms: O_2  and  C_3
REMARK    2  A    between atoms: C_3  and  C_5
REMARK    3  A    between atoms: C_5  and  C_6
REMARK    4  A    between atoms: C_5  and  N_13
REMARK                            x       y       z     vdW  Elec       q    Type
REMARK                         _______ _______ _______ _____ _____    ______ ____
ROOT
ATOM      1  C   UNL     1     -11.119  15.633  67.491  0.00  0.00    +0.182 C 
ENDROOT
BRANCH   1   2
ATOM      2  N   UNL     1     -10.903  15.041  68.966  0.00  0.00    -0.257 NA
ATOM      3  C   UNL     1     -11.723  16.037  69.655  0.00  0.00    +0.100 C 
ATOM      4  C   UNL     1     -12.225  15.564  70.959  0.00  0.00    -0.004 A 
ATOM      5  C   UNL     1     -12.525  14.224  71.089  0.00  0.00    +0.006 A 
ATOM      6  S   UNL     1     -13.245  14.180  72.644  0.00  0.00    -0.091 S 
ATOM      7  C   UNL     1     -12.914  15.799  73.118  0.00  0.00    +0.035 A 
ATOM      8  C   UNL     1     -12.164  13.208  70.075  0.00  0.00    +0.050 C 
ATOM      9  C   UNL     1     -11.972  16.146  72.190  0.00  0.00    +0.004 A 
ATOM     10  C   UNL     1     -11.684  13.847  68.836  0.00  0.00    +0.078 C 
ENDBRANCH   1   2
BRANCH   1  11
ATOM     11  C   UNL     1      -9.677  16.402  67.525  0.00  0.00    +0.014 A 
ATOM     12  C   UNL     1      -9.656  17.739  67.403  0.00  0.00    +0.055 A 
ATOM     13 CL   UNL     1     -10.470  18.205  65.904  0.00  0.00    -0.083 Cl
ATOM     14  C   UNL     1      -8.577  18.442  67.913  0.00  0.00    +0.011 A 
ATOM     15  C   UNL     1      -7.749  17.785  68.814  0.00  0.00    +0.001 A 
ATOM     16  C   UNL     1      -7.662  16.401  68.788  0.00  0.00    -0.000 A 
ATOM     17  C   UNL     1      -8.731  15.692  68.261  0.00  0.00    -0.002 A 
ENDBRANCH   1  11
BRANCH   1  18
ATOM     18  C   UNL     1     -10.577  14.265  66.765  0.00  0.00    +0.336 C 
ATOM     19  O   UNL     1      -9.750  14.710  65.901  0.00  0.00    -0.248 OA
BRANCH  18  21
ATOM     20  C   UNL     1     -12.429  13.971  65.217  0.00  0.00    +0.256 C 
ATOM     21  O   UNL     1     -11.602  13.539  66.151  0.00  0.00    -0.443 OA
ENDBRANCH  18  21
ENDBRANCH   1  18
TORSDOF 4
ENDMDL
MODEL 2
REMARK VINA RESULT:      -5.6      2.559      3.364
REMARK  Name = 
REMARK  4 active torsions:
REMARK  status: ('A' for Active; 'I' for Inactive)
REMARK    1  A    between atoms: O_2  and  C_3
REMARK    2  A    between atoms: C_3  and  C_5
REMARK    3  A    between atoms: C_5  and  C_6
REMARK    4  A    between atoms: C_5  and  N_13
REMARK                            x       y       z     vdW  Elec       q    Type
REMARK                         _______ _______ _______ _____ _____    ______ ____
ROOT
ATOM      1  C   UNL     1     -11.485  12.122  66.841  0.00  0.00    +0.182 C 
ENDROOT
BRANCH   1   2
ATOM      2  N   UNL     1     -11.095  12.597  68.323  0.00  0.00    -0.257 NA
ATOM      3  C   UNL     1     -11.985  13.757  68.355  0.00  0.00    +0.100 C 
ATOM      4  C   UNL     1     -12.331  14.176  69.726  0.00  0.00    -0.004 A 
ATOM      5  C   UNL     1     -12.450  13.198  70.692  0.00  0.00    +0.006 A 
ATOM      6  S   UNL     1     -13.049  14.097  72.023  0.00  0.00    -0.091 S 
ATOM      7  C   UNL     1     -12.894  15.671  71.352  0.00  0.00    +0.035 A 
ATOM      8  C   UNL     1     -12.034  11.793  70.480  0.00  0.00    +0.050 C 
ATOM      9  C   UNL     1     -12.069  15.413  70.291  0.00  0.00    +0.004 A 
ATOM     10  C   UNL     1     -11.725  11.542  69.060  0.00  0.00    +0.078 C 
ENDBRANCH   1   2
BRANCH   1  11
ATOM     11  C   UNL     1     -10.507  13.242  66.162  0.00  0.00    +0.014 A 
ATOM     12  C   UNL     1     -11.045  14.144  65.324  0.00  0.00    +0.055 A 
ATOM     13 CL   UNL     1     -11.879  13.303  64.011  0.00  0.00    -0.083 Cl
ATOM     14  C   UNL     1     -10.397  15.355  65.139  0.00  0.00    +0.011 A 
ATOM     15  C   UNL     1      -9.431  15.716  66.069  0.00  0.00    +0.001 A 
ATOM     16  C   UNL     1      -8.767  14.736  66.790  0.00  0.00    -0.000 A 
ATOM     17  C   UNL     1      -9.401  13.514  66.963  0.00  0.00    -0.002 A 
ENDBRANCH   1  11
BRANCH   1  18
ATOM     18  C   UNL     1     -10.388  10.903  66.845  0.00  0.00    +0.336 C 
ATOM     19  O   UNL     1     -10.048  10.822  65.618  0.00  0.00    -0.248 OA
BRANCH  18  21
ATOM     20  C   UNL     1     -10.526   8.478  66.977  0.00  0.00    +0.256 C 
ATOM     21  O   UNL     1     -10.929   9.694  67.297  0.00  0.00    -0.443 OA
ENDBRANCH  18  21
ENDBRANCH   1  18
TORSDOF 4
ENDMDL
MODEL 3
REMARK VINA RESULT:      -5.5      2.953      4.956
REMARK  Name = 
REMARK  4 active torsions:
REMARK  status: ('A' for Active; 'I' for Inactive)
REMARK    1  A    between atoms: O_2  and  C_3
REMARK    2  A    between atoms: C_3  and  C_5
REMARK    3  A    between atoms: C_5  and  C_6
REMARK    4  A    between atoms: C_5  and  N_13
REMARK                            x       y       z     vdW  Elec       q    Type
REMARK                         _______ _______ _______ _____ _____    ______ ____
ROOT
ATOM      1  C   UNL     1     -10.653  14.277  68.748  0.00  0.00    +0.182 C 
ENDROOT
BRANCH   1   2
ATOM      2  N   UNL     1     -11.444  12.885  68.662  0.00  0.00    -0.257 NA
ATOM      3  C   UNL     1     -10.264  12.049  68.440  0.00  0.00    +0.100 C 
ATOM      4  C   UNL     1     -10.477  10.641  68.827  0.00  0.00    -0.004 A 
ATOM      5  C   UNL     1     -11.304  10.384  69.901  0.00  0.00    +0.006 A 
ATOM      6  S   UNL     1     -11.089   8.695  70.105  0.00  0.00    -0.091 S 
ATOM      7  C   UNL     1     -10.159   8.389  68.693  0.00  0.00    +0.035 A 
ATOM      8  C   UNL     1     -12.155  11.415  70.536  0.00  0.00    +0.050 C 
ATOM      9  C   UNL     1     -10.379   9.542  67.991  0.00  0.00    +0.004 A 
ATOM     10  C   UNL     1     -11.814  12.761  70.041  0.00  0.00    +0.078 C 
ENDBRANCH   1   2
BRANCH   1  11
ATOM     11  C   UNL     1     -11.175  14.733  67.268  0.00  0.00    +0.014 A 
ATOM     12  C   UNL     1     -10.275  15.185  66.378  0.00  0.00    +0.055 A 
ATOM     13 CL   UNL     1      -9.396  16.552  67.074  0.00  0.00    -0.083 Cl
ATOM     14  C   UNL     1     -10.569  15.098  65.027  0.00  0.00    +0.011 A 
ATOM     15  C   UNL     1     -11.602  14.253  64.646  0.00  0.00    +0.001 A 
ATOM     16  C   UNL     1     -12.615  13.953  65.545  0.00  0.00    -0.000 A 
ATOM     17  C   UNL     1     -12.334  14.055  66.899  0.00  0.00    -0.002 A 
ENDBRANCH   1  11
BRANCH   1  18
ATOM     18  C   UNL     1     -11.852  15.009  69.596  0.00  0.00    +0.336 C 
ATOM     19  O   UNL     1     -12.012  16.109  68.970  0.00  0.00    -0.248 OA
BRANCH  18  21
ATOM     20  C   UNL     1     -12.126  16.028  71.787  0.00  0.00    +0.256 C 
ATOM     21  O   UNL     1     -11.505  15.238  70.932  0.00  0.00    -0.443 OA
ENDBRANCH  18  21
ENDBRANCH   1  18
TORSDOF 4
ENDMDL
MODEL 4
REMARK VINA RESULT:      -5.3      2.012      4.047
REMARK  Name = 
REMARK  4 active torsions:
REMARK  status: ('A' for Active; 'I' for Inactive)
REMARK    1  A    between atoms: O_2  and  C_3
REMARK    2  A    between atoms: C_3  and  C_5
REMARK    3  A    between atoms: C_5  and  C_6
REMARK    4  A    between atoms: C_5  and  N_13
REMARK                            x       y       z     vdW  Elec       q    Type
REMARK                         _______ _______ _______ _____ _____    ______ ____
ROOT
ATOM      1  C   UNL     1     -10.258  15.211  68.146  0.00  0.00    +0.182 C 
ENDROOT
BRANCH   1   2
ATOM      2  N   UNL     1     -11.697  14.738  68.675  0.00  0.00    -0.257 NA
ATOM      3  C   UNL     1     -11.215  13.574  69.419  0.00  0.00    +0.100 C 
ATOM      4  C   UNL     1     -12.140  13.154  70.488  0.00  0.00    -0.004 A 
ATOM      5  C   UNL     1     -12.860  14.132  71.143  0.00  0.00    +0.006 A 
ATOM      6  S   UNL     1     -13.608  13.231  72.395  0.00  0.00    -0.091 S 
ATOM      7  C   UNL     1     -13.151  11.657  71.877  0.00  0.00    +0.035 A 
ATOM      8  C   UNL     1     -12.922  15.538  70.685  0.00  0.00    +0.050 C 
ATOM      9  C   UNL     1     -12.755  11.918  70.594  0.00  0.00    +0.004 A 
ATOM     10  C   UNL     1     -11.937  15.791  69.618  0.00  0.00    +0.078 C 
ENDBRANCH   1   2
BRANCH   1  11
ATOM     11  C   UNL     1     -10.292  14.135  66.916  0.00  0.00    +0.014 A 
ATOM     12  C   UNL     1      -9.431  13.103  66.940  0.00  0.00    +0.055 A 
ATOM     13 CL   UNL     1      -7.778  13.719  67.060  0.00  0.00    -0.083 Cl
ATOM     14  C   UNL     1      -9.748  11.952  66.236  0.00  0.00    +0.011 A 
ATOM     15  C   UNL     1     -11.066  11.786  65.833  0.00  0.00    +0.001 A 
ATOM     16  C   UNL     1     -11.875  12.897  65.646  0.00  0.00    -0.000 A 
ATOM     17  C   UNL     1     -11.553  14.058  66.332  0.00  0.00    -0.002 A 
ENDBRANCH   1  11
BRANCH   1  18
ATOM     18  C   UNL     1     -10.883  16.471  67.301  0.00  0.00    +0.336 C 
ATOM     19  O   UNL     1     -10.062  16.598  66.333  0.00  0.00    -0.248 OA
BRANCH  18  21
ATOM     20  C   UNL     1     -10.240  18.742  67.885  0.00  0.00    +0.256 C 
ATOM     21  O   UNL     1     -10.954  17.645  68.057  0.00  0.00    -0.443 OA
ENDBRANCH  18  21
ENDBRANCH   1  18
TORSDOF 4
ENDMDL
MODEL 5
REMARK VINA RESULT:      -5.3      3.577      5.570
REMARK  Name = 
REMARK  4 active torsions:
REMARK  status: ('A' for Active; 'I' for Inactive)
REMARK    1  A    between atoms: O_2  and  C_3
REMARK    2  A    between atoms: C_3  and  C_5
REMARK    3  A    between atoms: C_5  and  C_6
REMARK    4  A    between atoms: C_5  and  N_13
REMARK                            x       y       z     vdW  Elec       q    Type
REMARK                         _______ _______ _______ _____ _____    ______ ____
ROOT
ATOM      1  C   UNL     1     -10.207  12.772  65.820  0.00  0.00    +0.182 C 
ENDROOT
BRANCH   1   2
ATOM      2  N   UNL     1     -10.476  14.166  66.566  0.00  0.00    -0.257 NA
ATOM      3  C   UNL     1      -9.132  14.305  67.126  0.00  0.00    +0.100 C 
ATOM      4  C   UNL     1      -8.786  15.703  67.447  0.00  0.00    -0.004 A 
ATOM      5  C   UNL     1      -9.295  16.698  66.637  0.00  0.00    +0.006 A 
ATOM      6  S   UNL     1      -8.486  18.083  67.241  0.00  0.00    -0.091 S 
ATOM      7  C   UNL     1      -7.742  17.360  68.611  0.00  0.00    +0.035 A 
ATOM      8  C   UNL     1     -10.336  16.458  65.613  0.00  0.00    +0.050 C 
ATOM      9  C   UNL     1      -8.451  16.193  68.697  0.00  0.00    +0.004 A 
ATOM     10  C   UNL     1     -10.559  15.014  65.413  0.00  0.00    +0.078 C 
ENDBRANCH   1   2
BRANCH   1  11
ATOM     11  C   UNL     1     -10.967  11.929  66.996  0.00  0.00    +0.014 A 
ATOM     12  C   UNL     1     -10.444  10.756  67.390  0.00  0.00    +0.055 A 
ATOM     13 CL   UNL     1     -10.281   9.686  65.992  0.00  0.00    -0.083 Cl
ATOM     14  C   UNL     1     -10.738  10.284  68.659  0.00  0.00    +0.011 A 
ATOM     15  C   UNL     1     -11.266  11.185  69.574  0.00  0.00    +0.001 A 
ATOM     16  C   UNL     1     -11.960  12.298  69.125  0.00  0.00    -0.000 A 
ATOM     17  C   UNL     1     -11.684  12.765  67.849  0.00  0.00    -0.002 A 
ENDBRANCH   1  11
BRANCH   1  18
ATOM     18  C   UNL     1     -11.514  12.938  64.843  0.00  0.00    +0.336 C 
ATOM     19  O   UNL     1     -12.398  12.226  65.427  0.00  0.00    -0.248 OA
BRANCH  18  21
ATOM     20  C   UNL     1     -10.261  11.742  63.137  0.00  0.00    +0.256 C 
ATOM     21  O   UNL     1     -11.277  12.478  63.543  0.00  0.00    -0.443 OA
ENDBRANCH  18  21
ENDBRANCH   1  18
TORSDOF 4
ENDMDL
MODEL 6
REMARK VINA RESULT:      -5.2      3.792      4.956
REMARK  Name = 
REMARK  4 active torsions:
REMARK  status: ('A' for Active; 'I' for Inactive)
REMARK    1  A    between atoms: O_2  and  C_3
REMARK    2  A    between atoms: C_3  and  C_5
REMARK    3  A    between atoms: C_5  and  C_6
REMARK    4  A    between atoms: C_5  and  N_13
REMARK                            x       y       z     vdW  Elec       q    Type
REMARK                         _______ _______ _______ _____ _____    ______ ____
ROOT
ATOM      1  C   UNL     1      -7.604  16.664  66.418  0.00  0.00    +0.182 C 
ENDROOT
BRANCH   1   2
ATOM      2  N   UNL     1      -8.717  15.727  67.095  0.00  0.00    -0.257 NA
ATOM      3  C   UNL     1      -9.556  15.596  65.903  0.00  0.00    +0.100 C 
ATOM      4  C   UNL     1     -10.408  14.392  65.932  0.00  0.00    -0.004 A 
ATOM      5  C   UNL     1      -9.910  13.261  66.545  0.00  0.00    +0.006 A 
ATOM      6  S   UNL     1     -11.113  12.102  66.161  0.00  0.00    -0.091 S 
ATOM      7  C   UNL     1     -12.266  13.163  65.456  0.00  0.00    +0.035 A 
ATOM      8  C   UNL     1      -8.676  13.256  67.361  0.00  0.00    +0.050 C 
ATOM      9  C   UNL     1     -11.791  14.372  65.883  0.00  0.00    +0.004 A 
ATOM     10  C   UNL     1      -7.943  14.528  67.219  0.00  0.00    +0.078 C 
ENDBRANCH   1   2
BRANCH   1  11
ATOM     11  C   UNL     1      -8.238  18.008  67.098  0.00  0.00    +0.014 A 
ATOM     12  C   UNL     1      -8.514  19.060  66.308  0.00  0.00    +0.055 A 
ATOM     13 CL   UNL     1      -7.050  19.544  65.442  0.00  0.00    -0.083 Cl
ATOM     14  C   UNL     1      -9.471  19.973  66.720  0.00  0.00    +0.011 A 
ATOM     15  C   UNL     1     -10.333  19.587  67.738  0.00  0.00    +0.001 A 
ATOM     16  C   UNL     1      -9.937  18.617  68.647  0.00  0.00    -0.000 A 
ATOM     17  C   UNL     1      -8.965  17.712  68.248  0.00  0.00    -0.002 A 
ENDBRANCH   1  11
BRANCH   1  18
ATOM     18  C   UNL     1      -6.506  16.366  67.600  0.00  0.00    +0.336 C 
ATOM     19  O   UNL     1      -6.205  17.536  68.010  0.00  0.00    -0.248 OA
BRANCH  18  21
ATOM     20  C   UNL     1      -4.297  15.373  67.817  0.00  0.00    +0.256 C 
ATOM     21  O   UNL     1      -5.374  15.694  67.126  0.00  0.00    -0.443 OA
ENDBRANCH  18  21
ENDBRANCH   1  18
TORSDOF 4
ENDMDL
MODEL 7
REMARK VINA RESULT:      -5.1      2.999      5.233
REMARK  Name = 
REMARK  4 active torsions:
REMARK  status: ('A' for Active; 'I' for Inactive)
REMARK    1  A    between atoms: O_2  and  C_3
REMARK    2  A    between atoms: C_3  and  C_5
REMARK    3  A    between atoms: C_5  and  C_6
REMARK    4  A    between atoms: C_5  and  N_13
REMARK                            x       y       z     vdW  Elec       q    Type
REMARK                         _______ _______ _______ _____ _____    ______ ____
ROOT
ATOM      1  C   UNL     1     -10.334  13.867  67.124  0.00  0.00    +0.182 C 
ENDROOT
BRANCH   1   2
ATOM      2  N   UNL     1      -9.695  15.289  67.502  0.00  0.00    -0.257 NA
ATOM      3  C   UNL     1      -8.550  14.755  68.239  0.00  0.00    +0.100 C 
ATOM      4  C   UNL     1      -7.422  15.702  68.311  0.00  0.00    -0.004 A 
ATOM      5  C   UNL     1      -7.211  16.540  67.235  0.00  0.00    +0.006 A 
ATOM      6  S   UNL     1      -5.725  17.281  67.661  0.00  0.00    -0.091 S 
ATOM      7  C   UNL     1      -5.586  16.663  69.258  0.00  0.00    +0.035 A 
ATOM      8  C   UNL     1      -8.177  16.694  66.124  0.00  0.00    +0.050 C 
ATOM      9  C   UNL     1      -6.861  16.215  69.468  0.00  0.00    +0.004 A 
ATOM     10  C   UNL     1      -9.237  15.672  66.200  0.00  0.00    +0.078 C 
ENDBRANCH   1   2
BRANCH   1  11
ATOM     11  C   UNL     1     -11.449  13.986  68.314  0.00  0.00    +0.014 A 
ATOM     12  C   UNL     1     -11.585  12.963  69.175  0.00  0.00    +0.055 A 
ATOM     13 CL   UNL     1     -11.925  11.480  68.276  0.00  0.00    -0.083 Cl
ATOM     14  C   UNL     1     -12.115  13.212  70.430  0.00  0.00    +0.011 A 
ATOM     15  C   UNL     1     -12.159  14.531  70.861  0.00  0.00    +0.001 A 
ATOM     16  C   UNL     1     -12.199  15.559  69.931  0.00  0.00    -0.000 A 
ATOM     17  C   UNL     1     -11.688  15.312  68.667  0.00  0.00    -0.002 A 
ENDBRANCH   1  11
BRANCH   1  18
ATOM     18  C   UNL     1     -11.270  14.502  65.936  0.00  0.00    +0.336 C 
ATOM     19  O   UNL     1     -12.435  14.074  66.232  0.00  0.00    -0.248 OA
BRANCH  18  21
ATOM     20  C   UNL     1     -10.754  12.825  64.253  0.00  0.00    +0.256 C 
ATOM     21  O   UNL     1     -10.887  14.072  64.661  0.00  0.00    -0.443 OA
ENDBRANCH  18  21
ENDBRANCH   1  18
TORSDOF 4
ENDMDL
MODEL 8
REMARK VINA RESULT:      -5.1      3.143      5.204
REMARK  Name = 
REMARK  4 active torsions:
REMARK  status: ('A' for Active; 'I' for Inactive)
REMARK    1  A    between atoms: O_2  and  C_3
REMARK    2  A    between atoms: C_3  and  C_5
REMARK    3  A    between atoms: C_5  and  C_6
REMARK    4  A    between atoms: C_5  and  N_13
REMARK                            x       y       z     vdW  Elec       q    Type
REMARK                         _______ _______ _______ _____ _____    ______ ____
ROOT
ATOM      1  C   UNL     1     -10.063  14.703  68.199  0.00  0.00    +0.182 C 
ENDROOT
BRANCH   1   2
ATOM      2  N   UNL     1     -10.555  14.706  66.672  0.00  0.00    -0.257 NA
ATOM      3  C   UNL     1      -9.975  13.410  66.319  0.00  0.00    +0.100 C 
ATOM      4  C   UNL     1     -10.635  12.783  65.159  0.00  0.00    -0.004 A 
ATOM      5  C   UNL     1     -11.989  12.993  64.993  0.00  0.00    +0.006 A 
ATOM      6  S   UNL     1     -12.345  11.939  63.689  0.00  0.00    -0.091 S 
ATOM      7  C   UNL     1     -10.737  11.481  63.292  0.00  0.00    +0.035 A 
ATOM      8  C   UNL     1     -12.759  13.983  65.779  0.00  0.00    +0.050 C 
ATOM      9  C   UNL     1     -10.028  12.439  63.963  0.00  0.00    +0.004 A 
ATOM     10  C   UNL     1     -11.957  14.510  66.897  0.00  0.00    +0.078 C 
ENDBRANCH   1   2
BRANCH   1  11
ATOM     11  C   UNL     1      -8.923  15.835  67.894  0.00  0.00    +0.014 A 
ATOM     12  C   UNL     1      -7.632  15.517  68.083  0.00  0.00    +0.055 A 
ATOM     13 CL   UNL     1      -7.400  14.966  69.747  0.00  0.00    -0.083 Cl
ATOM     14  C   UNL     1      -6.661  16.220  67.390  0.00  0.00    +0.011 A 
ATOM     15  C   UNL     1      -7.068  16.971  66.295  0.00  0.00    +0.001 A 
ATOM     16  C   UNL     1      -8.373  17.436  66.224  0.00  0.00    -0.000 A 
ATOM     17  C   UNL     1      -9.347  16.748  66.931  0.00  0.00    -0.002 A 
ENDBRANCH   1  11
BRANCH   1  18
ATOM     18  C   UNL     1     -11.234  15.750  68.673  0.00  0.00    +0.336 C 
ATOM     19  O   UNL     1     -10.577  16.647  69.299  0.00  0.00    -0.248 OA
BRANCH  18  21
ATOM     20  C   UNL     1     -12.582  15.578  70.689  0.00  0.00    +0.256 C 
ATOM     21  O   UNL     1     -12.186  15.152  69.505  0.00  0.00    -0.443 OA
ENDBRANCH  18  21
ENDBRANCH   1  18
TORSDOF 4
ENDMDL
MODEL 9
REMARK VINA RESULT:      -5.0      5.506      7.589
REMARK  Name = 
REMARK  4 active torsions:
REMARK  status: ('A' for Active; 'I' for Inactive)
REMARK    1  A    between atoms: O_2  and  C_3
REMARK    2  A    between atoms: C_3  and  C_5
REMARK    3  A    between atoms: C_5  and  C_6
REMARK    4  A    between atoms: C_5  and  N_13
REMARK                            x       y       z     vdW  Elec       q    Type
REMARK                         _______ _______ _______ _____ _____    ______ ____
ROOT
ATOM      1  C   UNL     1     -12.088   9.159  70.424  0.00  0.00    +0.182 C 
ENDROOT
BRANCH   1   2
ATOM      2  N   UNL     1     -11.382  10.597  70.503  0.00  0.00    -0.257 NA
ATOM      3  C   UNL     1     -11.320  10.820  69.058  0.00  0.00    +0.100 C 
ATOM      4  C   UNL     1     -11.222  12.248  68.702  0.00  0.00    -0.004 A 
ATOM      5  C   UNL     1     -11.870  13.162  69.507  0.00  0.00    +0.006 A 
ATOM      6  S   UNL     1     -11.662  14.614  68.619  0.00  0.00    -0.091 S 
ATOM      7  C   UNL     1     -10.584  14.020  67.420  0.00  0.00    +0.035 A 
ATOM      8  C   UNL     1     -12.464  12.813  70.817  0.00  0.00    +0.050 C 
ATOM      9  C   UNL     1     -10.191  12.842  67.993  0.00  0.00    +0.004 A 
ATOM     10  C   UNL     1     -12.487  11.352  71.014  0.00  0.00    +0.078 C 
ENDBRANCH   1   2
BRANCH   1  11
ATOM     11  C   UNL     1     -10.662   8.383  70.616  0.00  0.00    +0.014 A 
ATOM     12  C   UNL     1     -10.333   7.415  69.746  0.00  0.00    +0.055 A 
ATOM     13 CL   UNL     1     -11.605   6.187  69.723  0.00  0.00    -0.083 Cl
ATOM     14  C   UNL     1      -8.995   7.104  69.565  0.00  0.00    +0.011 A 
ATOM     15  C   UNL     1      -8.054   8.019  70.020  0.00  0.00    +0.001 A 
ATOM     16  C   UNL     1      -8.379   8.887  71.051  0.00  0.00    -0.000 A 
ATOM     17  C   UNL     1      -9.718   9.189  71.249  0.00  0.00    -0.002 A 
ENDBRANCH   1  11
BRANCH   1  18
ATOM     18  C   UNL     1     -12.501   9.174  72.012  0.00  0.00    +0.336 C 
ATOM     19  O   UNL     1     -11.854   8.181  72.483  0.00  0.00    -0.248 OA
BRANCH  18  21
ATOM     20  C   UNL     1     -14.641   8.052  71.737  0.00  0.00    +0.256 C 
ATOM     21  O   UNL     1     -13.877   9.018  72.211  0.00  0.00    -0.443 OA
ENDBRANCH  18  21
ENDBRANCH   1  18
TORSDOF 4
ENDMDL
