MODEL 1
REMARK VINA RESULT:      -6.9      0.000      0.000
REMARK  Name = 
REMARK  6 active torsions:
REMARK  status: ('A' for Active; 'I' for Inactive)
REMARK    1  A    between atoms: C_4  and  C_5
REMARK    2  A    between atoms: C_6  and  C_7
REMARK    3  A    between atoms: C_12  and  N_13
REMARK    4  A    between atoms: N_13  and  C_14
REMARK    5  A    between atoms: N_19  and  C_20
REMARK    6  A    between atoms: C_23  and  C_24
REMARK                            x       y       z     vdW  Elec       q    Type
REMARK                         _______ _______ _______ _____ _____    ______ ____
ROOT
ATOM      1  C   UNL     1      -8.932  16.680  66.989  0.00  0.00    +0.156 A 
ATOM      2  N   UNL     1     -10.203  16.516  67.436  0.00  0.00    -0.195 NA
ATOM      3  C   UNL     1     -10.482  15.866  68.588  0.00  0.00    +0.242 A 
ATOM      4  N   UNL     1     -11.722  15.182  68.798  0.00  0.00    -0.178 NA
ATOM      5  N   UNL     1      -9.473  15.806  69.490  0.00  0.00    -0.211 NA
ATOM      6  C   UNL     1      -8.171  15.818  69.110  0.00  0.00    +0.105 A 
ATOM      7  C   UNL     1      -7.947  16.080  67.765  0.00  0.00    +0.057 A 
ENDROOT
BRANCH   4   8
ATOM      8  C   UNL     1     -11.726  14.002  69.613  0.00  0.00    +0.074 A 
ATOM      9  C   UNL     1     -12.335  13.958  70.833  0.00  0.00    +0.017 A 
ATOM     10  C   UNL     1     -12.794  12.737  71.316  0.00  0.00    +0.012 A 
ATOM     11  C   UNL     1     -12.498  11.543  70.674  0.00  0.00    +0.069 A 
ATOM     12  C   UNL     1     -11.863  11.584  69.446  0.00  0.00    +0.012 A 
ATOM     13  C   UNL     1     -11.403  12.797  69.013  0.00  0.00    +0.017 A 
BRANCH  11  14
ATOM     14  C   UNL     1     -12.624  10.269  71.345  0.00  0.00    +0.100 C 
ATOM     15  N   UNL     1     -12.994   9.363  71.976  0.00  0.00    -0.191 NA
ENDBRANCH  11  14
ENDBRANCH   4   8
BRANCH   1  16
ATOM     16  N   UNL     1      -8.580  17.728  66.078  0.00  0.00    -0.195 NA
BRANCH  16  19
ATOM     17  C   UNL     1      -5.980  18.072  64.971  0.00  0.00    +0.032 C 
ATOM     18  C   UNL     1      -6.531  19.000  65.982  0.00  0.00    -0.007 A 
ATOM     19  C   UNL     1      -7.833  18.865  66.446  0.00  0.00    +0.064 A 
ATOM     20  C   UNL     1      -8.407  19.856  67.233  0.00  0.00    -0.007 A 
ATOM     21  C   UNL     1      -9.855  20.138  67.067  0.00  0.00    +0.032 C 
ATOM     22  C   UNL     1      -7.547  20.686  67.931  0.00  0.00    -0.003 A 
ATOM     23  C   UNL     1      -6.177  20.633  67.732  0.00  0.00    +0.000 A 
ATOM     24  C   UNL     1      -5.745  19.974  66.588  0.00  0.00    -0.003 A 
BRANCH  23  25
ATOM     25  C   UNL     1      -5.217  21.010  68.776  0.00  0.00    +0.011 C 
ATOM     26  C   UNL     1      -5.278  20.505  69.997  0.00  0.00    +0.078 C 
BRANCH  26  27
ATOM     27  C   UNL     1      -4.706  21.216  71.114  0.00  0.00    +0.101 C 
ATOM     28  N   UNL     1      -4.332  21.906  71.952  0.00  0.00    -0.191 NA
ENDBRANCH  26  27
ENDBRANCH  23  25
ENDBRANCH  16  19
ENDBRANCH   1  16
TORSDOF 6
ENDMDL
MODEL 2
REMARK VINA RESULT:      -6.8      2.064      2.583
REMARK  Name = 
REMARK  6 active torsions:
REMARK  status: ('A' for Active; 'I' for Inactive)
REMARK    1  A    between atoms: C_4  and  C_5
REMARK    2  A    between atoms: C_6  and  C_7
REMARK    3  A    between atoms: C_12  and  N_13
REMARK    4  A    between atoms: N_13  and  C_14
REMARK    5  A    between atoms: N_19  and  C_20
REMARK    6  A    between atoms: C_23  and  C_24
REMARK                            x       y       z     vdW  Elec       q    Type
REMARK                         _______ _______ _______ _____ _____    ______ ____
ROOT
ATOM      1  C   UNL     1      -9.181  16.749  66.076  0.00  0.00    +0.156 A 
ATOM      2  N   UNL     1     -10.423  16.281  66.358  0.00  0.00    -0.195 NA
ATOM      3  C   UNL     1     -10.622  15.088  66.964  0.00  0.00    +0.242 A 
ATOM      4  N   UNL     1     -11.813  14.319  66.763  0.00  0.00    -0.178 NA
ATOM      5  N   UNL     1      -9.579  14.612  67.684  0.00  0.00    -0.211 NA
ATOM      6  C   UNL     1      -8.295  14.918  67.374  0.00  0.00    +0.105 A 
ATOM      7  C   UNL     1      -8.135  15.889  66.394  0.00  0.00    +0.057 A 
ENDROOT
BRANCH   4   8
ATOM      8  C   UNL     1     -11.720  12.889  66.795  0.00  0.00    +0.074 A 
ATOM      9  C   UNL     1     -11.209  12.166  65.757  0.00  0.00    +0.017 A 
ATOM     10  C   UNL     1     -10.635  10.925  66.013  0.00  0.00    +0.012 A 
ATOM     11  C   UNL     1     -10.720  10.330  67.264  0.00  0.00    +0.069 A 
ATOM     12  C   UNL     1     -11.255  11.053  68.314  0.00  0.00    +0.012 A 
ATOM     13  C   UNL     1     -11.833  12.257  68.022  0.00  0.00    +0.017 A 
BRANCH  11  14
ATOM     14  C   UNL     1     -10.482   8.916  67.448  0.00  0.00    +0.100 C 
ATOM     15  N   UNL     1     -10.457   7.757  67.339  0.00  0.00    -0.191 NA
ENDBRANCH  11  14
ENDBRANCH   4   8
BRANCH   1  16
ATOM     16  N   UNL     1      -8.922  18.145  65.891  0.00  0.00    -0.195 NA
BRANCH  16  19
ATOM     17  C   UNL     1      -6.362  19.057  65.044  0.00  0.00    +0.032 C 
ATOM     18  C   UNL     1      -6.868  19.300  66.412  0.00  0.00    -0.007 A 
ATOM     19  C   UNL     1      -8.153  18.922  66.780  0.00  0.00    +0.064 A 
ATOM     20  C   UNL     1      -8.689  19.335  67.993  0.00  0.00    -0.007 A 
ATOM     21  C   UNL     1     -10.139  19.644  68.055  0.00  0.00    +0.032 C 
ATOM     22  C   UNL     1      -7.796  19.677  68.994  0.00  0.00    -0.003 A 
ATOM     23  C   UNL     1      -6.435  19.756  68.749  0.00  0.00    +0.000 A 
ATOM     24  C   UNL     1      -6.052  19.811  67.415  0.00  0.00    -0.003 A 
BRANCH  23  25
ATOM     25  C   UNL     1      -5.434  19.532  69.799  0.00  0.00    +0.011 C 
ATOM     26  C   UNL     1      -5.540  20.086  70.994  0.00  0.00    +0.078 C 
BRANCH  26  27
ATOM     27  C   UNL     1      -4.369  20.293  71.813  0.00  0.00    +0.101 C 
ATOM     28  N   UNL     1      -3.445  20.303  72.494  0.00  0.00    -0.191 NA
ENDBRANCH  26  27
ENDBRANCH  23  25
ENDBRANCH  16  19
ENDBRANCH   1  16
TORSDOF 6
ENDMDL
MODEL 3
REMARK VINA RESULT:      -6.8      1.680      9.485
REMARK  Name = 
REMARK  6 active torsions:
REMARK  status: ('A' for Active; 'I' for Inactive)
REMARK    1  A    between atoms: C_4  and  C_5
REMARK    2  A    between atoms: C_6  and  C_7
REMARK    3  A    between atoms: C_12  and  N_13
REMARK    4  A    between atoms: N_13  and  C_14
REMARK    5  A    between atoms: N_19  and  C_20
REMARK    6  A    between atoms: C_23  and  C_24
REMARK                            x       y       z     vdW  Elec       q    Type
REMARK                         _______ _______ _______ _____ _____    ______ ____
ROOT
ATOM      1  C   UNL     1     -10.331  16.456  69.146  0.00  0.00    +0.156 A 
ATOM      2  N   UNL     1     -10.005  17.698  68.708  0.00  0.00    -0.195 NA
ATOM      3  C   UNL     1      -8.735  18.038  68.391  0.00  0.00    +0.242 A 
ATOM      4  N   UNL     1      -8.256  19.384  68.494  0.00  0.00    -0.178 NA
ATOM      5  N   UNL     1      -7.911  17.011  68.077  0.00  0.00    -0.211 NA
ATOM      6  C   UNL     1      -8.085  15.768  68.592  0.00  0.00    +0.105 A 
ATOM      7  C   UNL     1      -9.262  15.582  69.307  0.00  0.00    +0.057 A 
ENDROOT
BRANCH   4   8
ATOM      8  C   UNL     1      -6.884  19.599  68.843  0.00  0.00    +0.074 A 
ATOM      9  C   UNL     1      -5.987  20.157  67.979  0.00  0.00    +0.017 A 
ATOM     10  C   UNL     1      -4.888  20.839  68.489  0.00  0.00    +0.012 A 
ATOM     11  C   UNL     1      -4.586  20.821  69.844  0.00  0.00    +0.069 A 
ATOM     12  C   UNL     1      -5.483  20.239  70.720  0.00  0.00    +0.012 A 
ATOM     13  C   UNL     1      -6.539  19.556  70.184  0.00  0.00    +0.017 A 
BRANCH  11  14
ATOM     14  C   UNL     1      -3.274  21.181  70.333  0.00  0.00    +0.100 C 
ATOM     15  N   UNL     1      -2.377  21.552  70.976  0.00  0.00    -0.191 NA
ENDBRANCH  11  14
ENDBRANCH   4   8
BRANCH   1  16
ATOM     16  N   UNL     1     -11.662  15.938  69.031  0.00  0.00    -0.195 NA
BRANCH  16  19
ATOM     17  C   UNL     1     -12.753  15.109  71.526  0.00  0.00    +0.032 C 
ATOM     18  C   UNL     1     -12.441  14.146  70.448  0.00  0.00    -0.007 A 
ATOM     19  C   UNL     1     -11.989  14.579  69.208  0.00  0.00    +0.064 A 
ATOM     20  C   UNL     1     -11.896  13.692  68.143  0.00  0.00    -0.007 A 
ATOM     21  C   UNL     1     -12.201  14.192  66.779  0.00  0.00    +0.032 C 
ATOM     22  C   UNL     1     -11.777  12.347  68.449  0.00  0.00    -0.003 A 
ATOM     23  C   UNL     1     -11.903  11.892  69.751  0.00  0.00    +0.000 A 
ATOM     24  C   UNL     1     -12.478  12.772  70.658  0.00  0.00    -0.003 A 
BRANCH  23  25
ATOM     25  C   UNL     1     -11.243  10.668  70.222  0.00  0.00    +0.011 C 
ATOM     26  C   UNL     1     -11.871   9.782  70.976  0.00  0.00    +0.078 C 
BRANCH  26  27
ATOM     27  C   UNL     1     -11.127   8.892  71.834  0.00  0.00    +0.101 C 
ATOM     28  N   UNL     1     -10.674   8.142  72.576  0.00  0.00    -0.191 NA
ENDBRANCH  26  27
ENDBRANCH  23  25
ENDBRANCH  16  19
ENDBRANCH   1  16
TORSDOF 6
ENDMDL
MODEL 4
REMARK VINA RESULT:      -6.8      2.343      9.970
REMARK  Name = 
REMARK  6 active torsions:
REMARK  status: ('A' for Active; 'I' for Inactive)
REMARK    1  A    between atoms: C_4  and  C_5
REMARK    2  A    between atoms: C_6  and  C_7
REMARK    3  A    between atoms: C_12  and  N_13
REMARK    4  A    between atoms: N_13  and  C_14
REMARK    5  A    between atoms: N_19  and  C_20
REMARK    6  A    between atoms: C_23  and  C_24
REMARK                            x       y       z     vdW  Elec       q    Type
REMARK                         _______ _______ _______ _____ _____    ______ ____
ROOT
ATOM      1  C   UNL     1     -11.276  13.161  67.901  0.00  0.00    +0.156 A 
ATOM      2  N   UNL     1     -11.613  14.388  68.373  0.00  0.00    -0.195 NA
ATOM      3  C   UNL     1     -11.308  15.523  67.705  0.00  0.00    +0.242 A 
ATOM      4  N   UNL     1     -11.110  16.773  68.375  0.00  0.00    -0.178 NA
ATOM      5  N   UNL     1     -11.092  15.385  66.375  0.00  0.00    -0.211 NA
ATOM      6  C   UNL     1     -10.616  14.233  65.843  0.00  0.00    +0.105 A 
ATOM      7  C   UNL     1     -10.542  13.158  66.720  0.00  0.00    +0.057 A 
ENDROOT
BRANCH   4   8
ATOM      8  C   UNL     1     -10.163  17.701  67.830  0.00  0.00    +0.074 A 
ATOM      9  C   UNL     1     -10.539  18.893  67.281  0.00  0.00    +0.017 A 
ATOM     10  C   UNL     1      -9.639  19.953  67.283  0.00  0.00    +0.012 A 
ATOM     11  C   UNL     1      -8.317  19.783  67.670  0.00  0.00    +0.069 A 
ATOM     12  C   UNL     1      -7.928  18.570  68.207  0.00  0.00    +0.012 A 
ATOM     13  C   UNL     1      -8.829  17.543  68.167  0.00  0.00    +0.017 A 
BRANCH  11  14
ATOM     14  C   UNL     1      -7.295  20.744  67.319  0.00  0.00    +0.100 C 
ATOM     15  N   UNL     1      -6.412  21.503  67.336  0.00  0.00    -0.191 NA
ENDBRANCH  11  14
ENDBRANCH   4   8
BRANCH   1  16
ATOM     16  N   UNL     1     -11.971  11.976  68.309  0.00  0.00    -0.195 NA
BRANCH  16  19
ATOM     17  C   UNL     1      -9.742  10.205  68.245  0.00  0.00    +0.032 C 
ATOM     18  C   UNL     1     -10.624  10.315  69.428  0.00  0.00    -0.007 A 
ATOM     19  C   UNL     1     -11.654  11.246  69.472  0.00  0.00    +0.064 A 
ATOM     20  C   UNL     1     -12.340  11.482  70.656  0.00  0.00    -0.007 A 
ATOM     21  C   UNL     1     -12.797  12.865  70.943  0.00  0.00    +0.032 C 
ATOM     22  C   UNL     1     -12.328  10.474  71.605  0.00  0.00    -0.003 A 
ATOM     23  C   UNL     1     -11.540   9.346  71.447  0.00  0.00    +0.000 A 
ATOM     24  C   UNL     1     -10.533   9.427  70.494  0.00  0.00    -0.003 A 
BRANCH  23  25
ATOM     25  C   UNL     1     -11.891   8.053  72.046  0.00  0.00    +0.011 C 
ATOM     26  C   UNL     1     -11.059   7.403  72.842  0.00  0.00    +0.078 C 
BRANCH  26  27
ATOM     27  C   UNL     1     -11.167   5.974  73.006  0.00  0.00    +0.101 C 
ATOM     28  N   UNL     1     -11.250   4.864  73.290  0.00  0.00    -0.191 NA
ENDBRANCH  26  27
ENDBRANCH  23  25
ENDBRANCH  16  19
ENDBRANCH   1  16
TORSDOF 6
ENDMDL
MODEL 5
REMARK VINA RESULT:      -6.7      4.337      9.492
REMARK  Name = 
REMARK  6 active torsions:
REMARK  status: ('A' for Active; 'I' for Inactive)
REMARK    1  A    between atoms: C_4  and  C_5
REMARK    2  A    between atoms: C_6  and  C_7
REMARK    3  A    between atoms: C_12  and  N_13
REMARK    4  A    between atoms: N_13  and  C_14
REMARK    5  A    between atoms: N_19  and  C_20
REMARK    6  A    between atoms: C_23  and  C_24
REMARK                            x       y       z     vdW  Elec       q    Type
REMARK                         _______ _______ _______ _____ _____    ______ ____
ROOT
ATOM      1  C   UNL     1     -10.630  13.942  67.235  0.00  0.00    +0.156 A 
ATOM      2  N   UNL     1     -11.189  15.059  67.765  0.00  0.00    -0.195 NA
ATOM      3  C   UNL     1     -10.727  16.298  67.482  0.00  0.00    +0.242 A 
ATOM      4  N   UNL     1     -10.865  17.391  68.396  0.00  0.00    -0.178 NA
ATOM      5  N   UNL     1     -10.028  16.417  66.328  0.00  0.00    -0.211 NA
ATOM      6  C   UNL     1      -9.321  15.383  65.809  0.00  0.00    +0.105 A 
ATOM      7  C   UNL     1      -9.513  14.158  66.435  0.00  0.00    +0.057 A 
ENDROOT
BRANCH   4   8
ATOM      8  C   UNL     1      -9.841  18.393  68.426  0.00  0.00    +0.074 A 
ATOM      9  C   UNL     1      -8.552  18.113  68.777  0.00  0.00    +0.017 A 
ATOM     10  C   UNL     1      -7.526  18.910  68.281  0.00  0.00    +0.012 A 
ATOM     11  C   UNL     1      -7.788  20.080  67.582  0.00  0.00    +0.069 A 
ATOM     12  C   UNL     1      -9.095  20.377  67.242  0.00  0.00    +0.012 A 
ATOM     13  C   UNL     1     -10.080  19.587  67.767  0.00  0.00    +0.017 A 
BRANCH  11  14
ATOM     14  C   UNL     1      -6.778  21.098  67.403  0.00  0.00    +0.100 C 
ATOM     15  N   UNL     1      -5.812  21.687  67.126  0.00  0.00    -0.191 NA
ENDBRANCH  11  14
ENDBRANCH   4   8
BRANCH   1  16
ATOM     16  N   UNL     1     -11.354  12.711  67.127  0.00  0.00    -0.195 NA
BRANCH  16  19
ATOM     17  C   UNL     1     -10.200  10.245  67.959  0.00  0.00    +0.032 C 
ATOM     18  C   UNL     1     -10.442  10.556  66.533  0.00  0.00    -0.007 A 
ATOM     19  C   UNL     1     -11.084  11.728  66.154  0.00  0.00    +0.064 A 
ATOM     20  C   UNL     1     -11.489  11.915  64.838  0.00  0.00    -0.007 A 
ATOM     21  C   UNL     1     -12.752  12.652  64.587  0.00  0.00    +0.032 C 
ATOM     22  C   UNL     1     -10.829  11.185  63.864  0.00  0.00    -0.003 A 
ATOM     23  C   UNL     1      -9.915  10.200  64.199  0.00  0.00    +0.000 A 
ATOM     24  C   UNL     1      -9.945   9.752  65.513  0.00  0.00    -0.003 A 
BRANCH  23  25
ATOM     25  C   UNL     1      -8.806   9.824  63.314  0.00  0.00    +0.011 C 
ATOM     26  C   UNL     1      -8.668  10.346  62.107  0.00  0.00    +0.078 C 
BRANCH  26  27
ATOM     27  C   UNL     1      -7.933   9.642  61.084  0.00  0.00    +0.101 C 
ATOM     28  N   UNL     1      -7.475   9.105  60.179  0.00  0.00    -0.191 NA
ENDBRANCH  26  27
ENDBRANCH  23  25
ENDBRANCH  16  19
ENDBRANCH   1  16
TORSDOF 6
ENDMDL
MODEL 6
REMARK VINA RESULT:      -6.6      2.911      9.450
REMARK  Name = 
REMARK  6 active torsions:
REMARK  status: ('A' for Active; 'I' for Inactive)
REMARK    1  A    between atoms: C_4  and  C_5
REMARK    2  A    between atoms: C_6  and  C_7
REMARK    3  A    between atoms: C_12  and  N_13
REMARK    4  A    between atoms: N_13  and  C_14
REMARK    5  A    between atoms: N_19  and  C_20
REMARK    6  A    between atoms: C_23  and  C_24
REMARK                            x       y       z     vdW  Elec       q    Type
REMARK                         _______ _______ _______ _____ _____    ______ ____
ROOT
ATOM      1  C   UNL     1     -11.245  12.834  67.875  0.00  0.00    +0.156 A 
ATOM      2  N   UNL     1     -11.644  14.042  68.348  0.00  0.00    -0.195 NA
ATOM      3  C   UNL     1     -11.321  15.199  67.727  0.00  0.00    +0.242 A 
ATOM      4  N   UNL     1     -11.200  16.438  68.435  0.00  0.00    -0.178 NA
ATOM      5  N   UNL     1     -11.011  15.097  66.413  0.00  0.00    -0.211 NA
ATOM      6  C   UNL     1     -10.471  13.968  65.890  0.00  0.00    +0.105 A 
ATOM      7  C   UNL     1     -10.432  12.876  66.747  0.00  0.00    +0.057 A 
ENDROOT
BRANCH   4   8
ATOM      8  C   UNL     1     -10.241  17.399  67.978  0.00  0.00    +0.074 A 
ATOM      9  C   UNL     1     -10.606  18.612  67.470  0.00  0.00    +0.017 A 
ATOM     10  C   UNL     1      -9.719  19.680  67.562  0.00  0.00    +0.012 A 
ATOM     11  C   UNL     1      -8.413  19.504  67.998  0.00  0.00    +0.069 A 
ATOM     12  C   UNL     1      -8.035  18.270  68.495  0.00  0.00    +0.012 A 
ATOM     13  C   UNL     1      -8.921  17.238  68.366  0.00  0.00    +0.017 A 
BRANCH  11  14
ATOM     14  C   UNL     1      -7.388  20.490  67.739  0.00  0.00    +0.100 C 
ATOM     15  N   UNL     1      -6.716  21.315  67.266  0.00  0.00    -0.191 NA
ENDBRANCH  11  14
ENDBRANCH   4   8
BRANCH   1  16
ATOM     16  N   UNL     1     -11.937  11.625  68.208  0.00  0.00    -0.195 NA
BRANCH  16  19
ATOM     17  C   UNL     1     -12.746  11.261  70.913  0.00  0.00    +0.032 C 
ATOM     18  C   UNL     1     -11.683  10.440  70.295  0.00  0.00    -0.007 A 
ATOM     19  C   UNL     1     -11.362  10.575  68.950  0.00  0.00    +0.064 A 
ATOM     20  C   UNL     1     -10.514   9.664  68.333  0.00  0.00    -0.007 A 
ATOM     21  C   UNL     1     -10.776   9.302  66.918  0.00  0.00    +0.032 C 
ATOM     22  C   UNL     1      -9.640   8.963  69.147  0.00  0.00    -0.003 A 
ATOM     23  C   UNL     1      -9.716   9.050  70.527  0.00  0.00    +0.000 A 
ATOM     24  C   UNL     1     -10.888   9.583  71.048  0.00  0.00    -0.003 A 
BRANCH  23  25
ATOM     25  C   UNL     1      -8.548   8.845  71.392  0.00  0.00    +0.011 C 
ATOM     26  C   UNL     1      -8.624   8.153  72.516  0.00  0.00    +0.078 C 
BRANCH  26  27
ATOM     27  C   UNL     1      -7.672   8.373  73.578  0.00  0.00    +0.101 C 
ATOM     28  N   UNL     1      -7.000   8.676  74.458  0.00  0.00    -0.191 NA
ENDBRANCH  26  27
ENDBRANCH  23  25
ENDBRANCH  16  19
ENDBRANCH   1  16
TORSDOF 6
ENDMDL
MODEL 7
REMARK VINA RESULT:      -6.6      1.647      2.477
REMARK  Name = 
REMARK  6 active torsions:
REMARK  status: ('A' for Active; 'I' for Inactive)
REMARK    1  A    between atoms: C_4  and  C_5
REMARK    2  A    between atoms: C_6  and  C_7
REMARK    3  A    between atoms: C_12  and  N_13
REMARK    4  A    between atoms: N_13  and  C_14
REMARK    5  A    between atoms: N_19  and  C_20
REMARK    6  A    between atoms: C_23  and  C_24
REMARK                            x       y       z     vdW  Elec       q    Type
REMARK                         _______ _______ _______ _____ _____    ______ ____
ROOT
ATOM      1  C   UNL     1     -10.409  15.543  68.278  0.00  0.00    +0.156 A 
ATOM      2  N   UNL     1     -11.123  14.419  68.015  0.00  0.00    -0.195 NA
ATOM      3  C   UNL     1     -11.628  13.642  69.000  0.00  0.00    +0.242 A 
ATOM      4  N   UNL     1     -11.852  12.239  68.826  0.00  0.00    -0.178 NA
ATOM      5  N   UNL     1     -11.807  14.249  70.197  0.00  0.00    -0.211 NA
ATOM      6  C   UNL     1     -11.033  15.290  70.595  0.00  0.00    +0.105 A 
ATOM      7  C   UNL     1     -10.181  15.802  69.625  0.00  0.00    +0.057 A 
ENDROOT
BRANCH   4   8
ATOM      8  C   UNL     1     -11.693  11.373  69.956  0.00  0.00    +0.074 A 
ATOM      9  C   UNL     1     -12.697  11.150  70.854  0.00  0.00    +0.017 A 
ATOM     10  C   UNL     1     -12.717   9.954  71.564  0.00  0.00    +0.012 A 
ATOM     11  C   UNL     1     -11.657   9.060  71.511  0.00  0.00    +0.069 A 
ATOM     12  C   UNL     1     -10.629   9.294  70.617  0.00  0.00    +0.012 A 
ATOM     13  C   UNL     1     -10.627  10.489  69.955  0.00  0.00    +0.017 A 
BRANCH  11  14
ATOM     14  C   UNL     1     -11.484   8.030  72.511  0.00  0.00    +0.100 C 
ATOM     15  N   UNL     1     -11.076   7.163  73.173  0.00  0.00    -0.191 NA
ENDBRANCH  11  14
ENDBRANCH   4   8
BRANCH   1  16
ATOM     16  N   UNL     1     -10.282  16.600  67.319  0.00  0.00    -0.195 NA
BRANCH  16  19
ATOM     17  C   UNL     1      -7.640  15.816  66.606  0.00  0.00    +0.032 C 
ATOM     18  C   UNL     1      -7.950  17.178  67.092  0.00  0.00    -0.007 A 
ATOM     19  C   UNL     1      -9.258  17.567  67.353  0.00  0.00    +0.064 A 
ATOM     20  C   UNL     1      -9.559  18.898  67.609  0.00  0.00    -0.007 A 
ATOM     21  C   UNL     1     -10.851  19.437  67.116  0.00  0.00    +0.032 C 
ATOM     22  C   UNL     1      -8.532  19.700  68.078  0.00  0.00    -0.003 A 
ATOM     23  C   UNL     1      -7.228  19.236  68.140  0.00  0.00    +0.000 A 
ATOM     24  C   UNL     1      -6.948  18.087  67.412  0.00  0.00    -0.003 A 
BRANCH  23  25
ATOM     25  C   UNL     1      -6.256  19.754  69.110  0.00  0.00    +0.011 C 
ATOM     26  C   UNL     1      -5.553  18.951  69.890  0.00  0.00    +0.078 C 
BRANCH  26  27
ATOM     27  C   UNL     1      -5.014  19.431  71.140  0.00  0.00    +0.101 C 
ATOM     28  N   UNL     1      -4.456  19.730  72.098  0.00  0.00    -0.191 NA
ENDBRANCH  26  27
ENDBRANCH  23  25
ENDBRANCH  16  19
ENDBRANCH   1  16
TORSDOF 6
ENDMDL
MODEL 8
REMARK VINA RESULT:      -6.3      2.993      9.471
REMARK  Name = 
REMARK  6 active torsions:
REMARK  status: ('A' for Active; 'I' for Inactive)
REMARK    1  A    between atoms: C_4  and  C_5
REMARK    2  A    between atoms: C_6  and  C_7
REMARK    3  A    between atoms: C_12  and  N_13
REMARK    4  A    between atoms: N_13  and  C_14
REMARK    5  A    between atoms: N_19  and  C_20
REMARK    6  A    between atoms: C_23  and  C_24
REMARK                            x       y       z     vdW  Elec       q    Type
REMARK                         _______ _______ _______ _____ _____    ______ ____
ROOT
ATOM      1  C   UNL     1     -10.931  14.803  68.538  0.00  0.00    +0.156 A 
ATOM      2  N   UNL     1     -11.363  16.030  68.150  0.00  0.00    -0.195 NA
ATOM      3  C   UNL     1     -10.535  16.938  67.586  0.00  0.00    +0.242 A 
ATOM      4  N   UNL     1     -10.760  18.348  67.698  0.00  0.00    -0.178 NA
ATOM      5  N   UNL     1      -9.420  16.438  67.003  0.00  0.00    -0.211 NA
ATOM      6  C   UNL     1      -8.842  15.289  67.431  0.00  0.00    +0.105 A 
ATOM      7  C   UNL     1      -9.569  14.573  68.374  0.00  0.00    +0.057 A 
ENDROOT
BRANCH   4   8
ATOM      8  C   UNL     1      -9.625  19.222  67.746  0.00  0.00    +0.074 A 
ATOM      9  C   UNL     1      -8.784  19.271  68.820  0.00  0.00    +0.017 A 
ATOM     10  C   UNL     1      -7.464  19.668  68.630  0.00  0.00    +0.012 A 
ATOM     11  C   UNL     1      -7.027  20.177  67.415  0.00  0.00    +0.069 A 
ATOM     12  C   UNL     1      -7.883  20.147  66.330  0.00  0.00    +0.012 A 
ATOM     13  C   UNL     1      -9.179  19.775  66.558  0.00  0.00    +0.017 A 
BRANCH  11  14
ATOM     14  C   UNL     1      -5.802  20.938  67.310  0.00  0.00    +0.100 C 
ATOM     15  N   UNL     1      -4.907  21.581  66.933  0.00  0.00    -0.191 NA
ENDBRANCH  11  14
ENDBRANCH   4   8
BRANCH   1  16
ATOM     16  N   UNL     1     -11.828  13.695  68.681  0.00  0.00    -0.195 NA
BRANCH  16  19
ATOM     17  C   UNL     1     -11.867  11.257  70.150  0.00  0.00    +0.032 C 
ATOM     18  C   UNL     1     -11.617  11.291  68.693  0.00  0.00    -0.007 A 
ATOM     19  C   UNL     1     -11.687  12.481  67.980  0.00  0.00    +0.064 A 
ATOM     20  C   UNL     1     -11.655  12.473  66.591  0.00  0.00    -0.007 A 
ATOM     21  C   UNL     1     -12.470  13.476  65.861  0.00  0.00    +0.032 C 
ATOM     22  C   UNL     1     -11.073  11.377  65.978  0.00  0.00    -0.003 A 
ATOM     23  C   UNL     1     -10.682  10.267  66.709  0.00  0.00    +0.000 A 
ATOM     24  C   UNL     1     -11.197  10.164  67.995  0.00  0.00    -0.003 A 
BRANCH  23  25
ATOM     25  C   UNL     1      -9.593   9.385  66.275  0.00  0.00    +0.011 C 
ATOM     26  C   UNL     1      -9.639   8.076  66.456  0.00  0.00    +0.078 C 
BRANCH  26  27
ATOM     27  C   UNL     1      -8.425   7.300  66.511  0.00  0.00    +0.101 C 
ATOM     28  N   UNL     1      -7.430   6.735  66.410  0.00  0.00    -0.191 NA
ENDBRANCH  26  27
ENDBRANCH  23  25
ENDBRANCH  16  19
ENDBRANCH   1  16
TORSDOF 6
ENDMDL
MODEL 9
REMARK VINA RESULT:      -6.2      2.394      9.244
REMARK  Name = 
REMARK  6 active torsions:
REMARK  status: ('A' for Active; 'I' for Inactive)
REMARK    1  A    between atoms: C_4  and  C_5
REMARK    2  A    between atoms: C_6  and  C_7
REMARK    3  A    between atoms: C_12  and  N_13
REMARK    4  A    between atoms: N_13  and  C_14
REMARK    5  A    between atoms: N_19  and  C_20
REMARK    6  A    between atoms: C_23  and  C_24
REMARK                            x       y       z     vdW  Elec       q    Type
REMARK                         _______ _______ _______ _____ _____    ______ ____
ROOT
ATOM      1  C   UNL     1     -10.368  15.910  67.768  0.00  0.00    +0.156 A 
ATOM      2  N   UNL     1     -10.277  17.264  67.793  0.00  0.00    -0.195 NA
ATOM      3  C   UNL     1      -9.134  17.913  67.477  0.00  0.00    +0.242 A 
ATOM      4  N   UNL     1      -8.811  19.198  68.019  0.00  0.00    -0.178 NA
ATOM      5  N   UNL     1      -8.260  17.226  66.704  0.00  0.00    -0.211 NA
ATOM      6  C   UNL     1      -8.190  15.872  66.732  0.00  0.00    +0.105 A 
ATOM      7  C   UNL     1      -9.189  15.240  67.460  0.00  0.00    +0.057 A 
ENDROOT
BRANCH   4   8
ATOM      8  C   UNL     1      -7.434  19.517  68.257  0.00  0.00    +0.074 A 
ATOM      9  C   UNL     1      -6.791  20.522  67.594  0.00  0.00    +0.017 A 
ATOM     10  C   UNL     1      -5.708  21.149  68.201  0.00  0.00    +0.012 A 
ATOM     11  C   UNL     1      -5.159  20.669  69.382  0.00  0.00    +0.069 A 
ATOM     12  C   UNL     1      -5.798  19.638  70.046  0.00  0.00    +0.012 A 
ATOM     13  C   UNL     1      -6.843  19.028  69.409  0.00  0.00    +0.017 A 
BRANCH  11  14
ATOM     14  C   UNL     1      -3.834  21.053  69.813  0.00  0.00    +0.100 C 
ATOM     15  N   UNL     1      -2.923  21.500  70.385  0.00  0.00    -0.191 NA
ENDBRANCH  11  14
ENDBRANCH   4   8
BRANCH   1  16
ATOM     16  N   UNL     1     -11.626  15.238  67.628  0.00  0.00    -0.195 NA
BRANCH  16  19
ATOM     17  C   UNL     1     -12.016  13.673  69.973  0.00  0.00    +0.032 C 
ATOM     18  C   UNL     1     -11.859  13.059  68.637  0.00  0.00    -0.007 A 
ATOM     19  C   UNL     1     -11.755  13.842  67.495  0.00  0.00    +0.064 A 
ATOM     20  C   UNL     1     -11.815  13.260  66.235  0.00  0.00    -0.007 A 
ATOM     21  C   UNL     1     -12.479  14.013  65.141  0.00  0.00    +0.032 C 
ATOM     22  C   UNL     1     -11.485  11.919  66.141  0.00  0.00    -0.003 A 
ATOM     23  C   UNL     1     -11.257  11.153  67.272  0.00  0.00    +0.000 A 
ATOM     24  C   UNL     1     -11.698  11.687  68.476  0.00  0.00    -0.003 A 
BRANCH  23  25
ATOM     25  C   UNL     1     -10.378   9.978  67.260  0.00  0.00    +0.011 C 
ATOM     26  C   UNL     1      -9.750   9.565  68.348  0.00  0.00    +0.078 C 
BRANCH  26  27
ATOM     27  C   UNL     1      -8.544   8.779  68.244  0.00  0.00    +0.101 C 
ATOM     28  N   UNL     1      -7.679   8.034  68.123  0.00  0.00    -0.191 NA
ENDBRANCH  26  27
ENDBRANCH  23  25
ENDBRANCH  16  19
ENDBRANCH   1  16
TORSDOF 6
ENDMDL
