MODEL 1
REMARK VINA RESULT:      -3.9      0.000      0.000
REMARK  Name = 
REMARK  5 active torsions:
REMARK  status: ('A' for Active; 'I' for Inactive)
REMARK    1  A    between atoms: CE_2  and  CD_3
REMARK    2  A    between atoms: CD_3  and  CG_4
REMARK    3  A    between atoms: CG_4  and  CB_5
REMARK    4  A    between atoms: CB_5  and  CA_6
REMARK    5  A    between atoms: CA_6  and  C_8
REMARK                            x       y       z     vdW  Elec       q    Type
REMARK                         _______ _______ _______ _____ _____    ______ ____
ROOT
ATOM      1  CB  LYS A   1     -11.200  14.585  66.717  0.00  0.00    +0.031 C 
ENDROOT
BRANCH   1   2
ATOM      2  CA  LYS A   1     -10.171  14.937  65.468  0.00  0.00    +0.194 C 
ATOM      3  N   LYS A   1      -8.966  15.219  66.458  0.00  0.00    -0.121 NA
BRANCH   2   4
ATOM      4  C   LYS A   1     -10.579  16.506  65.417  0.00  0.00    +0.382 C 
ATOM      5  OXT LYS A   1     -11.298  16.799  64.250  0.00  0.00    -0.244 OA
ATOM      6  O   LYS A   1      -9.687  17.325  65.670  0.00  0.00    -0.244 OA
ENDBRANCH   2   4
ENDBRANCH   1   2
BRANCH   1   7
ATOM      7  CG  LYS A   1     -12.258  13.781  65.968  0.00  0.00    +0.004 C 
BRANCH   7   8
ATOM      8  CD  LYS A   1     -11.548  12.679  65.226  0.00  0.00    +0.021 C 
BRANCH   8  10
ATOM      9  NZ  LYS A   1     -12.599  13.468  63.253  0.00  0.00    -0.131 NA
ATOM     10  CE  LYS A   1     -12.330  12.383  63.981  0.00  0.00    +0.109 C 
ENDBRANCH   8  10
ENDBRANCH   7   8
ENDBRANCH   1   7
TORSDOF 5
ENDMDL
MODEL 2
REMARK VINA RESULT:      -3.9      2.129      2.762
REMARK  Name = 
REMARK  5 active torsions:
REMARK  status: ('A' for Active; 'I' for Inactive)
REMARK    1  A    between atoms: CE_2  and  CD_3
REMARK    2  A    between atoms: CD_3  and  CG_4
REMARK    3  A    between atoms: CG_4  and  CB_5
REMARK    4  A    between atoms: CB_5  and  CA_6
REMARK    5  A    between atoms: CA_6  and  C_8
REMARK                            x       y       z     vdW  Elec       q    Type
REMARK                         _______ _______ _______ _____ _____    ______ ____
ROOT
ATOM      1  CB  LYS A   1     -10.576  13.530  64.585  0.00  0.00    +0.031 C 
ENDROOT
BRANCH   1   2
ATOM      2  CA  LYS A   1     -11.759  14.426  65.321  0.00  0.00    +0.194 C 
ATOM      3  N   LYS A   1     -12.582  14.561  63.973  0.00  0.00    -0.121 NA
BRANCH   2   4
ATOM      4  C   LYS A   1     -11.005  15.841  65.076  0.00  0.00    +0.382 C 
ATOM      5  OXT LYS A   1     -11.541  16.509  63.965  0.00  0.00    -0.244 OA
ATOM      6  O   LYS A   1      -9.769  15.828  65.100  0.00  0.00    -0.244 OA
ENDBRANCH   2   4
ENDBRANCH   1   2
BRANCH   1   7
ATOM      7  CG  LYS A   1     -11.437  12.628  63.707  0.00  0.00    +0.004 C 
BRANCH   7   8
ATOM      8  CD  LYS A   1     -10.873  11.234  63.799  0.00  0.00    +0.021 C 
BRANCH   8  10
ATOM      9  NZ  LYS A   1      -9.417  10.034  62.365  0.00  0.00    -0.131 NA
ATOM     10  CE  LYS A   1      -9.609  11.194  62.992  0.00  0.00    +0.109 C 
ENDBRANCH   8  10
ENDBRANCH   7   8
ENDBRANCH   1   7
TORSDOF 5
ENDMDL
MODEL 3
REMARK VINA RESULT:      -3.9      2.807      4.532
REMARK  Name = 
REMARK  5 active torsions:
REMARK  status: ('A' for Active; 'I' for Inactive)
REMARK    1  A    between atoms: CE_2  and  CD_3
REMARK    2  A    between atoms: CD_3  and  CG_4
REMARK    3  A    between atoms: CG_4  and  CB_5
REMARK    4  A    between atoms: CB_5  and  CA_6
REMARK    5  A    between atoms: CA_6  and  C_8
REMARK                            x       y       z     vdW  Elec       q    Type
REMARK                         _______ _______ _______ _____ _____    ______ ____
ROOT
ATOM      1  CB  LYS A   1     -11.218  15.227  66.357  0.00  0.00    +0.031 C 
ENDROOT
BRANCH   1   2
ATOM      2  CA  LYS A   1     -10.887  15.061  64.743  0.00  0.00    +0.194 C 
ATOM      3  N   LYS A   1     -11.241  16.578  64.451  0.00  0.00    -0.121 NA
BRANCH   2   4
ATOM      4  C   LYS A   1     -12.387  14.573  64.365  0.00  0.00    +0.382 C 
ATOM      5  OXT LYS A   1     -13.048  14.065  65.493  0.00  0.00    -0.244 OA
ATOM      6  O   LYS A   1     -12.508  13.866  63.358  0.00  0.00    -0.244 OA
ENDBRANCH   2   4
ENDBRANCH   1   2
BRANCH   1   7
ATOM      7  CG  LYS A   1     -10.226  16.329  66.717  0.00  0.00    +0.004 C 
BRANCH   7   8
ATOM      8  CD  LYS A   1     -10.643  16.896  68.049  0.00  0.00    +0.021 C 
BRANCH   8  10
ATOM      9  NZ  LYS A   1     -10.937  19.162  67.420  0.00  0.00    -0.131 NA
ATOM     10  CE  LYS A   1     -10.172  18.319  68.113  0.00  0.00    +0.109 C 
ENDBRANCH   8  10
ENDBRANCH   7   8
ENDBRANCH   1   7
TORSDOF 5
ENDMDL
MODEL 4
REMARK VINA RESULT:      -3.9      6.161      7.218
REMARK  Name = 
REMARK  5 active torsions:
REMARK  status: ('A' for Active; 'I' for Inactive)
REMARK    1  A    between atoms: CE_2  and  CD_3
REMARK    2  A    between atoms: CD_3  and  CG_4
REMARK    3  A    between atoms: CG_4  and  CB_5
REMARK    4  A    between atoms: CB_5  and  CA_6
REMARK    5  A    between atoms: CA_6  and  C_8
REMARK                            x       y       z     vdW  Elec       q    Type
REMARK                         _______ _______ _______ _____ _____    ______ ____
ROOT
ATOM      1  CB  LYS A   1     -11.985  14.839  71.734  0.00  0.00    +0.031 C 
ENDROOT
BRANCH   1   2
ATOM      2  CA  LYS A   1     -13.242  14.664  72.799  0.00  0.00    +0.194 C 
ATOM      3  N   LYS A   1     -14.192  15.584  71.925  0.00  0.00    -0.121 NA
BRANCH   2   4
ATOM      4  C   LYS A   1     -12.783  15.912  73.728  0.00  0.00    +0.382 C 
ATOM      5  OXT LYS A   1     -11.888  16.745  73.042  0.00  0.00    -0.244 OA
ATOM      6  O   LYS A   1     -12.431  15.650  74.884  0.00  0.00    -0.244 OA
ENDBRANCH   2   4
ENDBRANCH   1   2
BRANCH   1   7
ATOM      7  CG  LYS A   1     -12.489  13.968  70.587  0.00  0.00    +0.004 C 
BRANCH   7   8
ATOM      8  CD  LYS A   1     -11.811  14.441  69.328  0.00  0.00    +0.021 C 
BRANCH   8  10
ATOM      9  NZ  LYS A   1     -11.400  16.686  68.689  0.00  0.00    -0.131 NA
ATOM     10  CE  LYS A   1     -11.164  15.762  69.620  0.00  0.00    +0.109 C 
ENDBRANCH   8  10
ENDBRANCH   7   8
ENDBRANCH   1   7
TORSDOF 5
ENDMDL
MODEL 5
REMARK VINA RESULT:      -3.9      5.974      6.598
REMARK  Name = 
REMARK  5 active torsions:
REMARK  status: ('A' for Active; 'I' for Inactive)
REMARK    1  A    between atoms: CE_2  and  CD_3
REMARK    2  A    between atoms: CD_3  and  CG_4
REMARK    3  A    between atoms: CG_4  and  CB_5
REMARK    4  A    between atoms: CB_5  and  CA_6
REMARK    5  A    between atoms: CA_6  and  C_8
REMARK                            x       y       z     vdW  Elec       q    Type
REMARK                         _______ _______ _______ _____ _____    ______ ____
ROOT
ATOM      1  CB  LYS A   1     -12.911  14.577  70.723  0.00  0.00    +0.031 C 
ENDROOT
BRANCH   1   2
ATOM      2  CA  LYS A   1     -12.730  14.331  72.351  0.00  0.00    +0.194 C 
ATOM      3  N   LYS A   1     -14.153  13.643  72.468  0.00  0.00    -0.121 NA
BRANCH   2   4
ATOM      4  C   LYS A   1     -13.329  15.783  72.757  0.00  0.00    +0.382 C 
ATOM      5  OXT LYS A   1     -13.029  16.093  74.092  0.00  0.00    -0.244 OA
ATOM      6  O   LYS A   1     -14.504  16.011  72.446  0.00  0.00    -0.244 OA
ENDBRANCH   2   4
ENDBRANCH   1   2
BRANCH   1   7
ATOM      7  CG  LYS A   1     -11.981  13.493  70.188  0.00  0.00    +0.004 C 
BRANCH   7   8
ATOM      8  CD  LYS A   1     -11.954  13.621  68.687  0.00  0.00    +0.021 C 
BRANCH   8  10
ATOM      9  NZ  LYS A   1     -11.963  12.156  66.824  0.00  0.00    -0.131 NA
ATOM     10  CE  LYS A   1     -11.648  12.268  68.114  0.00  0.00    +0.109 C 
ENDBRANCH   8  10
ENDBRANCH   7   8
ENDBRANCH   1   7
TORSDOF 5
ENDMDL
MODEL 6
REMARK VINA RESULT:      -3.9      6.760      7.530
REMARK  Name = 
REMARK  5 active torsions:
REMARK  status: ('A' for Active; 'I' for Inactive)
REMARK    1  A    between atoms: CE_2  and  CD_3
REMARK    2  A    between atoms: CD_3  and  CG_4
REMARK    3  A    between atoms: CG_4  and  CB_5
REMARK    4  A    between atoms: CB_5  and  CA_6
REMARK    5  A    between atoms: CA_6  and  C_8
REMARK                            x       y       z     vdW  Elec       q    Type
REMARK                         _______ _______ _______ _____ _____    ______ ____
ROOT
ATOM      1  CB  LYS A   1     -12.642  14.798  71.191  0.00  0.00    +0.031 C 
ENDROOT
BRANCH   1   2
ATOM      2  CA  LYS A   1     -13.666  14.702  72.489  0.00  0.00    +0.194 C 
ATOM      3  N   LYS A   1     -14.731  15.651  71.798  0.00  0.00    -0.121 NA
BRANCH   2   4
ATOM      4  C   LYS A   1     -12.977  15.942  73.275  0.00  0.00    +0.382 C 
ATOM      5  OXT LYS A   1     -11.891  16.453  72.550  0.00  0.00    -0.244 OA
ATOM      6  O   LYS A   1     -12.740  15.780  74.478  0.00  0.00    -0.244 OA
ENDBRANCH   2   4
ENDBRANCH   1   2
BRANCH   1   7
ATOM      7  CG  LYS A   1     -12.470  13.315  70.880  0.00  0.00    +0.004 C 
BRANCH   7   8
ATOM      8  CD  LYS A   1     -13.215  12.542  71.937  0.00  0.00    +0.021 C 
BRANCH   8  10
ATOM      9  NZ  LYS A   1     -12.204  10.837  70.637  0.00  0.00    -0.131 NA
ATOM     10  CE  LYS A   1     -13.025  11.080  71.659  0.00  0.00    +0.109 C 
ENDBRANCH   8  10
ENDBRANCH   7   8
ENDBRANCH   1   7
TORSDOF 5
ENDMDL
MODEL 7
REMARK VINA RESULT:      -3.9      2.228      3.171
REMARK  Name = 
REMARK  5 active torsions:
REMARK  status: ('A' for Active; 'I' for Inactive)
REMARK    1  A    between atoms: CE_2  and  CD_3
REMARK    2  A    between atoms: CD_3  and  CG_4
REMARK    3  A    between atoms: CG_4  and  CB_5
REMARK    4  A    between atoms: CB_5  and  CA_6
REMARK    5  A    between atoms: CA_6  and  C_8
REMARK                            x       y       z     vdW  Elec       q    Type
REMARK                         _______ _______ _______ _____ _____    ______ ____
ROOT
ATOM      1  CB  LYS A   1     -10.786  13.473  65.215  0.00  0.00    +0.031 C 
ENDROOT
BRANCH   1   2
ATOM      2  CA  LYS A   1     -11.972  14.629  65.252  0.00  0.00    +0.194 C 
ATOM      3  N   LYS A   1     -12.553  14.166  63.852  0.00  0.00    -0.121 NA
BRANCH   2   4
ATOM      4  C   LYS A   1     -11.047  15.769  64.563  0.00  0.00    +0.382 C 
ATOM      5  OXT LYS A   1     -10.079  16.239  65.461  0.00  0.00    -0.244 OA
ATOM      6  O   LYS A   1     -11.632  16.667  63.947  0.00  0.00    -0.244 OA
ENDBRANCH   2   4
ENDBRANCH   1   2
BRANCH   1   7
ATOM      7  CG  LYS A   1     -11.359  12.475  66.217  0.00  0.00    +0.004 C 
BRANCH   7   8
ATOM      8  CD  LYS A   1     -11.393  13.154  67.562  0.00  0.00    +0.021 C 
BRANCH   8  10
ATOM      9  NZ  LYS A   1     -11.799  10.885  68.115  0.00  0.00    -0.131 NA
ATOM     10  CE  LYS A   1     -11.796  12.133  68.584  0.00  0.00    +0.109 C 
ENDBRANCH   8  10
ENDBRANCH   7   8
ENDBRANCH   1   7
TORSDOF 5
ENDMDL
MODEL 8
REMARK VINA RESULT:      -3.8      3.234      4.509
REMARK  Name = 
REMARK  5 active torsions:
REMARK  status: ('A' for Active; 'I' for Inactive)
REMARK    1  A    between atoms: CE_2  and  CD_3
REMARK    2  A    between atoms: CD_3  and  CG_4
REMARK    3  A    between atoms: CG_4  and  CB_5
REMARK    4  A    between atoms: CB_5  and  CA_6
REMARK    5  A    between atoms: CA_6  and  C_8
REMARK                            x       y       z     vdW  Elec       q    Type
REMARK                         _______ _______ _______ _____ _____    ______ ____
ROOT
ATOM      1  CB  LYS A   1     -11.937  12.960  65.790  0.00  0.00    +0.031 C 
ENDROOT
BRANCH   1   2
ATOM      2  CA  LYS A   1     -11.224  13.521  64.404  0.00  0.00    +0.194 C 
ATOM      3  N   LYS A   1     -12.485  14.412  64.043  0.00  0.00    -0.121 NA
BRANCH   2   4
ATOM      4  C   LYS A   1     -11.755  12.289  63.491  0.00  0.00    +0.382 C 
ATOM      5  OXT LYS A   1     -13.144  12.138  63.613  0.00  0.00    -0.244 OA
ATOM      6  O   LYS A   1     -11.130  11.225  63.570  0.00  0.00    -0.244 OA
ENDBRANCH   2   4
ENDBRANCH   1   2
BRANCH   1   7
ATOM      7  CG  LYS A   1     -12.289  14.284  66.460  0.00  0.00    +0.004 C 
BRANCH   7   8
ATOM      8  CD  LYS A   1     -11.818  14.208  67.889  0.00  0.00    +0.021 C 
BRANCH   8  10
ATOM      9  NZ  LYS A   1     -12.001  16.065  69.351  0.00  0.00    -0.131 NA
ATOM     10  CE  LYS A   1     -11.352  15.575  68.295  0.00  0.00    +0.109 C 
ENDBRANCH   8  10
ENDBRANCH   7   8
ENDBRANCH   1   7
TORSDOF 5
ENDMDL
MODEL 9
REMARK VINA RESULT:      -3.8      5.672      6.205
REMARK  Name = 
REMARK  5 active torsions:
REMARK  status: ('A' for Active; 'I' for Inactive)
REMARK    1  A    between atoms: CE_2  and  CD_3
REMARK    2  A    between atoms: CD_3  and  CG_4
REMARK    3  A    between atoms: CG_4  and  CB_5
REMARK    4  A    between atoms: CB_5  and  CA_6
REMARK    5  A    between atoms: CA_6  and  C_8
REMARK                            x       y       z     vdW  Elec       q    Type
REMARK                         _______ _______ _______ _____ _____    ______ ____
ROOT
ATOM      1  CB  LYS A   1     -12.409  14.019  71.038  0.00  0.00    +0.031 C 
ENDROOT
BRANCH   1   2
ATOM      2  CA  LYS A   1     -12.807  15.610  71.271  0.00  0.00    +0.194 C 
ATOM      3  N   LYS A   1     -11.977  15.684  72.620  0.00  0.00    -0.121 NA
BRANCH   2   4
ATOM      4  C   LYS A   1     -14.183  15.273  72.062  0.00  0.00    +0.382 C 
ATOM      5  OXT LYS A   1     -14.138  13.986  72.617  0.00  0.00    -0.244 OA
ATOM      6  O   LYS A   1     -15.241  15.525  71.475  0.00  0.00    -0.244 OA
ENDBRANCH   2   4
ENDBRANCH   1   2
BRANCH   1   7
ATOM      7  CG  LYS A   1     -12.001  14.063  69.568  0.00  0.00    +0.004 C 
BRANCH   7   8
ATOM      8  CD  LYS A   1     -11.605  12.666  69.167  0.00  0.00    +0.021 C 
BRANCH   8  10
ATOM      9  NZ  LYS A   1     -11.726  11.314  67.224  0.00  0.00    -0.131 NA
ATOM     10  CE  LYS A   1     -11.703  12.569  67.673  0.00  0.00    +0.109 C 
ENDBRANCH   8  10
ENDBRANCH   7   8
ENDBRANCH   1   7
TORSDOF 5
ENDMDL
