MODEL 1
REMARK VINA RESULT:      -6.9      0.000      0.000
REMARK  Name = 
REMARK  4 active torsions:
REMARK  status: ('A' for Active; 'I' for Inactive)
REMARK    1  A    between atoms: C_2  and  C_4
REMARK    2  A    between atoms: C_4  and  C_5
REMARK    3  A    between atoms: C_5  and  C_6
REMARK    4  A    between atoms: C_5  and  C_12
REMARK                            x       y       z     vdW  Elec       q    Type
REMARK                         _______ _______ _______ _____ _____    ______ ____
ROOT
ATOM      1  C   UNL     1     -11.414  14.781  68.498  0.00  0.00    +0.097 A 
ATOM      2  C   UNL     1     -11.335  16.067  68.842  0.00  0.00    +0.345 A 
ATOM      3  O   UNL     1     -11.224  16.906  67.915  0.00  0.00    -0.245 OA
ATOM      4  O   UNL     1     -11.550  16.407  70.103  0.00  0.00    -0.421 OA
ATOM      5  C   UNL     1     -11.985  15.568  70.995  0.00  0.00    +0.152 A 
ATOM      6  C   UNL     1     -12.185  14.236  70.651  0.00  0.00    +0.073 A 
ATOM      7  C   UNL     1     -13.070  13.488  71.414  0.00  0.00    +0.006 A 
ATOM      8  C   UNL     1     -13.914  14.086  72.344  0.00  0.00    +0.000 A 
ATOM      9  C   UNL     1     -13.483  15.308  72.846  0.00  0.00    +0.003 A 
ATOM     10  C   UNL     1     -12.465  15.990  72.220  0.00  0.00    +0.038 A 
ATOM     11  C   UNL     1     -11.733  13.806  69.409  0.00  0.00    +0.201 A 
ATOM     12  O   UNL     1     -11.699  12.455  69.170  0.00  0.00    -0.287 OA
ENDROOT
BRANCH   1  13
ATOM     13  C   UNL     1     -10.723  14.250  67.129  0.00  0.00    +0.061 C 
BRANCH  13  14
ATOM     14  C   UNL     1      -9.600  13.337  67.889  0.00  0.00    -0.018 A 
ATOM     15  C   UNL     1      -8.444  14.026  68.238  0.00  0.00    -0.004 A 
ATOM     16  C   UNL     1      -7.216  13.391  68.315  0.00  0.00    -0.000 A 
ATOM     17  C   UNL     1      -6.972  12.427  67.377  0.00  0.00    -0.000 A 
ATOM     18  C   UNL     1      -8.035  11.842  66.746  0.00  0.00    -0.000 A 
ATOM     19  C   UNL     1      -9.305  12.289  67.014  0.00  0.00    -0.004 A 
ENDBRANCH  13  14
BRANCH  13  20
ATOM     20  C   UNL     1     -11.746  12.952  66.930  0.00  0.00    +0.074 C 
BRANCH  20  22
ATOM     21  C   UNL     1     -11.809  12.569  64.424  0.00  0.00    +0.072 C 
ATOM     22  C   UNL     1     -12.429  13.166  65.653  0.00  0.00    +0.152 C 
ATOM     23  O   UNL     1     -13.173  14.114  65.406  0.00  0.00    -0.296 OA
ENDBRANCH  20  22
ENDBRANCH  13  20
ENDBRANCH   1  13
TORSDOF 4
ENDMDL
MODEL 2
REMARK VINA RESULT:      -6.8      3.379      6.016
REMARK  Name = 
REMARK  4 active torsions:
REMARK  status: ('A' for Active; 'I' for Inactive)
REMARK    1  A    between atoms: C_2  and  C_4
REMARK    2  A    between atoms: C_4  and  C_5
REMARK    3  A    between atoms: C_5  and  C_6
REMARK    4  A    between atoms: C_5  and  C_12
REMARK                            x       y       z     vdW  Elec       q    Type
REMARK                         _______ _______ _______ _____ _____    ______ ____
ROOT
ATOM      1  C   UNL     1      -9.715  17.216  68.310  0.00  0.00    +0.097 A 
ATOM      2  C   UNL     1      -8.620  16.653  68.820  0.00  0.00    +0.345 A 
ATOM      3  O   UNL     1      -8.582  15.399  68.862  0.00  0.00    -0.245 OA
ATOM      4  O   UNL     1      -7.574  17.418  69.091  0.00  0.00    -0.421 OA
ATOM      5  C   UNL     1      -7.505  18.668  68.742  0.00  0.00    +0.152 A 
ATOM      6  C   UNL     1      -8.586  19.268  68.109  0.00  0.00    +0.073 A 
ATOM      7  C   UNL     1      -8.349  20.393  67.332  0.00  0.00    +0.006 A 
ATOM      8  C   UNL     1      -7.058  20.783  66.992  0.00  0.00    +0.000 A 
ATOM      9  C   UNL     1      -6.056  20.358  67.857  0.00  0.00    +0.003 A 
ATOM     10  C   UNL     1      -6.316  19.371  68.780  0.00  0.00    +0.038 A 
ATOM     11  C   UNL     1      -9.780  18.559  68.037  0.00  0.00    +0.201 A 
ATOM     12  O   UNL     1     -10.908  19.236  67.646  0.00  0.00    -0.287 OA
ENDROOT
BRANCH   1  13
ATOM     13  C   UNL     1     -11.148  16.458  68.394  0.00  0.00    +0.061 C 
BRANCH  13  14
ATOM     14  C   UNL     1     -10.732  15.267  67.354  0.00  0.00    -0.018 A 
ATOM     15  C   UNL     1     -10.601  15.680  66.033  0.00  0.00    -0.004 A 
ATOM     16  C   UNL     1     -10.851  14.822  64.976  0.00  0.00    -0.000 A 
ATOM     17  C   UNL     1     -11.890  13.948  65.137  0.00  0.00    -0.000 A 
ATOM     18  C   UNL     1     -12.308  13.652  66.405  0.00  0.00    -0.000 A 
ATOM     19  C   UNL     1     -11.727  14.294  67.471  0.00  0.00    -0.004 A 
ENDBRANCH  13  14
BRANCH  13  20
ATOM     20  C   UNL     1     -10.759  15.532  69.721  0.00  0.00    +0.074 C 
BRANCH  20  22
ATOM     21  C   UNL     1     -11.588  15.268  72.104  0.00  0.00    +0.072 C 
ATOM     22  C   UNL     1     -11.805  15.787  70.713  0.00  0.00    +0.152 C 
ATOM     23  O   UNL     1     -12.992  15.974  70.449  0.00  0.00    -0.296 OA
ENDBRANCH  20  22
ENDBRANCH  13  20
ENDBRANCH   1  13
TORSDOF 4
ENDMDL
MODEL 3
REMARK VINA RESULT:      -6.8      1.602      3.277
REMARK  Name = 
REMARK  4 active torsions:
REMARK  status: ('A' for Active; 'I' for Inactive)
REMARK    1  A    between atoms: C_2  and  C_4
REMARK    2  A    between atoms: C_4  and  C_5
REMARK    3  A    between atoms: C_5  and  C_6
REMARK    4  A    between atoms: C_5  and  C_12
REMARK                            x       y       z     vdW  Elec       q    Type
REMARK                         _______ _______ _______ _____ _____    ______ ____
ROOT
ATOM      1  C   UNL     1     -11.231  14.854  68.689  0.00  0.00    +0.097 A 
ATOM      2  C   UNL     1     -11.286  16.141  69.031  0.00  0.00    +0.345 A 
ATOM      3  O   UNL     1     -11.176  16.987  68.111  0.00  0.00    -0.245 OA
ATOM      4  O   UNL     1     -11.622  16.460  70.271  0.00  0.00    -0.421 OA
ATOM      5  C   UNL     1     -12.051  15.587  71.132  0.00  0.00    +0.152 A 
ATOM      6  C   UNL     1     -12.112  14.244  70.782  0.00  0.00    +0.073 A 
ATOM      7  C   UNL     1     -12.987  13.424  71.480  0.00  0.00    +0.006 A 
ATOM      8  C   UNL     1     -13.945  13.948  72.341  0.00  0.00    +0.000 A 
ATOM      9  C   UNL     1     -13.656  15.201  72.868  0.00  0.00    +0.003 A 
ATOM     10  C   UNL     1     -12.654  15.966  72.316  0.00  0.00    +0.038 A 
ATOM     11  C   UNL     1     -11.535  13.854  69.578  0.00  0.00    +0.201 A 
ATOM     12  O   UNL     1     -11.371  12.511  69.349  0.00  0.00    -0.287 OA
ENDROOT
BRANCH   1  13
ATOM     13  C   UNL     1     -10.398  14.383  67.378  0.00  0.00    +0.061 C 
BRANCH  13  14
ATOM     14  C   UNL     1     -11.727  14.061  66.482  0.00  0.00    -0.018 A 
ATOM     15  C   UNL     1     -11.820  12.743  66.049  0.00  0.00    -0.004 A 
ATOM     16  C   UNL     1     -12.460  12.410  64.868  0.00  0.00    -0.000 A 
ATOM     17  C   UNL     1     -12.300  13.281  63.825  0.00  0.00    -0.000 A 
ATOM     18  C   UNL     1     -11.938  14.571  64.097  0.00  0.00    -0.000 A 
ATOM     19  C   UNL     1     -11.674  14.936  65.394  0.00  0.00    -0.004 A 
ENDBRANCH  13  14
BRANCH  13  20
ATOM     20  C   UNL     1     -10.246  15.910  66.732  0.00  0.00    +0.074 C 
BRANCH  20  22
ATOM     21  C   UNL     1      -7.826  15.232  67.078  0.00  0.00    +0.072 C 
ATOM     22  C   UNL     1      -8.844  16.041  66.330  0.00  0.00    +0.152 C 
ATOM     23  O   UNL     1      -8.363  17.029  65.777  0.00  0.00    -0.296 OA
ENDBRANCH  20  22
ENDBRANCH  13  20
ENDBRANCH   1  13
TORSDOF 4
ENDMDL
MODEL 4
REMARK VINA RESULT:      -6.6      2.457      5.256
REMARK  Name = 
REMARK  4 active torsions:
REMARK  status: ('A' for Active; 'I' for Inactive)
REMARK    1  A    between atoms: C_2  and  C_4
REMARK    2  A    between atoms: C_4  and  C_5
REMARK    3  A    between atoms: C_5  and  C_6
REMARK    4  A    between atoms: C_5  and  C_12
REMARK                            x       y       z     vdW  Elec       q    Type
REMARK                         _______ _______ _______ _____ _____    ______ ____
ROOT
ATOM      1  C   UNL     1      -9.928  15.621  68.866  0.00  0.00    +0.097 A 
ATOM      2  C   UNL     1      -8.625  15.787  69.094  0.00  0.00    +0.345 A 
ATOM      3  O   UNL     1      -7.924  14.753  69.216  0.00  0.00    -0.245 OA
ATOM      4  O   UNL     1      -8.111  17.003  69.008  0.00  0.00    -0.421 OA
ATOM      5  C   UNL     1      -8.782  18.023  68.563  0.00  0.00    +0.152 A 
ATOM      6  C   UNL     1     -10.117  17.870  68.211  0.00  0.00    +0.073 A 
ATOM      7  C   UNL     1     -10.668  18.778  67.318  0.00  0.00    +0.006 A 
ATOM      8  C   UNL     1      -9.874  19.672  66.608  0.00  0.00    +0.000 A 
ATOM      9  C   UNL     1      -8.651  19.982  67.190  0.00  0.00    +0.003 A 
ATOM     10  C   UNL     1      -8.163  19.210  68.220  0.00  0.00    +0.038 A 
ATOM     11  C   UNL     1     -10.744  16.669  68.524  0.00  0.00    +0.201 A 
ATOM     12  O   UNL     1     -12.110  16.608  68.411  0.00  0.00    -0.287 OA
ENDROOT
BRANCH   1  13
ATOM     13  C   UNL     1     -10.695  14.293  69.398  0.00  0.00    +0.061 C 
BRANCH  13  14
ATOM     14  C   UNL     1     -11.722  15.110  70.373  0.00  0.00    -0.018 A 
ATOM     15  C   UNL     1     -11.192  15.441  71.614  0.00  0.00    -0.004 A 
ATOM     16  C   UNL     1     -11.992  15.563  72.736  0.00  0.00    -0.000 A 
ATOM     17  C   UNL     1     -13.027  14.676  72.843  0.00  0.00    -0.000 A 
ATOM     18  C   UNL     1     -13.482  14.059  71.710  0.00  0.00    -0.000 A 
ATOM     19  C   UNL     1     -12.843  14.289  70.517  0.00  0.00    -0.004 A 
ENDBRANCH  13  14
BRANCH  13  20
ATOM     20  C   UNL     1     -11.801  14.242  68.156  0.00  0.00    +0.074 C 
BRANCH  20  22
ATOM     21  C   UNL     1     -10.670  13.349  66.068  0.00  0.00    +0.072 C 
ATOM     22  C   UNL     1     -11.434  13.088  67.333  0.00  0.00    +0.152 C 
ATOM     23  O   UNL     1     -12.039  12.017  67.318  0.00  0.00    -0.296 OA
ENDBRANCH  20  22
ENDBRANCH  13  20
ENDBRANCH   1  13
TORSDOF 4
ENDMDL
MODEL 5
REMARK VINA RESULT:      -6.6      3.369      4.624
REMARK  Name = 
REMARK  4 active torsions:
REMARK  status: ('A' for Active; 'I' for Inactive)
REMARK    1  A    between atoms: C_2  and  C_4
REMARK    2  A    between atoms: C_4  and  C_5
REMARK    3  A    between atoms: C_5  and  C_6
REMARK    4  A    between atoms: C_5  and  C_12
REMARK                            x       y       z     vdW  Elec       q    Type
REMARK                         _______ _______ _______ _____ _____    ______ ____
ROOT
ATOM      1  C   UNL     1     -10.460  15.466  65.400  0.00  0.00    +0.097 A 
ATOM      2  C   UNL     1     -11.257  16.267  64.694  0.00  0.00    +0.345 A 
ATOM      3  O   UNL     1     -12.202  15.731  64.064  0.00  0.00    -0.245 OA
ATOM      4  O   UNL     1     -11.129  17.577  64.826  0.00  0.00    -0.421 OA
ATOM      5  C   UNL     1     -10.366  18.123  65.726  0.00  0.00    +0.152 A 
ATOM      6  C   UNL     1      -9.596  17.321  66.558  0.00  0.00    +0.073 A 
ATOM      7  C   UNL     1      -9.187  17.842  67.777  0.00  0.00    +0.006 A 
ATOM      8  C   UNL     1      -9.712  19.031  68.272  0.00  0.00    +0.000 A 
ATOM      9  C   UNL     1     -10.215  19.907  67.318  0.00  0.00    +0.003 A 
ATOM     10  C   UNL     1     -10.451  19.467  66.035  0.00  0.00    +0.038 A 
ATOM     11  C   UNL     1      -9.527  15.961  66.275  0.00  0.00    +0.201 A 
ATOM     12  O   UNL     1      -8.579  15.216  66.931  0.00  0.00    -0.287 OA
ENDROOT
BRANCH   1  13
ATOM     13  C   UNL     1     -10.239  13.921  64.955  0.00  0.00    +0.061 C 
BRANCH  13  14
ATOM     14  C   UNL     1     -10.080  13.361  66.483  0.00  0.00    -0.018 A 
ATOM     15  C   UNL     1      -9.384  12.162  66.583  0.00  0.00    -0.004 A 
ATOM     16  C   UNL     1      -9.640  11.256  67.598  0.00  0.00    -0.000 A 
ATOM     17  C   UNL     1     -10.948  11.121  67.973  0.00  0.00    -0.000 A 
ATOM     18  C   UNL     1     -11.821  12.134  67.689  0.00  0.00    -0.000 A 
ATOM     19  C   UNL     1     -11.380  13.220  66.973  0.00  0.00    -0.004 A 
ENDBRANCH  13  14
BRANCH  13  20
ATOM     20  C   UNL     1     -11.858  13.538  64.907  0.00  0.00    +0.074 C 
BRANCH  20  22
ATOM     21  C   UNL     1     -10.737  11.950  63.277  0.00  0.00    +0.072 C 
ATOM     22  C   UNL     1     -11.983  12.425  63.964  0.00  0.00    +0.152 C 
ATOM     23  O   UNL     1     -13.011  12.138  63.351  0.00  0.00    -0.296 OA
ENDBRANCH  20  22
ENDBRANCH  13  20
ENDBRANCH   1  13
TORSDOF 4
ENDMDL
MODEL 6
REMARK VINA RESULT:      -6.6      2.941      5.943
REMARK  Name = 
REMARK  4 active torsions:
REMARK  status: ('A' for Active; 'I' for Inactive)
REMARK    1  A    between atoms: C_2  and  C_4
REMARK    2  A    between atoms: C_4  and  C_5
REMARK    3  A    between atoms: C_5  and  C_6
REMARK    4  A    between atoms: C_5  and  C_12
REMARK                            x       y       z     vdW  Elec       q    Type
REMARK                         _______ _______ _______ _____ _____    ______ ____
ROOT
ATOM      1  C   UNL     1      -9.790  15.271  66.245  0.00  0.00    +0.097 A 
ATOM      2  C   UNL     1     -10.668  15.820  65.405  0.00  0.00    +0.345 A 
ATOM      3  O   UNL     1     -10.567  17.053  65.190  0.00  0.00    -0.245 OA
ATOM      4  O   UNL     1     -11.476  15.029  64.718  0.00  0.00    -0.421 OA
ATOM      5  C   UNL     1     -11.353  13.736  64.704  0.00  0.00    +0.152 A 
ATOM      6  C   UNL     1     -10.378  13.126  65.484  0.00  0.00    +0.073 A 
ATOM      7  C   UNL     1      -9.938  11.863  65.115  0.00  0.00    +0.006 A 
ATOM      8  C   UNL     1     -10.274  11.307  63.885  0.00  0.00    +0.000 A 
ATOM      9  C   UNL     1     -11.439  11.793  63.305  0.00  0.00    +0.003 A 
ATOM     10  C   UNL     1     -12.014  12.950  63.779  0.00  0.00    +0.038 A 
ATOM     11  C   UNL     1      -9.685  13.912  66.398  0.00  0.00    +0.201 A 
ATOM     12  O   UNL     1      -8.910  13.276  67.336  0.00  0.00    -0.287 OA
ENDROOT
BRANCH   1  13
ATOM     13  C   UNL     1      -9.119  16.155  67.430  0.00  0.00    +0.061 C 
BRANCH  13  14
ATOM     14  C   UNL     1      -8.561  17.322  66.431  0.00  0.00    -0.018 A 
ATOM     15  C   UNL     1      -7.250  17.136  66.009  0.00  0.00    -0.004 A 
ATOM     16  C   UNL     1      -6.428  18.205  65.699  0.00  0.00    -0.000 A 
ATOM     17  C   UNL     1      -6.559  19.317  66.484  0.00  0.00    -0.000 A 
ATOM     18  C   UNL     1      -7.721  19.494  67.183  0.00  0.00    -0.000 A 
ATOM     19  C   UNL     1      -8.687  18.520  67.138  0.00  0.00    -0.004 A 
ENDBRANCH  13  14
BRANCH  13  20
ATOM     20  C   UNL     1     -10.498  17.017  67.784  0.00  0.00    +0.074 C 
BRANCH  20  22
ATOM     21  C   UNL     1     -10.154  15.551  69.825  0.00  0.00    +0.072 C 
ATOM     22  C   UNL     1     -11.061  16.403  68.988  0.00  0.00    +0.152 C 
ATOM     23  O   UNL     1     -12.253  16.143  69.150  0.00  0.00    -0.296 OA
ENDBRANCH  20  22
ENDBRANCH  13  20
ENDBRANCH   1  13
TORSDOF 4
ENDMDL
MODEL 7
REMARK VINA RESULT:      -6.6      3.553      5.772
REMARK  Name = 
REMARK  4 active torsions:
REMARK  status: ('A' for Active; 'I' for Inactive)
REMARK    1  A    between atoms: C_2  and  C_4
REMARK    2  A    between atoms: C_4  and  C_5
REMARK    3  A    between atoms: C_5  and  C_6
REMARK    4  A    between atoms: C_5  and  C_12
REMARK                            x       y       z     vdW  Elec       q    Type
REMARK                         _______ _______ _______ _____ _____    ______ ____
ROOT
ATOM      1  C   UNL     1     -10.652  15.527  66.058  0.00  0.00    +0.097 A 
ATOM      2  C   UNL     1     -11.261  15.865  64.922  0.00  0.00    +0.345 A 
ATOM      3  O   UNL     1     -11.118  17.046  64.520  0.00  0.00    -0.245 OA
ATOM      4  O   UNL     1     -11.831  14.918  64.195  0.00  0.00    -0.421 OA
ATOM      5  C   UNL     1     -11.695  13.652  64.455  0.00  0.00    +0.152 A 
ATOM      6  C   UNL     1     -10.975  13.250  65.572  0.00  0.00    +0.073 A 
ATOM      7  C   UNL     1     -10.434  11.972  65.579  0.00  0.00    +0.006 A 
ATOM      8  C   UNL     1     -10.399  11.191  64.429  0.00  0.00    +0.000 A 
ATOM      9  C   UNL     1     -11.357  11.494  63.469  0.00  0.00    +0.003 A 
ATOM     10  C   UNL     1     -12.056  12.678  63.544  0.00  0.00    +0.038 A 
ATOM     11  C   UNL     1     -10.579  14.224  66.482  0.00  0.00    +0.201 A 
ATOM     12  O   UNL     1     -10.096  13.811  67.698  0.00  0.00    -0.287 OA
ENDROOT
BRANCH   1  13
ATOM     13  C   UNL     1     -10.356  16.643  67.199  0.00  0.00    +0.061 C 
BRANCH  13  14
ATOM     14  C   UNL     1      -8.818  16.157  67.469  0.00  0.00    -0.018 A 
ATOM     15  C   UNL     1      -8.246  16.681  68.622  0.00  0.00    -0.004 A 
ATOM     16  C   UNL     1      -6.883  16.900  68.721  0.00  0.00    -0.000 A 
ATOM     17  C   UNL     1      -6.257  17.348  67.591  0.00  0.00    -0.000 A 
ATOM     18  C   UNL     1      -6.854  17.132  66.380  0.00  0.00    -0.000 A 
ATOM     19  C   UNL     1      -8.094  16.543  66.338  0.00  0.00    -0.004 A 
ENDBRANCH  13  14
BRANCH  13  20
ATOM     20  C   UNL     1      -9.871  17.829  66.138  0.00  0.00    +0.074 C 
BRANCH  20  22
ATOM     21  C   UNL     1      -9.089  20.058  67.062  0.00  0.00    +0.072 C 
ATOM     22  C   UNL     1     -10.210  19.104  66.772  0.00  0.00    +0.152 C 
ATOM     23  O   UNL     1     -11.199  19.295  67.479  0.00  0.00    -0.296 OA
ENDBRANCH  20  22
ENDBRANCH  13  20
ENDBRANCH   1  13
TORSDOF 4
ENDMDL
MODEL 8
REMARK VINA RESULT:      -6.5      2.518      5.353
REMARK  Name = 
REMARK  4 active torsions:
REMARK  status: ('A' for Active; 'I' for Inactive)
REMARK    1  A    between atoms: C_2  and  C_4
REMARK    2  A    between atoms: C_4  and  C_5
REMARK    3  A    between atoms: C_5  and  C_6
REMARK    4  A    between atoms: C_5  and  C_12
REMARK                            x       y       z     vdW  Elec       q    Type
REMARK                         _______ _______ _______ _____ _____    ______ ____
ROOT
ATOM      1  C   UNL     1     -10.122  15.781  69.062  0.00  0.00    +0.097 A 
ATOM      2  C   UNL     1     -10.885  16.632  68.376  0.00  0.00    +0.345 A 
ATOM      3  O   UNL     1     -12.123  16.587  68.577  0.00  0.00    -0.245 OA
ATOM      4  O   UNL     1     -10.302  17.583  67.664  0.00  0.00    -0.421 OA
ATOM      5  C   UNL     1      -9.026  17.824  67.720  0.00  0.00    +0.152 A 
ATOM      6  C   UNL     1      -8.207  17.026  68.508  0.00  0.00    +0.073 A 
ATOM      7  C   UNL     1      -6.998  17.553  68.941  0.00  0.00    +0.006 A 
ATOM      8  C   UNL     1      -6.703  18.905  68.801  0.00  0.00    +0.000 A 
ATOM      9  C   UNL     1      -7.382  19.565  67.784  0.00  0.00    +0.003 A 
ATOM     10  C   UNL     1      -8.479  18.979  67.195  0.00  0.00    +0.038 A 
ATOM     11  C   UNL     1      -8.754  15.876  69.067  0.00  0.00    +0.201 A 
ATOM     12  O   UNL     1      -7.896  14.964  69.629  0.00  0.00    -0.287 OA
ENDROOT
BRANCH   1  13
ATOM     13  C   UNL     1     -10.717  14.353  69.555  0.00  0.00    +0.061 C 
BRANCH  13  14
ATOM     14  C   UNL     1     -11.870  15.011  70.511  0.00  0.00    -0.018 A 
ATOM     15  C   UNL     1     -11.396  15.512  71.718  0.00  0.00    -0.004 A 
ATOM     16  C   UNL     1     -12.187  15.542  72.853  0.00  0.00    -0.000 A 
ATOM     17  C   UNL     1     -13.024  14.477  73.036  0.00  0.00    -0.000 A 
ATOM     18  C   UNL     1     -13.367  13.717  71.952  0.00  0.00    -0.000 A 
ATOM     19  C   UNL     1     -12.805  13.997  70.731  0.00  0.00    -0.004 A 
ENDBRANCH  13  14
BRANCH  13  20
ATOM     20  C   UNL     1     -11.775  14.175  68.283  0.00  0.00    +0.074 C 
BRANCH  20  22
ATOM     21  C   UNL     1     -10.299  13.163  66.484  0.00  0.00    +0.072 C 
ATOM     22  C   UNL     1     -11.335  12.983  67.555  0.00  0.00    +0.152 C 
ATOM     23  O   UNL     1     -12.007  11.963  67.408  0.00  0.00    -0.296 OA
ENDBRANCH  20  22
ENDBRANCH  13  20
ENDBRANCH   1  13
TORSDOF 4
ENDMDL
MODEL 9
REMARK VINA RESULT:      -6.5      1.289      2.426
REMARK  Name = 
REMARK  4 active torsions:
REMARK  status: ('A' for Active; 'I' for Inactive)
REMARK    1  A    between atoms: C_2  and  C_4
REMARK    2  A    between atoms: C_4  and  C_5
REMARK    3  A    between atoms: C_5  and  C_6
REMARK    4  A    between atoms: C_5  and  C_12
REMARK                            x       y       z     vdW  Elec       q    Type
REMARK                         _______ _______ _______ _____ _____    ______ ____
ROOT
ATOM      1  C   UNL     1     -11.657  14.314  68.781  0.00  0.00    +0.097 A 
ATOM      2  C   UNL     1     -11.965  13.104  69.248  0.00  0.00    +0.345 A 
ATOM      3  O   UNL     1     -11.495  12.113  68.637  0.00  0.00    -0.245 OA
ATOM      4  O   UNL     1     -12.590  13.007  70.410  0.00  0.00    -0.421 OA
ATOM      5  C   UNL     1     -12.785  14.026  71.193  0.00  0.00    +0.152 A 
ATOM      6  C   UNL     1     -12.382  15.293  70.791  0.00  0.00    +0.073 A 
ATOM      7  C   UNL     1     -12.146  16.248  71.770  0.00  0.00    +0.006 A 
ATOM      8  C   UNL     1     -12.080  15.907  73.117  0.00  0.00    +0.000 A 
ATOM      9  C   UNL     1     -12.761  14.751  73.477  0.00  0.00    +0.003 A 
ATOM     10  C   UNL     1     -13.184  13.870  72.507  0.00  0.00    +0.038 A 
ATOM     11  C   UNL     1     -11.950  15.457  69.479  0.00  0.00    +0.201 A 
ATOM     12  O   UNL     1     -11.794  16.737  69.009  0.00  0.00    -0.287 OA
ENDROOT
BRANCH   1  13
ATOM     13  C   UNL     1     -11.330  14.531  67.205  0.00  0.00    +0.061 C 
BRANCH  13  14
ATOM     14  C   UNL     1      -9.725  14.262  67.361  0.00  0.00    -0.018 A 
ATOM     15  C   UNL     1      -9.209  14.585  68.611  0.00  0.00    -0.004 A 
ATOM     16  C   UNL     1      -7.899  15.000  68.770  0.00  0.00    -0.000 A 
ATOM     17  C   UNL     1      -7.394  15.804  67.785  0.00  0.00    -0.000 A 
ATOM     18  C   UNL     1      -7.988  15.785  66.554  0.00  0.00    -0.000 A 
ATOM     19  C   UNL     1      -9.114  15.022  66.362  0.00  0.00    -0.004 A 
ENDBRANCH  13  14
BRANCH  13  20
ATOM     20  C   UNL     1     -11.624  12.953  66.765  0.00  0.00    +0.074 C 
BRANCH  20  22
ATOM     21  C   UNL     1     -11.378  12.634  64.260  0.00  0.00    +0.072 C 
ATOM     22  C   UNL     1     -12.233  13.010  65.435  0.00  0.00    +0.152 C 
ATOM     23  O   UNL     1     -13.182  13.731  65.128  0.00  0.00    -0.296 OA
ENDBRANCH  20  22
ENDBRANCH  13  20
ENDBRANCH   1  13
TORSDOF 4
ENDMDL
