MODEL 1
REMARK VINA RESULT:      -4.3      0.000      0.000
REMARK  Name = 
REMARK  0 active torsions:
REMARK  status: ('A' for Active; 'I' for Inactive)
REMARK                            x       y       z     vdW  Elec       q    Type
REMARK                         _______ _______ _______ _____ _____    ______ ____
ROOT
ATOM      1 CL   UNL     1     -12.211  14.474  64.252  0.00  0.00    -0.112 Cl
ATOM      2  C   UNL     1     -10.795  13.450  64.882  0.00  0.00    +0.112 C 
ATOM      3  C   UNL     1     -10.745  12.276  63.751  0.00  0.00    +0.112 C 
ATOM      4 CL   UNL     1     -12.566  11.981  63.543  0.00  0.00    -0.112 Cl
ATOM      5  C   UNL     1     -10.552  10.956  64.687  0.00  0.00    +0.112 C 
ATOM      6 CL   UNL     1      -9.395  10.063  63.555  0.00  0.00    -0.112 Cl
ATOM      7  C   UNL     1      -9.406  11.604  65.627  0.00  0.00    +0.112 C 
ATOM      8 CL   UNL     1      -8.810  10.023  66.391  0.00  0.00    -0.112 Cl
ATOM      9  C   UNL     1     -10.389  12.099  66.830  0.00  0.00    +0.112 C 
ATOM     10 CL   UNL     1     -11.212  10.499  67.300  0.00  0.00    -0.112 Cl
ATOM     11  C   UNL     1     -11.664  12.616  65.963  0.00  0.00    +0.112 C 
ATOM     12 CL   UNL     1     -12.032  14.063  67.049  0.00  0.00    -0.112 Cl
ENDROOT
TORSDOF 0
ENDMDL
MODEL 2
REMARK VINA RESULT:      -4.3      0.108      4.290
REMARK  Name = 
REMARK  0 active torsions:
REMARK  status: ('A' for Active; 'I' for Inactive)
REMARK                            x       y       z     vdW  Elec       q    Type
REMARK                         _______ _______ _______ _____ _____    ______ ____
ROOT
ATOM      1 CL   UNL     1      -8.796  10.055  66.463  0.00  0.00    -0.112 Cl
ATOM      2  C   UNL     1      -9.397  11.664  65.755  0.00  0.00    +0.112 C 
ATOM      3  C   UNL     1     -10.407  12.155  66.938  0.00  0.00    +0.112 C 
ATOM      4 CL   UNL     1     -11.215  10.532  67.338  0.00  0.00    -0.112 Cl
ATOM      5  C   UNL     1     -11.681  12.669  66.062  0.00  0.00    +0.112 C 
ATOM      6 CL   UNL     1     -12.092  14.126  67.123  0.00  0.00    -0.112 Cl
ATOM      7  C   UNL     1     -10.799  13.488  64.981  0.00  0.00    +0.112 C 
ATOM      8 CL   UNL     1     -12.186  14.478  64.251  0.00  0.00    -0.112 Cl
ATOM      9  C   UNL     1     -10.720  12.312  63.854  0.00  0.00    +0.112 C 
ATOM     10 CL   UNL     1     -12.525  11.983  63.554  0.00  0.00    -0.112 Cl
ATOM     11  C   UNL     1     -10.538  11.010  64.812  0.00  0.00    +0.112 C 
ATOM     12 CL   UNL     1      -9.360  10.138  63.689  0.00  0.00    -0.112 Cl
ENDROOT
TORSDOF 0
ENDMDL
MODEL 3
REMARK VINA RESULT:      -4.3      1.473      3.454
REMARK  Name = 
REMARK  0 active torsions:
REMARK  status: ('A' for Active; 'I' for Inactive)
REMARK                            x       y       z     vdW  Elec       q    Type
REMARK                         _______ _______ _______ _____ _____    ______ ____
ROOT
ATOM      1 CL   UNL     1     -12.173  13.126  63.331  0.00  0.00    -0.112 Cl
ATOM      2  C   UNL     1     -12.189  12.469  65.068  0.00  0.00    +0.112 C 
ATOM      3  C   UNL     1     -12.176  13.861  65.917  0.00  0.00    +0.112 C 
ATOM      4 CL   UNL     1     -10.950  14.820  64.904  0.00  0.00    -0.112 Cl
ATOM      5  C   UNL     1     -11.078  13.510  67.068  0.00  0.00    +0.112 C 
ATOM      6 CL   UNL     1     -11.935  14.389  68.451  0.00  0.00    -0.112 Cl
ATOM      7  C   UNL     1     -11.674  12.043  67.401  0.00  0.00    +0.112 C 
ATOM      8 CL   UNL     1     -10.784  11.790  69.008  0.00  0.00    -0.112 Cl
ATOM      9  C   UNL     1     -10.673  11.195  66.433  0.00  0.00    +0.112 C 
ATOM     10 CL   UNL     1      -9.014  11.718  67.089  0.00  0.00    -0.112 Cl
ATOM     11  C   UNL     1     -10.596  12.197  65.154  0.00  0.00    +0.112 C 
ATOM     12 CL   UNL     1     -10.578  10.853  63.888  0.00  0.00    -0.112 Cl
ENDROOT
TORSDOF 0
ENDMDL
MODEL 4
REMARK VINA RESULT:      -4.2      1.524      3.592
REMARK  Name = 
REMARK  0 active torsions:
REMARK  status: ('A' for Active; 'I' for Inactive)
REMARK                            x       y       z     vdW  Elec       q    Type
REMARK                         _______ _______ _______ _____ _____    ______ ____
ROOT
ATOM      1 CL   UNL     1     -10.939  11.913  69.136  0.00  0.00    -0.112 Cl
ATOM      2  C   UNL     1     -11.750  12.089  67.474  0.00  0.00    +0.112 C 
ATOM      3  C   UNL     1     -10.747  11.190  66.553  0.00  0.00    +0.112 C 
ATOM      4 CL   UNL     1      -9.119  11.728  67.266  0.00  0.00    -0.112 Cl
ATOM      5  C   UNL     1     -10.588  12.148  65.246  0.00  0.00    +0.112 C 
ATOM      6 CL   UNL     1     -10.577  10.790  63.990  0.00  0.00    -0.112 Cl
ATOM      7  C   UNL     1     -12.164  12.489  65.116  0.00  0.00    +0.112 C 
ATOM      8 CL   UNL     1     -12.113  13.171  63.393  0.00  0.00    -0.112 Cl
ATOM      9  C   UNL     1     -12.132  13.898  65.936  0.00  0.00    +0.112 C 
ATOM     10 CL   UNL     1     -10.870  14.851  64.959  0.00  0.00    -0.112 Cl
ATOM     11  C   UNL     1     -11.080  13.518  67.116  0.00  0.00    +0.112 C 
ATOM     12 CL   UNL     1     -11.960  14.461  68.437  0.00  0.00    -0.112 Cl
ENDROOT
TORSDOF 0
ENDMDL
MODEL 5
REMARK VINA RESULT:      -4.0      1.512      4.405
REMARK  Name = 
REMARK  0 active torsions:
REMARK  status: ('A' for Active; 'I' for Inactive)
REMARK                            x       y       z     vdW  Elec       q    Type
REMARK                         _______ _______ _______ _____ _____    ______ ____
ROOT
ATOM      1 CL   UNL     1     -10.149  10.244  66.710  0.00  0.00    -0.112 Cl
ATOM      2  C   UNL     1      -9.770  11.997  66.225  0.00  0.00    +0.112 C 
ATOM      3  C   UNL     1     -10.234  12.790  67.572  0.00  0.00    +0.112 C 
ATOM      4 CL   UNL     1     -11.794  11.857  67.949  0.00  0.00    -0.112 Cl
ATOM      5  C   UNL     1     -11.042  14.048  66.926  0.00  0.00    +0.112 C 
ATOM      6 CL   UNL     1     -10.473  15.314  68.148  0.00  0.00    -0.112 Cl
ATOM      7  C   UNL     1      -9.926  14.382  65.803  0.00  0.00    +0.112 C 
ATOM      8 CL   UNL     1     -10.546  16.071  65.354  0.00  0.00    -0.112 Cl
ATOM      9  C   UNL     1     -10.611  13.541  64.584  0.00  0.00    +0.112 C 
ATOM     10 CL   UNL     1     -12.296  14.324  64.514  0.00  0.00    -0.112 Cl
ATOM     11  C   UNL     1     -11.141  12.237  65.400  0.00  0.00    +0.112 C 
ATOM     12 CL   UNL     1     -10.754  11.030  64.058  0.00  0.00    -0.112 Cl
ENDROOT
TORSDOF 0
ENDMDL
MODEL 6
REMARK VINA RESULT:      -3.9      2.756      4.592
REMARK  Name = 
REMARK  0 active torsions:
REMARK  status: ('A' for Active; 'I' for Inactive)
REMARK                            x       y       z     vdW  Elec       q    Type
REMARK                         _______ _______ _______ _____ _____    ______ ____
ROOT
ATOM      1 CL   UNL     1      -9.962  16.825  68.891  0.00  0.00    -0.112 Cl
ATOM      2  C   UNL     1     -11.153  15.755  67.948  0.00  0.00    +0.112 C 
ATOM      3  C   UNL     1     -10.854  14.302  68.626  0.00  0.00    +0.112 C 
ATOM      4 CL   UNL     1      -9.003  14.396  68.738  0.00  0.00    -0.112 Cl
ATOM      5  C   UNL     1     -10.810  13.350  67.305  0.00  0.00    +0.112 C 
ATOM      6 CL   UNL     1     -11.652  11.891  68.070  0.00  0.00    -0.112 Cl
ATOM      7  C   UNL     1     -12.138  13.975  66.625  0.00  0.00    +0.112 C 
ATOM      8 CL   UNL     1     -12.415  12.632  65.377  0.00  0.00    -0.112 Cl
ATOM      9  C   UNL     1     -11.381  15.050  65.660  0.00  0.00    +0.112 C 
ATOM     10 CL   UNL     1     -10.255  13.930  64.693  0.00  0.00    -0.112 Cl
ATOM     11  C   UNL     1     -10.197  15.546  66.659  0.00  0.00    +0.112 C 
ATOM     12 CL   UNL     1     -10.245  17.309  66.115  0.00  0.00    -0.112 Cl
ENDROOT
TORSDOF 0
ENDMDL
MODEL 7
REMARK VINA RESULT:      -3.9      2.921      4.614
REMARK  Name = 
REMARK  0 active torsions:
REMARK  status: ('A' for Active; 'I' for Inactive)
REMARK                            x       y       z     vdW  Elec       q    Type
REMARK                         _______ _______ _______ _____ _____    ______ ____
ROOT
ATOM      1 CL   UNL     1     -12.191  12.574  65.637  0.00  0.00    -0.112 Cl
ATOM      2  C   UNL     1     -12.018  14.050  66.752  0.00  0.00    +0.112 C 
ATOM      3  C   UNL     1     -11.313  15.114  65.736  0.00  0.00    +0.112 C 
ATOM      4 CL   UNL     1     -10.111  13.977  64.895  0.00  0.00    -0.112 Cl
ATOM      5  C   UNL     1     -10.166  15.748  66.703  0.00  0.00    +0.112 C 
ATOM      6 CL   UNL     1     -10.300  17.483  66.078  0.00  0.00    -0.112 Cl
ATOM      7  C   UNL     1     -11.139  15.950  67.979  0.00  0.00    +0.112 C 
ATOM      8 CL   UNL     1     -10.035  17.093  68.936  0.00  0.00    -0.112 Cl
ATOM      9  C   UNL     1     -10.764  14.557  68.741  0.00  0.00    +0.112 C 
ATOM     10 CL   UNL     1      -8.921  14.731  68.914  0.00  0.00    -0.112 Cl
ATOM     11  C   UNL     1     -10.651  13.556  67.464  0.00  0.00    +0.112 C 
ATOM     12 CL   UNL     1     -11.410  12.106  68.318  0.00  0.00    -0.112 Cl
ENDROOT
TORSDOF 0
ENDMDL
MODEL 8
REMARK VINA RESULT:      -3.8      2.645      3.693
REMARK  Name = 
REMARK  0 active torsions:
REMARK  status: ('A' for Active; 'I' for Inactive)
REMARK                            x       y       z     vdW  Elec       q    Type
REMARK                         _______ _______ _______ _____ _____    ______ ____
ROOT
ATOM      1 CL   UNL     1      -8.374  16.346  66.096  0.00  0.00    -0.112 Cl
ATOM      2  C   UNL     1      -9.006  14.715  66.721  0.00  0.00    +0.112 C 
ATOM      3  C   UNL     1     -10.067  14.331  65.542  0.00  0.00    +0.112 C 
ATOM      4 CL   UNL     1     -10.833  16.001  65.271  0.00  0.00    -0.112 Cl
ATOM      5  C   UNL     1     -11.329  13.802  66.426  0.00  0.00    +0.112 C 
ATOM      6 CL   UNL     1     -11.820  12.429  65.289  0.00  0.00    -0.112 Cl
ATOM      7  C   UNL     1     -10.442  12.889  67.424  0.00  0.00    +0.112 C 
ATOM      8 CL   UNL     1     -11.839  11.898  68.135  0.00  0.00    -0.112 Cl
ATOM      9  C   UNL     1     -10.291  13.988  68.619  0.00  0.00    +0.112 C 
ATOM     10 CL   UNL     1     -12.074  14.352  68.997  0.00  0.00    -0.112 Cl
ATOM     11  C   UNL     1     -10.096  15.342  67.740  0.00  0.00    +0.112 C 
ATOM     12 CL   UNL     1      -8.857  16.105  68.876  0.00  0.00    -0.112 Cl
ENDROOT
TORSDOF 0
ENDMDL
MODEL 9
REMARK VINA RESULT:      -3.8      1.449      2.343
REMARK  Name = 
REMARK  0 active torsions:
REMARK  status: ('A' for Active; 'I' for Inactive)
REMARK                            x       y       z     vdW  Elec       q    Type
REMARK                         _______ _______ _______ _____ _____    ______ ____
ROOT
ATOM      1 CL   UNL     1     -10.374  15.545  66.911  0.00  0.00    -0.112 Cl
ATOM      2  C   UNL     1      -9.893  14.039  65.937  0.00  0.00    +0.112 C 
ATOM      3  C   UNL     1     -11.245  13.806  65.055  0.00  0.00    +0.112 C 
ATOM      4 CL   UNL     1     -12.520  14.154  66.359  0.00  0.00    -0.112 Cl
ATOM      5  C   UNL     1     -11.426  12.193  65.189  0.00  0.00    +0.112 C 
ATOM      6 CL   UNL     1     -12.013  11.902  63.460  0.00  0.00    -0.112 Cl
ATOM      7  C   UNL     1      -9.873  11.843  64.903  0.00  0.00    +0.112 C 
ATOM      8 CL   UNL     1     -10.100  10.033  64.569  0.00  0.00    -0.112 Cl
ATOM      9  C   UNL     1      -9.399  11.744  66.461  0.00  0.00    +0.112 C 
ATOM     10 CL   UNL     1     -10.563  10.445  67.106  0.00  0.00    -0.112 Cl
ATOM     11  C   UNL     1     -10.256  12.971  67.098  0.00  0.00    +0.112 C 
ATOM     12 CL   UNL     1      -8.930  13.517  68.260  0.00  0.00    -0.112 Cl
ENDROOT
TORSDOF 0
ENDMDL
