MODEL 1
REMARK VINA RESULT:      -5.4      0.000      0.000
REMARK  Name = 
REMARK  2 active torsions:
REMARK  status: ('A' for Active; 'I' for Inactive)
REMARK    1  A    between atoms: C_7  and  C_8
REMARK    2  A    between atoms: C_9  and  C_10
REMARK                            x       y       z     vdW  Elec       q    Type
REMARK                         _______ _______ _______ _____ _____    ______ ____
ROOT
ATOM      1  C   UNL     1     -11.371  11.053  68.088  0.00  0.00    +0.254 C 
ATOM      2  N   UNL     1     -11.593  12.119  67.142  0.00  0.00    -0.187 N 
ATOM      3  C   UNL     1     -11.827  13.441  67.640  0.00  0.00    +0.319 C 
ATOM      4  N   UNL     1     -11.991  14.346  66.718  0.00  0.00    -0.065 NA
ATOM      5  C   UNL     1     -12.670  14.074  65.467  0.00  0.00    +0.267 C 
ATOM      6  C   UNL     1     -12.447  12.659  64.985  0.00  0.00    +0.109 C 
ATOM      7  C   UNL     1     -11.288  11.998  65.717  0.00  0.00    +0.207 C 
ENDROOT
BRANCH   3   8
ATOM      8  C   UNL     1     -11.369  13.840  68.978  0.00  0.00    +0.089 C 
ATOM      9  C   UNL     1     -11.658  14.989  69.536  0.00  0.00    +0.014 C 
BRANCH   9  10
ATOM     10  C   UNL     1     -12.388  15.134  70.800  0.00  0.00    +0.030 A 
ATOM     11  S   UNL     1     -12.010  16.018  72.220  0.00  0.00    -0.086 S 
ATOM     12  C   UNL     1     -13.487  15.810  73.070  0.00  0.00    +0.035 A 
ATOM     13  C   UNL     1     -14.288  15.316  72.046  0.00  0.00    +0.007 A 
ATOM     14  C   UNL     1     -13.577  14.533  71.184  0.00  0.00    +0.007 A 
ENDBRANCH   9  10
ENDBRANCH   3   8
TORSDOF 2
ENDMDL
MODEL 2
REMARK VINA RESULT:      -5.2      3.575      5.779
REMARK  Name = 
REMARK  2 active torsions:
REMARK  status: ('A' for Active; 'I' for Inactive)
REMARK    1  A    between atoms: C_7  and  C_8
REMARK    2  A    between atoms: C_9  and  C_10
REMARK                            x       y       z     vdW  Elec       q    Type
REMARK                         _______ _______ _______ _____ _____    ______ ____
ROOT
ATOM      1  C   UNL     1     -12.121  12.913  70.236  0.00  0.00    +0.254 C 
ATOM      2  N   UNL     1     -12.329  14.094  71.038  0.00  0.00    -0.187 N 
ATOM      3  C   UNL     1     -11.486  15.231  70.818  0.00  0.00    +0.319 C 
ATOM      4  N   UNL     1     -11.760  16.261  71.565  0.00  0.00    -0.065 NA
ATOM      5  C   UNL     1     -12.209  16.135  72.937  0.00  0.00    +0.267 C 
ATOM      6  C   UNL     1     -13.058  14.904  73.157  0.00  0.00    +0.109 C 
ATOM      7  C   UNL     1     -13.534  14.315  71.837  0.00  0.00    +0.207 C 
ENDROOT
BRANCH   3   8
ATOM      8  C   UNL     1     -10.793  15.425  69.537  0.00  0.00    +0.089 C 
ATOM      9  C   UNL     1     -11.246  16.183  68.570  0.00  0.00    +0.014 C 
BRANCH   9  10
ATOM     10  C   UNL     1     -10.533  17.345  68.028  0.00  0.00    +0.030 A 
ATOM     11  S   UNL     1     -10.124  17.759  66.414  0.00  0.00    -0.086 S 
ATOM     12  C   UNL     1      -9.525  19.345  66.684  0.00  0.00    +0.035 A 
ATOM     13  C   UNL     1      -9.972  19.554  67.983  0.00  0.00    +0.007 A 
ATOM     14  C   UNL     1      -9.955  18.402  68.714  0.00  0.00    +0.007 A 
ENDBRANCH   9  10
ENDBRANCH   3   8
TORSDOF 2
ENDMDL
MODEL 3
REMARK VINA RESULT:      -5.1      3.135      4.176
REMARK  Name = 
REMARK  2 active torsions:
REMARK  status: ('A' for Active; 'I' for Inactive)
REMARK    1  A    between atoms: C_7  and  C_8
REMARK    2  A    between atoms: C_9  and  C_10
REMARK                            x       y       z     vdW  Elec       q    Type
REMARK                         _______ _______ _______ _____ _____    ______ ____
ROOT
ATOM      1  C   UNL     1     -10.136  15.927  65.845  0.00  0.00    +0.254 C 
ATOM      2  N   UNL     1      -9.911  17.056  66.716  0.00  0.00    -0.187 N 
ATOM      3  C   UNL     1     -10.703  17.175  67.904  0.00  0.00    +0.319 C 
ATOM      4  N   UNL     1     -10.417  18.206  68.644  0.00  0.00    -0.065 NA
ATOM      5  C   UNL     1     -10.021  19.484  68.086  0.00  0.00    +0.267 C 
ATOM      6  C   UNL     1      -9.227  19.335  66.809  0.00  0.00    +0.109 C 
ATOM      7  C   UNL     1      -8.728  17.910  66.628  0.00  0.00    +0.207 C 
ENDROOT
BRANCH   3   8
ATOM      8  C   UNL     1     -11.343  15.999  68.510  0.00  0.00    +0.089 C 
ATOM      9  C   UNL     1     -11.049  15.540  69.701  0.00  0.00    +0.014 C 
BRANCH   9  10
ATOM     10  C   UNL     1     -12.010  15.429  70.804  0.00  0.00    +0.030 A 
ATOM     11  S   UNL     1     -12.009  16.132  72.368  0.00  0.00    -0.086 S 
ATOM     12  C   UNL     1     -13.579  15.661  72.879  0.00  0.00    +0.035 A 
ATOM     13  C   UNL     1     -14.113  15.245  71.664  0.00  0.00    +0.007 A 
ATOM     14  C   UNL     1     -13.166  14.667  70.870  0.00  0.00    +0.007 A 
ENDBRANCH   9  10
ENDBRANCH   3   8
TORSDOF 2
ENDMDL
MODEL 4
REMARK VINA RESULT:      -5.1      2.826      6.053
REMARK  Name = 
REMARK  2 active torsions:
REMARK  status: ('A' for Active; 'I' for Inactive)
REMARK    1  A    between atoms: C_7  and  C_8
REMARK    2  A    between atoms: C_9  and  C_10
REMARK                            x       y       z     vdW  Elec       q    Type
REMARK                         _______ _______ _______ _____ _____    ______ ____
ROOT
ATOM      1  C   UNL     1     -11.205  16.317  69.886  0.00  0.00    +0.254 C 
ATOM      2  N   UNL     1     -11.967  15.505  70.803  0.00  0.00    -0.187 N 
ATOM      3  C   UNL     1     -12.216  14.136  70.464  0.00  0.00    +0.319 C 
ATOM      4  N   UNL     1     -12.887  13.470  71.359  0.00  0.00    -0.065 NA
ATOM      5  C   UNL     1     -13.944  14.068  72.149  0.00  0.00    +0.267 C 
ATOM      6  C   UNL     1     -13.683  15.524  72.455  0.00  0.00    +0.109 C 
ATOM      7  C   UNL     1     -12.232  15.897  72.187  0.00  0.00    +0.207 C 
ENDROOT
BRANCH   3   8
ATOM      8  C   UNL     1     -11.346  13.417  69.523  0.00  0.00    +0.089 C 
ATOM      9  C   UNL     1     -11.767  12.485  68.705  0.00  0.00    +0.014 C 
BRANCH   9  10
ATOM     10  C   UNL     1     -11.663  12.558  67.244  0.00  0.00    +0.030 A 
ATOM     11  S   UNL     1     -10.910  11.506  66.118  0.00  0.00    -0.086 S 
ATOM     12  C   UNL     1     -11.467  12.223  64.662  0.00  0.00    +0.035 A 
ATOM     13  C   UNL     1     -12.458  13.057  65.166  0.00  0.00    +0.007 A 
ATOM     14  C   UNL     1     -12.123  13.552  66.393  0.00  0.00    +0.007 A 
ENDBRANCH   9  10
ENDBRANCH   3   8
TORSDOF 2
ENDMDL
MODEL 5
REMARK VINA RESULT:      -5.0      4.775      6.808
REMARK  Name = 
REMARK  2 active torsions:
REMARK  status: ('A' for Active; 'I' for Inactive)
REMARK    1  A    between atoms: C_7  and  C_8
REMARK    2  A    between atoms: C_9  and  C_10
REMARK                            x       y       z     vdW  Elec       q    Type
REMARK                         _______ _______ _______ _____ _____    ______ ____
ROOT
ATOM      1  C   UNL     1      -7.932  17.298  68.428  0.00  0.00    +0.254 C 
ATOM      2  N   UNL     1      -8.978  17.967  67.693  0.00  0.00    -0.187 N 
ATOM      3  C   UNL     1      -9.385  17.425  66.431  0.00  0.00    +0.319 C 
ATOM      4  N   UNL     1     -10.351  18.074  65.849  0.00  0.00    -0.065 NA
ATOM      5  C   UNL     1     -10.483  19.515  65.925  0.00  0.00    +0.267 C 
ATOM      6  C   UNL     1     -10.005  20.070  67.247  0.00  0.00    +0.109 C 
ATOM      7  C   UNL     1      -9.858  18.972  68.290  0.00  0.00    +0.207 C 
ENDROOT
BRANCH   3   8
ATOM      8  C   UNL     1      -9.158  16.010  66.104  0.00  0.00    +0.089 C 
ATOM      9  C   UNL     1      -9.961  15.040  66.465  0.00  0.00    +0.014 C 
BRANCH   9  10
ATOM     10  C   UNL     1     -10.650  14.147  65.527  0.00  0.00    +0.030 A 
ATOM     11  S   UNL     1     -12.089  14.366  64.620  0.00  0.00    -0.086 S 
ATOM     12  C   UNL     1     -12.018  12.949  63.652  0.00  0.00    +0.035 A 
ATOM     13  C   UNL     1     -10.706  12.557  63.895  0.00  0.00    +0.007 A 
ATOM     14  C   UNL     1     -10.322  12.848  65.171  0.00  0.00    +0.007 A 
ENDBRANCH   9  10
ENDBRANCH   3   8
TORSDOF 2
ENDMDL
MODEL 6
REMARK VINA RESULT:      -5.0      1.733      2.192
REMARK  Name = 
REMARK  2 active torsions:
REMARK  status: ('A' for Active; 'I' for Inactive)
REMARK    1  A    between atoms: C_7  and  C_8
REMARK    2  A    between atoms: C_9  and  C_10
REMARK                            x       y       z     vdW  Elec       q    Type
REMARK                         _______ _______ _______ _____ _____    ______ ____
ROOT
ATOM      1  C   UNL     1     -12.239  13.236  65.903  0.00  0.00    +0.254 C 
ATOM      2  N   UNL     1     -11.344  14.314  66.247  0.00  0.00    -0.187 N 
ATOM      3  C   UNL     1     -11.433  14.889  67.556  0.00  0.00    +0.319 C 
ATOM      4  N   UNL     1     -10.572  15.836  67.792  0.00  0.00    -0.065 NA
ATOM      5  C   UNL     1     -10.151  16.780  66.776  0.00  0.00    +0.267 C 
ATOM      6  C   UNL     1     -10.109  16.164  65.397  0.00  0.00    +0.109 C 
ATOM      7  C   UNL     1     -10.154  14.645  65.465  0.00  0.00    +0.207 C 
ENDROOT
BRANCH   3   8
ATOM      8  C   UNL     1     -12.011  14.135  68.678  0.00  0.00    +0.089 C 
ATOM      9  C   UNL     1     -11.560  14.194  69.906  0.00  0.00    +0.014 C 
BRANCH   9  10
ATOM     10  C   UNL     1     -12.353  14.639  71.057  0.00  0.00    +0.030 A 
ATOM     11  S   UNL     1     -12.023  15.818  72.258  0.00  0.00    -0.086 S 
ATOM     12  C   UNL     1     -13.550  15.841  73.043  0.00  0.00    +0.035 A 
ATOM     13  C   UNL     1     -14.311  15.142  72.112  0.00  0.00    +0.007 A 
ATOM     14  C   UNL     1     -13.581  14.168  71.496  0.00  0.00    +0.007 A 
ENDBRANCH   9  10
ENDBRANCH   3   8
TORSDOF 2
ENDMDL
MODEL 7
REMARK VINA RESULT:      -4.9      1.493      2.036
REMARK  Name = 
REMARK  2 active torsions:
REMARK  status: ('A' for Active; 'I' for Inactive)
REMARK    1  A    between atoms: C_7  and  C_8
REMARK    2  A    between atoms: C_9  and  C_10
REMARK                            x       y       z     vdW  Elec       q    Type
REMARK                         _______ _______ _______ _____ _____    ______ ____
ROOT
ATOM      1  C   UNL     1      -8.958  15.618  66.556  0.00  0.00    +0.254 C 
ATOM      2  N   UNL     1     -10.143  14.826  66.333  0.00  0.00    -0.187 N 
ATOM      3  C   UNL     1     -10.919  14.417  67.466  0.00  0.00    +0.319 C 
ATOM      4  N   UNL     1     -11.985  13.730  67.172  0.00  0.00    -0.065 NA
ATOM      5  C   UNL     1     -12.029  12.786  66.074  0.00  0.00    +0.267 C 
ATOM      6  C   UNL     1     -11.167  13.214  64.909  0.00  0.00    +0.109 C 
ATOM      7  C   UNL     1     -10.770  14.679  65.020  0.00  0.00    +0.207 C 
ENDROOT
BRANCH   3   8
ATOM      8  C   UNL     1     -10.855  15.154  68.735  0.00  0.00    +0.089 C 
ATOM      9  C   UNL     1     -11.882  15.754  69.283  0.00  0.00    +0.014 C 
BRANCH   9  10
ATOM     10  C   UNL     1     -12.415  15.432  70.611  0.00  0.00    +0.030 A 
ATOM     11  S   UNL     1     -11.674  15.471  72.158  0.00  0.00    -0.086 S 
ATOM     12  C   UNL     1     -13.058  15.174  73.129  0.00  0.00    +0.035 A 
ATOM     13  C   UNL     1     -14.062  15.369  72.187  0.00  0.00    +0.007 A 
ATOM     14  C   UNL     1     -13.673  14.956  70.946  0.00  0.00    +0.007 A 
ENDBRANCH   9  10
ENDBRANCH   3   8
TORSDOF 2
ENDMDL
MODEL 8
REMARK VINA RESULT:      -4.8      3.996      6.061
REMARK  Name = 
REMARK  2 active torsions:
REMARK  status: ('A' for Active; 'I' for Inactive)
REMARK    1  A    between atoms: C_7  and  C_8
REMARK    2  A    between atoms: C_9  and  C_10
REMARK                            x       y       z     vdW  Elec       q    Type
REMARK                         _______ _______ _______ _____ _____    ______ ____
ROOT
ATOM      1  C   UNL     1      -7.588  17.002  68.429  0.00  0.00    +0.254 C 
ATOM      2  N   UNL     1      -8.695  17.899  68.201  0.00  0.00    -0.187 N 
ATOM      3  C   UNL     1      -9.974  17.342  67.873  0.00  0.00    +0.319 C 
ATOM      4  N   UNL     1     -10.921  18.219  67.711  0.00  0.00    -0.065 NA
ATOM      5  C   UNL     1     -10.689  19.519  67.113  0.00  0.00    +0.267 C 
ATOM      6  C   UNL     1      -9.317  20.066  67.434  0.00  0.00    +0.109 C 
ATOM      7  C   UNL     1      -8.673  19.309  68.586  0.00  0.00    +0.207 C 
ENDROOT
BRANCH   3   8
ATOM      8  C   UNL     1     -10.316  15.960  68.240  0.00  0.00    +0.089 C 
ATOM      9  C   UNL     1     -11.501  15.431  68.066  0.00  0.00    +0.014 C 
BRANCH   9  10
ATOM     10  C   UNL     1     -11.767  14.253  67.234  0.00  0.00    +0.030 A 
ATOM     11  S   UNL     1     -12.292  14.123  65.606  0.00  0.00    -0.086 S 
ATOM     12  C   UNL     1     -12.113  12.429  65.398  0.00  0.00    +0.035 A 
ATOM     13  C   UNL     1     -11.361  12.124  66.527  0.00  0.00    +0.007 A 
ATOM     14  C   UNL     1     -11.702  12.913  67.586  0.00  0.00    +0.007 A 
ENDBRANCH   9  10
ENDBRANCH   3   8
TORSDOF 2
ENDMDL
MODEL 9
REMARK VINA RESULT:      -4.8      3.462      4.728
REMARK  Name = 
REMARK  2 active torsions:
REMARK  status: ('A' for Active; 'I' for Inactive)
REMARK    1  A    between atoms: C_7  and  C_8
REMARK    2  A    between atoms: C_9  and  C_10
REMARK                            x       y       z     vdW  Elec       q    Type
REMARK                         _______ _______ _______ _____ _____    ______ ____
ROOT
ATOM      1  C   UNL     1     -10.927  15.651  65.326  0.00  0.00    +0.254 C 
ATOM      2  N   UNL     1     -11.410  14.571  66.152  0.00  0.00    -0.187 N 
ATOM      3  C   UNL     1     -11.423  14.747  67.574  0.00  0.00    +0.319 C 
ATOM      4  N   UNL     1     -11.898  13.735  68.240  0.00  0.00    -0.065 NA
ATOM      5  C   UNL     1     -11.686  12.361  67.833  0.00  0.00    +0.267 C 
ATOM      6  C   UNL     1     -11.629  12.206  66.330  0.00  0.00    +0.109 C 
ATOM      7  C   UNL     1     -12.170  13.440  65.624  0.00  0.00    +0.207 C 
ENDROOT
BRANCH   3   8
ATOM      8  C   UNL     1     -11.449  16.089  68.172  0.00  0.00    +0.089 C 
ATOM      9  C   UNL     1     -10.386  16.706  68.626  0.00  0.00    +0.014 C 
BRANCH   9  10
ATOM     10  C   UNL     1      -9.899  17.994  68.121  0.00  0.00    +0.030 A 
ATOM     11  S   UNL     1      -8.412  18.809  68.373  0.00  0.00    -0.086 S 
ATOM     12  C   UNL     1      -8.610  20.092  67.250  0.00  0.00    +0.035 A 
ATOM     13  C   UNL     1      -9.703  19.618  66.532  0.00  0.00    +0.007 A 
ATOM     14  C   UNL     1     -10.562  18.919  67.328  0.00  0.00    +0.007 A 
ENDBRANCH   9  10
ENDBRANCH   3   8
TORSDOF 2
ENDMDL
