MODEL 1
REMARK VINA RESULT:      -6.5      0.000      0.000
REMARK  Name = 
REMARK  10 active torsions:
REMARK  status: ('A' for Active; 'I' for Inactive)
REMARK    1  A    between atoms: O_2  and  C_3
REMARK    2  A    between atoms: C_8  and  O_9
REMARK    3  A    between atoms: O_9  and  C_10
REMARK    4  A    between atoms: C_10  and  C_11
REMARK    5  A    between atoms: C_11  and  N_12
REMARK    6  A    between atoms: N_12  and  C_13
REMARK    7  A    between atoms: C_13  and  C_14
REMARK    8  A    between atoms: C_14  and  C_16
REMARK    9  A    between atoms: C_16  and  O_17
REMARK   10  A    between atoms: O_17  and  C_18
REMARK                            x       y       z     vdW  Elec       q    Type
REMARK                         _______ _______ _______ _____ _____    ______ ____
ROOT
ATOM      1  C   UNL     1     -12.766  15.129  70.404  0.00  0.00    +0.213 C 
ATOM      2  O   UNL     1     -13.484  15.800  71.561  0.00  0.00    -0.218 OA
ENDROOT
BRANCH   1   3
ATOM      3  C   UNL     1     -12.774  13.670  71.177  0.00  0.00    +0.126 C 
BRANCH   3   4
ATOM      4  N   UNL     1     -12.385  12.762  70.114  0.00  0.00    -0.211 NA
BRANCH   4   5
ATOM      5  C   UNL     1     -12.154  11.441  70.681  0.00  0.00    +0.136 C 
BRANCH   5   6
ATOM      6  C   UNL     1     -11.470  10.630  69.589  0.00  0.00    +0.224 C 
BRANCH   6   7
ATOM      7  O   UNL     1     -12.005  11.034  68.352  0.00  0.00    -0.471 OA
BRANCH   7   9
ATOM      8  C   UNL     1     -11.438  11.831  66.142  0.00  0.00    +0.172 A 
ATOM      9  C   UNL     1     -11.197  11.003  67.221  0.00  0.00    +0.172 A 
ATOM     10  C   UNL     1     -10.072  10.209  67.249  0.00  0.00    +0.040 A 
ATOM     11  C   UNL     1      -9.312   9.998  66.117  0.00  0.00    +0.003 A 
ATOM     12  C   UNL     1      -9.760  10.581  64.938  0.00  0.00    +0.003 A 
ATOM     13  C   UNL     1     -10.789  11.494  64.961  0.00  0.00    +0.040 A 
BRANCH   8  15
ATOM     14  C   UNL     1     -12.282  14.079  65.701  0.00  0.00    +0.253 C 
ATOM     15  O   UNL     1     -12.464  12.772  66.172  0.00  0.00    -0.468 OA
ENDBRANCH   8  15
ENDBRANCH   7   9
ENDBRANCH   6   7
ENDBRANCH   5   6
ENDBRANCH   4   5
ENDBRANCH   3   4
ENDBRANCH   1   3
BRANCH   1  16
ATOM     16  C   UNL     1     -11.260  15.486  70.947  0.00  0.00    +0.240 C 
BRANCH  16  17
ATOM     17  O   UNL     1     -10.439  15.937  70.001  0.00  0.00    -0.473 OA
BRANCH  17  18
ATOM     18  C   UNL     1      -9.808  15.393  68.926  0.00  0.00    +0.140 A 
ATOM     19  C   UNL     1      -9.426  16.275  67.918  0.00  0.00    +0.053 A 
ATOM     20  C   UNL     1      -9.136  15.816  66.642  0.00  0.00    +0.084 A 
ATOM     21  N   UNL     1      -9.294  16.831  65.757  0.00  0.00    -0.245 NA
ATOM     22  C   UNL     1      -9.690  17.946  66.402  0.00  0.00    +0.081 A 
ATOM     23  C   UNL     1     -10.306  19.133  66.035  0.00  0.00    +0.019 A 
ATOM     24  C   UNL     1     -10.204  20.169  66.956  0.00  0.00    +0.002 A 
ATOM     25  C   UNL     1     -10.119  19.903  68.306  0.00  0.00    +0.000 A 
ATOM     26  C   UNL     1      -9.773  18.622  68.718  0.00  0.00    +0.002 A 
ATOM     27  C   UNL     1      -8.658  14.517  66.523  0.00  0.00    +0.019 A 
ATOM     28  C   UNL     1      -8.746  13.683  67.623  0.00  0.00    +0.005 A 
ATOM     29  C   UNL     1      -9.587  17.645  67.756  0.00  0.00    +0.022 A 
ATOM     30  C   UNL     1      -9.570  14.071  68.675  0.00  0.00    +0.037 A 
ENDBRANCH  17  18
ENDBRANCH  16  17
ENDBRANCH   1  16
TORSDOF 10
ENDMDL
MODEL 2
REMARK VINA RESULT:      -6.5      2.328      6.247
REMARK  Name = 
REMARK  10 active torsions:
REMARK  status: ('A' for Active; 'I' for Inactive)
REMARK    1  A    between atoms: O_2  and  C_3
REMARK    2  A    between atoms: C_8  and  O_9
REMARK    3  A    between atoms: O_9  and  C_10
REMARK    4  A    between atoms: C_10  and  C_11
REMARK    5  A    between atoms: C_11  and  N_12
REMARK    6  A    between atoms: N_12  and  C_13
REMARK    7  A    between atoms: C_13  and  C_14
REMARK    8  A    between atoms: C_14  and  C_16
REMARK    9  A    between atoms: C_16  and  O_17
REMARK   10  A    between atoms: O_17  and  C_18
REMARK                            x       y       z     vdW  Elec       q    Type
REMARK                         _______ _______ _______ _____ _____    ______ ____
ROOT
ATOM      1  C   UNL     1     -11.122  10.658  66.988  0.00  0.00    +0.213 C 
ATOM      2  O   UNL     1     -10.244  10.198  65.839  0.00  0.00    -0.218 OA
ENDROOT
BRANCH   1   3
ATOM      3  C   UNL     1     -11.067  12.225  66.471  0.00  0.00    +0.126 C 
BRANCH   3   4
ATOM      4  N   UNL     1     -12.323  12.352  65.756  0.00  0.00    -0.211 NA
BRANCH   4   5
ATOM      5  C   UNL     1     -12.495  13.738  65.342  0.00  0.00    +0.136 C 
BRANCH   5   6
ATOM      6  C   UNL     1     -11.124  14.211  64.879  0.00  0.00    +0.224 C 
BRANCH   6   7
ATOM      7  O   UNL     1     -11.009  15.576  65.195  0.00  0.00    -0.471 OA
BRANCH   7   9
ATOM      8  C   UNL     1      -9.663  17.364  66.107  0.00  0.00    +0.172 A 
ATOM      9  C   UNL     1      -9.892  16.019  65.894  0.00  0.00    +0.172 A 
ATOM     10  C   UNL     1      -9.076  15.075  66.479  0.00  0.00    +0.040 A 
ATOM     11  C   UNL     1      -7.868  15.421  67.048  0.00  0.00    +0.003 A 
ATOM     12  C   UNL     1      -7.488  16.754  66.961  0.00  0.00    +0.003 A 
ATOM     13  C   UNL     1      -8.380  17.703  66.519  0.00  0.00    +0.040 A 
BRANCH   8  15
ATOM     14  C   UNL     1     -10.480  19.664  66.086  0.00  0.00    +0.253 C 
ATOM     15  O   UNL     1     -10.575  18.326  65.682  0.00  0.00    -0.468 OA
ENDBRANCH   8  15
ENDBRANCH   7   9
ENDBRANCH   6   7
ENDBRANCH   5   6
ENDBRANCH   4   5
ENDBRANCH   3   4
ENDBRANCH   1   3
BRANCH   1  16
ATOM     16  C   UNL     1      -9.878  10.888  68.033  0.00  0.00    +0.240 C 
BRANCH  16  17
ATOM     17  O   UNL     1     -10.263  11.135  69.283  0.00  0.00    -0.473 OA
BRANCH  17  18
ATOM     18  C   UNL     1     -11.270  10.703  70.089  0.00  0.00    +0.140 A 
ATOM     19  C   UNL     1     -12.177  11.667  70.521  0.00  0.00    +0.053 A 
ATOM     20  C   UNL     1     -12.992  11.438  71.620  0.00  0.00    +0.084 A 
ATOM     21  N   UNL     1     -13.383  12.628  72.139  0.00  0.00    -0.245 NA
ATOM     22  C   UNL     1     -12.846  13.639  71.429  0.00  0.00    +0.081 A 
ATOM     23  C   UNL     1     -12.608  14.986  71.654  0.00  0.00    +0.019 A 
ATOM     24  C   UNL     1     -12.365  15.749  70.518  0.00  0.00    +0.002 A 
ATOM     25  C   UNL     1     -11.766  15.188  69.410  0.00  0.00    +0.000 A 
ATOM     26  C   UNL     1     -11.738  13.804  69.292  0.00  0.00    +0.002 A 
ATOM     27  C   UNL     1     -13.330  10.120  71.901  0.00  0.00    +0.019 A 
ATOM     28  C   UNL     1     -12.641   9.114  71.250  0.00  0.00    +0.005 A 
ATOM     29  C   UNL     1     -12.257  13.040  70.321  0.00  0.00    +0.022 A 
ATOM     30  C   UNL     1     -11.460   9.447  70.593  0.00  0.00    +0.037 A 
ENDBRANCH  17  18
ENDBRANCH  16  17
ENDBRANCH   1  16
TORSDOF 10
ENDMDL
MODEL 3
REMARK VINA RESULT:      -6.5      1.963      5.058
REMARK  Name = 
REMARK  10 active torsions:
REMARK  status: ('A' for Active; 'I' for Inactive)
REMARK    1  A    between atoms: O_2  and  C_3
REMARK    2  A    between atoms: C_8  and  O_9
REMARK    3  A    between atoms: O_9  and  C_10
REMARK    4  A    between atoms: C_10  and  C_11
REMARK    5  A    between atoms: C_11  and  N_12
REMARK    6  A    between atoms: N_12  and  C_13
REMARK    7  A    between atoms: C_13  and  C_14
REMARK    8  A    between atoms: C_14  and  C_16
REMARK    9  A    between atoms: C_16  and  O_17
REMARK   10  A    between atoms: O_17  and  C_18
REMARK                            x       y       z     vdW  Elec       q    Type
REMARK                         _______ _______ _______ _____ _____    ______ ____
ROOT
ATOM      1  C   UNL     1      -9.817  10.299  68.630  0.00  0.00    +0.213 C 
ATOM      2  O   UNL     1     -10.926   9.691  67.791  0.00  0.00    -0.218 OA
ENDROOT
BRANCH   1   3
ATOM      3  C   UNL     1     -10.595   9.912  70.033  0.00  0.00    +0.126 C 
BRANCH   3   4
ATOM      4  N   UNL     1     -11.632  10.925  70.094  0.00  0.00    -0.211 NA
BRANCH   4   5
ATOM      5  C   UNL     1     -12.702  10.456  70.963  0.00  0.00    +0.136 C 
BRANCH   5   6
ATOM      6  C   UNL     1     -13.094  11.648  71.826  0.00  0.00    +0.224 C 
BRANCH   6   7
ATOM      7  O   UNL     1     -13.027  12.802  71.025  0.00  0.00    -0.471 OA
BRANCH   7   9
ATOM      8  C   UNL     1     -12.356  15.120  70.900  0.00  0.00    +0.172 A 
ATOM      9  C   UNL     1     -12.804  14.035  71.627  0.00  0.00    +0.172 A 
ATOM     10  C   UNL     1     -13.156  14.183  72.950  0.00  0.00    +0.040 A 
ATOM     11  C   UNL     1     -12.819  15.316  73.662  0.00  0.00    +0.003 A 
ATOM     12  C   UNL     1     -12.067  16.277  72.999  0.00  0.00    +0.003 A 
ATOM     13  C   UNL     1     -11.861  16.185  71.642  0.00  0.00    +0.040 A 
BRANCH   8  15
ATOM     14  C   UNL     1     -11.541  16.059  68.799  0.00  0.00    +0.253 C 
ATOM     15  O   UNL     1     -12.170  15.036  69.523  0.00  0.00    -0.468 OA
ENDBRANCH   8  15
ENDBRANCH   7   9
ENDBRANCH   6   7
ENDBRANCH   5   6
ENDBRANCH   4   5
ENDBRANCH   3   4
ENDBRANCH   1   3
BRANCH   1  16
ATOM     16  C   UNL     1     -10.446  11.814  68.619  0.00  0.00    +0.240 C 
BRANCH  16  17
ATOM     17  O   UNL     1     -10.111  12.529  67.547  0.00  0.00    -0.473 OA
BRANCH  17  18
ATOM     18  C   UNL     1     -10.781  13.057  66.487  0.00  0.00    +0.140 A 
ATOM     19  C   UNL     1     -10.250  14.219  65.933  0.00  0.00    +0.053 A 
ATOM     20  C   UNL     1     -11.023  15.044  65.129  0.00  0.00    +0.084 A 
ATOM     21  N   UNL     1     -10.498  16.293  65.138  0.00  0.00    -0.245 NA
ATOM     22  C   UNL     1      -9.408  16.329  65.929  0.00  0.00    +0.081 A 
ATOM     23  C   UNL     1      -8.687  17.323  66.574  0.00  0.00    +0.019 A 
ATOM     24  C   UNL     1      -7.413  16.961  66.993  0.00  0.00    +0.002 A 
ATOM     25  C   UNL     1      -7.134  15.659  67.351  0.00  0.00    +0.000 A 
ATOM     26  C   UNL     1      -8.005  14.653  66.954  0.00  0.00    +0.002 A 
ATOM     27  C   UNL     1     -12.060  14.453  64.418  0.00  0.00    +0.019 A 
ATOM     28  C   UNL     1     -12.425  13.159  64.744  0.00  0.00    +0.005 A 
ATOM     29  C   UNL     1      -9.153  15.004  66.266  0.00  0.00    +0.022 A 
ATOM     30  C   UNL     1     -11.961  12.630  65.944  0.00  0.00    +0.037 A 
ENDBRANCH  17  18
ENDBRANCH  16  17
ENDBRANCH   1  16
TORSDOF 10
ENDMDL
MODEL 4
REMARK VINA RESULT:      -6.4      1.820      5.558
REMARK  Name = 
REMARK  10 active torsions:
REMARK  status: ('A' for Active; 'I' for Inactive)
REMARK    1  A    between atoms: O_2  and  C_3
REMARK    2  A    between atoms: C_8  and  O_9
REMARK    3  A    between atoms: O_9  and  C_10
REMARK    4  A    between atoms: C_10  and  C_11
REMARK    5  A    between atoms: C_11  and  N_12
REMARK    6  A    between atoms: N_12  and  C_13
REMARK    7  A    between atoms: C_13  and  C_14
REMARK    8  A    between atoms: C_14  and  C_16
REMARK    9  A    between atoms: C_16  and  O_17
REMARK   10  A    between atoms: O_17  and  C_18
REMARK                            x       y       z     vdW  Elec       q    Type
REMARK                         _______ _______ _______ _____ _____    ______ ____
ROOT
ATOM      1  C   UNL     1     -11.969  11.711  70.881  0.00  0.00    +0.213 C 
ATOM      2  O   UNL     1     -13.218  11.788  71.738  0.00  0.00    -0.218 OA
ENDROOT
BRANCH   1   3
ATOM      3  C   UNL     1     -12.297  13.169  70.180  0.00  0.00    +0.126 C 
BRANCH   3   4
ATOM      4  N   UNL     1     -12.633  13.989  71.329  0.00  0.00    -0.211 NA
BRANCH   4   5
ATOM      5  C   UNL     1     -12.819  15.366  70.891  0.00  0.00    +0.136 C 
BRANCH   5   6
ATOM      6  C   UNL     1     -11.460  15.834  70.389  0.00  0.00    +0.224 C 
BRANCH   6   7
ATOM      7  O   UNL     1     -11.646  16.434  69.132  0.00  0.00    -0.471 OA
BRANCH   7   9
ATOM      8  C   UNL     1     -10.289  17.504  67.443  0.00  0.00    +0.172 A 
ATOM      9  C   UNL     1     -10.614  16.397  68.201  0.00  0.00    +0.172 A 
ATOM     10  C   UNL     1      -9.839  15.260  68.138  0.00  0.00    +0.040 A 
ATOM     11  C   UNL     1      -8.905  15.081  67.138  0.00  0.00    +0.003 A 
ATOM     12  C   UNL     1      -8.817  16.074  66.171  0.00  0.00    +0.003 A 
ATOM     13  C   UNL     1      -9.481  17.267  66.338  0.00  0.00    +0.040 A 
BRANCH   8  15
ATOM     14  C   UNL     1     -10.256  19.940  67.601  0.00  0.00    +0.253 C 
ATOM     15  O   UNL     1     -10.944  18.719  67.626  0.00  0.00    -0.468 OA
ENDBRANCH   8  15
ENDBRANCH   7   9
ENDBRANCH   6   7
ENDBRANCH   5   6
ENDBRANCH   4   5
ENDBRANCH   3   4
ENDBRANCH   1   3
BRANCH   1  16
ATOM     16  C   UNL     1     -12.687  10.885  69.658  0.00  0.00    +0.240 C 
BRANCH  16  17
ATOM     17  O   UNL     1     -12.094  11.047  68.477  0.00  0.00    -0.473 OA
BRANCH  17  18
ATOM     18  C   UNL     1     -11.140  10.381  67.774  0.00  0.00    +0.140 A 
ATOM     19  C   UNL     1     -10.799  10.913  66.532  0.00  0.00    +0.053 A 
ATOM     20  C   UNL     1     -10.148  10.141  65.581  0.00  0.00    +0.084 A 
ATOM     21  N   UNL     1     -10.376  10.664  64.352  0.00  0.00    -0.245 NA
ATOM     22  C   UNL     1     -11.167  11.750  64.453  0.00  0.00    +0.081 A 
ATOM     23  C   UNL     1     -11.978  12.466  63.586  0.00  0.00    +0.019 A 
ATOM     24  C   UNL     1     -12.334  13.740  64.013  0.00  0.00    +0.002 A 
ATOM     25  C   UNL     1     -12.461  14.019  65.357  0.00  0.00    +0.000 A 
ATOM     26  C   UNL     1     -11.890  13.152  66.280  0.00  0.00    +0.002 A 
ATOM     27  C   UNL     1      -9.339   9.108  66.040  0.00  0.00    +0.019 A 
ATOM     28  C   UNL     1      -9.433   8.745  67.371  0.00  0.00    +0.005 A 
ATOM     29  C   UNL     1     -11.269  12.006  65.816  0.00  0.00    +0.022 A 
ATOM     30  C   UNL     1     -10.525   9.205  68.101  0.00  0.00    +0.037 A 
ENDBRANCH  17  18
ENDBRANCH  16  17
ENDBRANCH   1  16
TORSDOF 10
ENDMDL
MODEL 5
REMARK VINA RESULT:      -6.4      2.055      5.329
REMARK  Name = 
REMARK  10 active torsions:
REMARK  status: ('A' for Active; 'I' for Inactive)
REMARK    1  A    between atoms: O_2  and  C_3
REMARK    2  A    between atoms: C_8  and  O_9
REMARK    3  A    between atoms: O_9  and  C_10
REMARK    4  A    between atoms: C_10  and  C_11
REMARK    5  A    between atoms: C_11  and  N_12
REMARK    6  A    between atoms: N_12  and  C_13
REMARK    7  A    between atoms: C_13  and  C_14
REMARK    8  A    between atoms: C_14  and  C_16
REMARK    9  A    between atoms: C_16  and  O_17
REMARK   10  A    between atoms: O_17  and  C_18
REMARK                            x       y       z     vdW  Elec       q    Type
REMARK                         _______ _______ _______ _____ _____    ______ ____
ROOT
ATOM      1  C   UNL     1     -11.120  14.268  64.813  0.00  0.00    +0.213 C 
ATOM      2  O   UNL     1     -12.417  14.207  64.026  0.00  0.00    -0.218 OA
ENDROOT
BRANCH   1   3
ATOM      3  C   UNL     1     -11.928  14.196  66.251  0.00  0.00    +0.126 C 
BRANCH   3   4
ATOM      4  N   UNL     1     -12.051  12.765  66.457  0.00  0.00    -0.211 NA
BRANCH   4   5
ATOM      5  C   UNL     1     -11.072  12.343  67.449  0.00  0.00    +0.136 C 
BRANCH   5   6
ATOM      6  C   UNL     1     -11.864  12.015  68.708  0.00  0.00    +0.224 C 
BRANCH   6   7
ATOM      7  O   UNL     1     -11.387  12.837  69.744  0.00  0.00    -0.471 OA
BRANCH   7   9
ATOM      8  C   UNL     1     -12.553  14.861  70.365  0.00  0.00    +0.172 A 
ATOM      9  C   UNL     1     -12.297  13.516  70.546  0.00  0.00    +0.172 A 
ATOM     10  C   UNL     1     -13.033  12.785  71.454  0.00  0.00    +0.040 A 
ATOM     11  C   UNL     1     -13.833  13.402  72.393  0.00  0.00    +0.003 A 
ATOM     12  C   UNL     1     -13.826  14.790  72.415  0.00  0.00    +0.003 A 
ATOM     13  C   UNL     1     -13.214  15.498  71.407  0.00  0.00    +0.040 A 
BRANCH   8  15
ATOM     14  C   UNL     1     -10.864  16.426  69.556  0.00  0.00    +0.253 C 
ATOM     15  O   UNL     1     -11.954  15.575  69.331  0.00  0.00    -0.468 OA
ENDBRANCH   8  15
ENDBRANCH   7   9
ENDBRANCH   6   7
ENDBRANCH   5   6
ENDBRANCH   4   5
ENDBRANCH   3   4
ENDBRANCH   1   3
BRANCH   1  16
ATOM     16  C   UNL     1     -11.057  15.908  64.854  0.00  0.00    +0.240 C 
BRANCH  16  17
ATOM     17  O   UNL     1     -10.315  16.393  65.847  0.00  0.00    -0.473 OA
BRANCH  17  18
ATOM     18  C   UNL     1      -9.905  17.631  66.233  0.00  0.00    +0.140 A 
ATOM     19  C   UNL     1      -8.718  17.693  66.959  0.00  0.00    +0.053 A 
ATOM     20  C   UNL     1      -8.405  18.811  67.719  0.00  0.00    +0.084 A 
ATOM     21  N   UNL     1      -7.524  18.458  68.686  0.00  0.00    -0.245 NA
ATOM     22  C   UNL     1      -7.250  17.142  68.602  0.00  0.00    +0.081 A 
ATOM     23  C   UNL     1      -6.728  16.184  69.459  0.00  0.00    +0.019 A 
ATOM     24  C   UNL     1      -6.274  15.020  68.850  0.00  0.00    +0.002 A 
ATOM     25  C   UNL     1      -6.856  14.563  67.687  0.00  0.00    +0.000 A 
ATOM     26  C   UNL     1      -7.633  15.437  66.937  0.00  0.00    +0.002 A 
ATOM     27  C   UNL     1      -8.928  20.031  67.307  0.00  0.00    +0.019 A 
ATOM     28  C   UNL     1      -9.920  20.026  66.345  0.00  0.00    +0.005 A 
ATOM     29  C   UNL     1      -7.844  16.716  67.419  0.00  0.00    +0.022 A 
ATOM     30  C   UNL     1     -10.556  18.821  66.063  0.00  0.00    +0.037 A 
ENDBRANCH  17  18
ENDBRANCH  16  17
ENDBRANCH   1  16
TORSDOF 10
ENDMDL
MODEL 6
REMARK VINA RESULT:      -6.4      1.998      6.824
REMARK  Name = 
REMARK  10 active torsions:
REMARK  status: ('A' for Active; 'I' for Inactive)
REMARK    1  A    between atoms: O_2  and  C_3
REMARK    2  A    between atoms: C_8  and  O_9
REMARK    3  A    between atoms: O_9  and  C_10
REMARK    4  A    between atoms: C_10  and  C_11
REMARK    5  A    between atoms: C_11  and  N_12
REMARK    6  A    between atoms: N_12  and  C_13
REMARK    7  A    between atoms: C_13  and  C_14
REMARK    8  A    between atoms: C_14  and  C_16
REMARK    9  A    between atoms: C_16  and  O_17
REMARK   10  A    between atoms: O_17  and  C_18
REMARK                            x       y       z     vdW  Elec       q    Type
REMARK                         _______ _______ _______ _____ _____    ______ ____
ROOT
ATOM      1  C   UNL     1     -11.096  11.447  66.753  0.00  0.00    +0.213 C 
ATOM      2  O   UNL     1     -10.491  10.630  65.626  0.00  0.00    -0.218 OA
ENDROOT
BRANCH   1   3
ATOM      3  C   UNL     1     -10.225  12.782  66.323  0.00  0.00    +0.126 C 
BRANCH   3   4
ATOM      4  N   UNL     1     -11.259  13.676  65.839  0.00  0.00    -0.211 NA
BRANCH   4   5
ATOM      5  C   UNL     1     -10.705  14.519  64.788  0.00  0.00    +0.136 C 
BRANCH   5   6
ATOM      6  C   UNL     1     -11.008  15.954  65.197  0.00  0.00    +0.224 C 
BRANCH   6   7
ATOM      7  O   UNL     1      -9.788  16.579  65.513  0.00  0.00    -0.471 OA
BRANCH   7   9
ATOM      8  C   UNL     1      -9.303  17.406  67.731  0.00  0.00    +0.172 A 
ATOM      9  C   UNL     1      -9.775  17.607  66.449  0.00  0.00    +0.172 A 
ATOM     10  C   UNL     1     -10.133  18.870  66.031  0.00  0.00    +0.040 A 
ATOM     11  C   UNL     1     -10.303  19.904  66.929  0.00  0.00    +0.003 A 
ATOM     12  C   UNL     1     -10.144  19.603  68.275  0.00  0.00    +0.003 A 
ATOM     13  C   UNL     1      -9.635  18.385  68.660  0.00  0.00    +0.040 A 
BRANCH   8  15
ATOM     14  C   UNL     1      -7.690  16.095  69.011  0.00  0.00    +0.253 C 
ATOM     15  O   UNL     1      -8.765  16.181  68.117  0.00  0.00    -0.468 OA
ENDBRANCH   8  15
ENDBRANCH   7   9
ENDBRANCH   6   7
ENDBRANCH   5   6
ENDBRANCH   4   5
ENDBRANCH   3   4
ENDBRANCH   1   3
BRANCH   1  16
ATOM     16  C   UNL     1      -9.981  10.995  67.869  0.00  0.00    +0.240 C 
BRANCH  16  17
ATOM     17  O   UNL     1     -10.343  11.246  69.125  0.00  0.00    -0.473 OA
BRANCH  17  18
ATOM     18  C   UNL     1     -11.300  10.775  69.968  0.00  0.00    +0.140 A 
ATOM     19  C   UNL     1     -12.196  11.712  70.477  0.00  0.00    +0.053 A 
ATOM     20  C   UNL     1     -12.948  11.438  71.610  0.00  0.00    +0.084 A 
ATOM     21  N   UNL     1     -13.327  12.605  72.186  0.00  0.00    -0.245 NA
ATOM     22  C   UNL     1     -12.841  13.645  71.481  0.00  0.00    +0.081 A 
ATOM     23  C   UNL     1     -12.609  14.989  71.735  0.00  0.00    +0.019 A 
ATOM     24  C   UNL     1     -12.437  15.789  70.611  0.00  0.00    +0.002 A 
ATOM     25  C   UNL     1     -11.891  15.271  69.457  0.00  0.00    +0.000 A 
ATOM     26  C   UNL     1     -11.850  13.892  69.294  0.00  0.00    +0.002 A 
ATOM     27  C   UNL     1     -13.253  10.107  71.868  0.00  0.00    +0.019 A 
ATOM     28  C   UNL     1     -12.586   9.132  71.150  0.00  0.00    +0.005 A 
ATOM     29  C   UNL     1     -12.304  13.089  70.325  0.00  0.00    +0.022 A 
ATOM     30  C   UNL     1     -11.447   9.501  70.443  0.00  0.00    +0.037 A 
ENDBRANCH  17  18
ENDBRANCH  16  17
ENDBRANCH   1  16
TORSDOF 10
ENDMDL
MODEL 7
REMARK VINA RESULT:      -6.3      2.369      3.930
REMARK  Name = 
REMARK  10 active torsions:
REMARK  status: ('A' for Active; 'I' for Inactive)
REMARK    1  A    between atoms: O_2  and  C_3
REMARK    2  A    between atoms: C_8  and  O_9
REMARK    3  A    between atoms: O_9  and  C_10
REMARK    4  A    between atoms: C_10  and  C_11
REMARK    5  A    between atoms: C_11  and  N_12
REMARK    6  A    between atoms: N_12  and  C_13
REMARK    7  A    between atoms: C_13  and  C_14
REMARK    8  A    between atoms: C_14  and  C_16
REMARK    9  A    between atoms: C_16  and  O_17
REMARK   10  A    between atoms: O_17  and  C_18
REMARK                            x       y       z     vdW  Elec       q    Type
REMARK                         _______ _______ _______ _____ _____    ______ ____
ROOT
ATOM      1  C   UNL     1     -13.519  15.048  71.011  0.00  0.00    +0.213 C 
ATOM      2  O   UNL     1     -13.918  15.959  72.157  0.00  0.00    -0.218 OA
ENDROOT
BRANCH   1   3
ATOM      3  C   UNL     1     -12.750  14.008  72.037  0.00  0.00    +0.126 C 
BRANCH   3   4
ATOM      4  N   UNL     1     -12.994  12.724  71.406  0.00  0.00    -0.211 NA
BRANCH   4   5
ATOM      5  C   UNL     1     -12.057  12.552  70.304  0.00  0.00    +0.136 C 
BRANCH   5   6
ATOM      6  C   UNL     1     -12.088  11.071  69.954  0.00  0.00    +0.224 C 
BRANCH   6   7
ATOM      7  O   UNL     1     -12.451  10.361  71.113  0.00  0.00    -0.471 OA
BRANCH   7   9
ATOM      8  C   UNL     1     -12.161   8.241  72.236  0.00  0.00    +0.172 A 
ATOM      9  C   UNL     1     -11.639   9.322  71.555  0.00  0.00    +0.172 A 
ATOM     10  C   UNL     1     -10.310   9.338  71.190  0.00  0.00    +0.040 A 
ATOM     11  C   UNL     1      -9.408   8.438  71.720  0.00  0.00    +0.003 A 
ATOM     12  C   UNL     1      -9.889   7.548  72.672  0.00  0.00    +0.003 A 
ATOM     13  C   UNL     1     -11.241   7.443  72.905  0.00  0.00    +0.040 A 
BRANCH   8  15
ATOM     14  C   UNL     1     -14.358   7.410  71.571  0.00  0.00    +0.253 C 
ATOM     15  O   UNL     1     -13.531   8.119  72.452  0.00  0.00    -0.468 OA
ENDBRANCH   8  15
ENDBRANCH   7   9
ENDBRANCH   6   7
ENDBRANCH   5   6
ENDBRANCH   4   5
ENDBRANCH   3   4
ENDBRANCH   1   3
BRANCH   1  16
ATOM     16  C   UNL     1     -12.128  15.849  70.672  0.00  0.00    +0.240 C 
BRANCH  16  17
ATOM     17  O   UNL     1     -12.015  16.216  69.397  0.00  0.00    -0.473 OA
BRANCH  17  18
ATOM     18  C   UNL     1     -11.558  15.631  68.258  0.00  0.00    +0.140 A 
ATOM     19  C   UNL     1     -10.717  16.400  67.458  0.00  0.00    +0.053 A 
ATOM     20  C   UNL     1     -10.504  16.075  66.127  0.00  0.00    +0.084 A 
ATOM     21  N   UNL     1     -10.102  17.182  65.457  0.00  0.00    -0.245 NA
ATOM     22  C   UNL     1     -10.051  18.235  66.297  0.00  0.00    +0.081 A 
ATOM     23  C   UNL     1     -10.045  19.614  66.152  0.00  0.00    +0.019 A 
ATOM     24  C   UNL     1      -9.615  20.330  67.263  0.00  0.00    +0.002 A 
ATOM     25  C   UNL     1      -9.814  19.838  68.536  0.00  0.00    +0.000 A 
ATOM     26  C   UNL     1     -10.107  18.490  68.696  0.00  0.00    +0.002 A 
ATOM     27  C   UNL     1     -10.624  14.738  65.768  0.00  0.00    +0.019 A 
ATOM     28  C   UNL     1     -11.193  13.865  66.677  0.00  0.00    +0.005 A 
ATOM     29  C   UNL     1     -10.249  17.704  67.566  0.00  0.00    +0.022 A 
ATOM     30  C   UNL     1     -11.887  14.402  67.757  0.00  0.00    +0.037 A 
ENDBRANCH  17  18
ENDBRANCH  16  17
ENDBRANCH   1  16
TORSDOF 10
ENDMDL
MODEL 8
REMARK VINA RESULT:      -6.2      1.980      7.422
REMARK  Name = 
REMARK  10 active torsions:
REMARK  status: ('A' for Active; 'I' for Inactive)
REMARK    1  A    between atoms: O_2  and  C_3
REMARK    2  A    between atoms: C_8  and  O_9
REMARK    3  A    between atoms: O_9  and  C_10
REMARK    4  A    between atoms: C_10  and  C_11
REMARK    5  A    between atoms: C_11  and  N_12
REMARK    6  A    between atoms: N_12  and  C_13
REMARK    7  A    between atoms: C_13  and  C_14
REMARK    8  A    between atoms: C_14  and  C_16
REMARK    9  A    between atoms: C_16  and  O_17
REMARK   10  A    between atoms: O_17  and  C_18
REMARK                            x       y       z     vdW  Elec       q    Type
REMARK                         _______ _______ _______ _____ _____    ______ ____
ROOT
ATOM      1  C   UNL     1     -10.541  11.798  66.054  0.00  0.00    +0.213 C 
ATOM      2  O   UNL     1      -9.370  12.504  66.712  0.00  0.00    -0.218 OA
ENDROOT
BRANCH   1   3
ATOM      3  C   UNL     1     -10.625  12.935  64.860  0.00  0.00    +0.126 C 
BRANCH   3   4
ATOM      4  N   UNL     1     -11.735  13.758  65.302  0.00  0.00    -0.211 NA
BRANCH   4   5
ATOM      5  C   UNL     1     -11.603  15.086  64.719  0.00  0.00    +0.136 C 
BRANCH   5   6
ATOM      6  C   UNL     1     -10.347  15.691  65.333  0.00  0.00    +0.224 C 
BRANCH   6   7
ATOM      7  O   UNL     1     -10.719  16.342  66.522  0.00  0.00    -0.471 OA
BRANCH   7   9
ATOM      8  C   UNL     1      -9.134  17.661  67.782  0.00  0.00    +0.172 A 
ATOM      9  C   UNL     1     -10.136  17.564  66.838  0.00  0.00    +0.172 A 
ATOM     10  C   UNL     1     -10.500  18.666  66.095  0.00  0.00    +0.040 A 
ATOM     11  C   UNL     1     -10.094  19.937  66.448  0.00  0.00    +0.003 A 
ATOM     12  C   UNL     1      -9.345  20.061  67.611  0.00  0.00    +0.003 A 
ATOM     13  C   UNL     1      -8.861  18.942  68.248  0.00  0.00    +0.040 A 
BRANCH   8  15
ATOM     14  C   UNL     1      -7.371  16.530  69.035  0.00  0.00    +0.253 C 
ATOM     15  O   UNL     1      -8.626  16.528  68.412  0.00  0.00    -0.468 OA
ENDBRANCH   8  15
ENDBRANCH   7   9
ENDBRANCH   6   7
ENDBRANCH   5   6
ENDBRANCH   4   5
ENDBRANCH   3   4
ENDBRANCH   1   3
BRANCH   1  16
ATOM     16  C   UNL     1     -11.686  12.558  66.951  0.00  0.00    +0.240 C 
BRANCH  16  17
ATOM     17  O   UNL     1     -11.304  12.825  68.198  0.00  0.00    -0.473 OA
BRANCH  17  18
ATOM     18  C   UNL     1     -11.790  13.580  69.219  0.00  0.00    +0.140 A 
ATOM     19  C   UNL     1     -12.103  12.905  70.397  0.00  0.00    +0.053 A 
ATOM     20  C   UNL     1     -12.941  13.475  71.343  0.00  0.00    +0.084 A 
ATOM     21  N   UNL     1     -13.487  12.493  72.102  0.00  0.00    -0.245 NA
ATOM     22  C   UNL     1     -13.048  11.290  71.683  0.00  0.00    +0.081 A 
ATOM     23  C   UNL     1     -13.479   9.979  71.821  0.00  0.00    +0.019 A 
ATOM     24  C   UNL     1     -12.530   9.005  71.535  0.00  0.00    +0.002 A 
ATOM     25  C   UNL     1     -11.539   9.240  70.606  0.00  0.00    +0.000 A 
ATOM     26  C   UNL     1     -11.271  10.550  70.228  0.00  0.00    +0.002 A 
ATOM     27  C   UNL     1     -12.979  14.862  71.412  0.00  0.00    +0.019 A 
ATOM     28  C   UNL     1     -12.398  15.584  70.386  0.00  0.00    +0.005 A 
ATOM     29  C   UNL     1     -12.051  11.564  70.755  0.00  0.00    +0.022 A 
ATOM     30  C   UNL     1     -12.085  14.915  69.208  0.00  0.00    +0.037 A 
ENDBRANCH  17  18
ENDBRANCH  16  17
ENDBRANCH   1  16
TORSDOF 10
ENDMDL
MODEL 9
REMARK VINA RESULT:      -6.2      2.109      4.421
REMARK  Name = 
REMARK  10 active torsions:
REMARK  status: ('A' for Active; 'I' for Inactive)
REMARK    1  A    between atoms: O_2  and  C_3
REMARK    2  A    between atoms: C_8  and  O_9
REMARK    3  A    between atoms: O_9  and  C_10
REMARK    4  A    between atoms: C_10  and  C_11
REMARK    5  A    between atoms: C_11  and  N_12
REMARK    6  A    between atoms: N_12  and  C_13
REMARK    7  A    between atoms: C_13  and  C_14
REMARK    8  A    between atoms: C_14  and  C_16
REMARK    9  A    between atoms: C_16  and  O_17
REMARK   10  A    between atoms: O_17  and  C_18
REMARK                            x       y       z     vdW  Elec       q    Type
REMARK                         _______ _______ _______ _____ _____    ______ ____
ROOT
ATOM      1  C   UNL     1     -11.266  13.904  64.621  0.00  0.00    +0.213 C 
ATOM      2  O   UNL     1     -12.478  14.234  63.769  0.00  0.00    -0.218 OA
ENDROOT
BRANCH   1   3
ATOM      3  C   UNL     1     -12.207  13.631  65.949  0.00  0.00    +0.126 C 
BRANCH   3   4
ATOM      4  N   UNL     1     -12.223  12.181  66.016  0.00  0.00    -0.211 NA
BRANCH   4   5
ATOM      5  C   UNL     1     -10.862  11.701  66.215  0.00  0.00    +0.136 C 
BRANCH   5   6
ATOM      6  C   UNL     1     -10.614  11.754  67.716  0.00  0.00    +0.224 C 
BRANCH   6   7
ATOM      7  O   UNL     1     -11.776  11.294  68.362  0.00  0.00    -0.471 OA
BRANCH   7   9
ATOM      8  C   UNL     1     -12.390  10.993  70.680  0.00  0.00    +0.172 A 
ATOM      9  C   UNL     1     -12.112  11.816  69.606  0.00  0.00    +0.172 A 
ATOM     10  C   UNL     1     -12.045  13.181  69.776  0.00  0.00    +0.040 A 
ATOM     11  C   UNL     1     -12.517  13.788  70.922  0.00  0.00    +0.003 A 
ATOM     12  C   UNL     1     -13.107  12.966  71.874  0.00  0.00    +0.003 A 
ATOM     13  C   UNL     1     -13.022  11.598  71.759  0.00  0.00    +0.040 A 
BRANCH   8  15
ATOM     14  C   UNL     1     -11.103   8.932  70.913  0.00  0.00    +0.253 C 
ATOM     15  O   UNL     1     -12.282   9.609  70.574  0.00  0.00    -0.468 OA
ENDBRANCH   8  15
ENDBRANCH   7   9
ENDBRANCH   6   7
ENDBRANCH   5   6
ENDBRANCH   4   5
ENDBRANCH   3   4
ENDBRANCH   1   3
BRANCH   1  16
ATOM     16  C   UNL     1     -10.976  15.458  65.062  0.00  0.00    +0.240 C 
BRANCH  16  17
ATOM     17  O   UNL     1      -9.721  15.684  65.445  0.00  0.00    -0.473 OA
BRANCH  17  18
ATOM     18  C   UNL     1      -9.011  15.503  66.591  0.00  0.00    +0.140 A 
ATOM     19  C   UNL     1      -8.896  16.608  67.431  0.00  0.00    +0.053 A 
ATOM     20  C   UNL     1      -7.908  16.664  68.402  0.00  0.00    +0.084 A 
ATOM     21  N   UNL     1      -7.670  17.960  68.720  0.00  0.00    -0.245 NA
ATOM     22  C   UNL     1      -8.459  18.767  67.984  0.00  0.00    +0.081 A 
ATOM     23  C   UNL     1      -8.442  20.107  67.626  0.00  0.00    +0.019 A 
ATOM     24  C   UNL     1      -9.646  20.614  67.152  0.00  0.00    +0.002 A 
ATOM     25  C   UNL     1     -10.536  19.802  66.482  0.00  0.00    +0.000 A 
ATOM     26  C   UNL     1     -10.403  18.424  66.595  0.00  0.00    +0.002 A 
ATOM     27  C   UNL     1      -7.452  15.459  68.922  0.00  0.00    +0.019 A 
ATOM     28  C   UNL     1      -7.806  14.291  68.272  0.00  0.00    +0.005 A 
ATOM     29  C   UNL     1      -9.344  17.919  67.328  0.00  0.00    +0.022 A 
ATOM     30  C   UNL     1      -8.327  14.387  66.986  0.00  0.00    +0.037 A 
ENDBRANCH  17  18
ENDBRANCH  16  17
ENDBRANCH   1  16
TORSDOF 10
ENDMDL
