MODEL 1
REMARK VINA RESULT:      -7.2      0.000      0.000
REMARK  Name = 
REMARK  6 active torsions:
REMARK  status: ('A' for Active; 'I' for Inactive)
REMARK    1  A    between atoms: C_5  and  C_6
REMARK    2  A    between atoms: C_6  and  C_7
REMARK    3  A    between atoms: C_6  and  O_13
REMARK    4  A    between atoms: C_7  and  N_8
REMARK    5  A    between atoms: O_13  and  C_14
REMARK    6  A    between atoms: C_14  and  C_15
REMARK                            x       y       z     vdW  Elec       q    Type
REMARK                         _______ _______ _______ _____ _____    ______ ____
ROOT
ATOM      1  C   UNL     1     -11.234  14.168  69.634  0.00  0.00    +0.161 C 
ENDROOT
BRANCH   1   7
ATOM      2 CL   UNL     1     -11.987  12.080  64.135  0.00  0.00    -0.082 Cl
ATOM      3  C   UNL     1     -11.796  12.735  65.678  0.00  0.00    +0.058 A 
ATOM      4  C   UNL     1     -11.463  11.878  66.708  0.00  0.00    +0.023 A 
ATOM      5  C   UNL     1     -11.619  12.287  68.005  0.00  0.00    +0.057 A 
ATOM      6 CL   UNL     1     -11.708  11.135  69.338  0.00  0.00    -0.082 Cl
ATOM      7  C   UNL     1     -12.076  13.542  68.350  0.00  0.00    +0.017 A 
ATOM      8  C   UNL     1     -12.076  14.484  67.324  0.00  0.00    -0.000 A 
ATOM      9  C   UNL     1     -12.220  14.011  66.025  0.00  0.00    +0.011 A 
ENDBRANCH   1   7
BRANCH   1  10
ATOM     10  O   UNL     1     -10.147  14.734  68.685  0.00  0.00    -0.345 OA
BRANCH  10  11
ATOM     11  C   UNL     1      -9.513  15.665  69.480  0.00  0.00    +0.170 C 
BRANCH  11  12
ATOM     12  C   UNL     1      -8.626  16.513  68.619  0.00  0.00    +0.014 A 
ATOM     13  C   UNL     1      -9.035  17.605  67.926  0.00  0.00    +0.006 A 
ATOM     14  C   UNL     1     -10.338  18.074  67.761  0.00  0.00    +0.000 A 
ATOM     15  C   UNL     1     -10.554  19.299  67.200  0.00  0.00    +0.001 A 
ATOM     16  C   UNL     1      -9.662  19.818  66.281  0.00  0.00    +0.012 A 
ATOM     17  C   UNL     1      -8.416  19.204  66.230  0.00  0.00    +0.064 A 
ATOM     18 CL   UNL     1      -7.092  20.103  65.496  0.00  0.00    -0.082 Cl
ATOM     19  C   UNL     1      -8.181  18.040  66.957  0.00  0.00    +0.040 A 
ATOM     20  S   UNL     1      -6.691  17.284  67.335  0.00  0.00    -0.086 S 
ATOM     21  C   UNL     1      -7.268  16.301  68.614  0.00  0.00    +0.034 A 
ENDBRANCH  11  12
ENDBRANCH  10  11
ENDBRANCH   1  10
BRANCH   1  22
ATOM     22  C   UNL     1     -12.079  15.626  69.575  0.00  0.00    +0.142 C 
BRANCH  22  23
ATOM     23  N   UNL     1     -12.683  15.662  70.906  0.00  0.00    -0.305 N 
ATOM     24  C   UNL     1     -13.575  14.720  71.291  0.00  0.00    +0.179 A 
ATOM     25  N   UNL     1     -13.369  14.344  72.554  0.00  0.00    -0.222 NA
ATOM     26  C   UNL     1     -12.419  15.142  73.074  0.00  0.00    +0.119 A 
ATOM     27  C   UNL     1     -12.066  16.025  72.058  0.00  0.00    +0.098 A 
ENDBRANCH  22  23
ENDBRANCH   1  22
TORSDOF 6
ENDMDL
MODEL 2
REMARK VINA RESULT:      -7.0      4.142      7.944
REMARK  Name = 
REMARK  6 active torsions:
REMARK  status: ('A' for Active; 'I' for Inactive)
REMARK    1  A    between atoms: C_5  and  C_6
REMARK    2  A    between atoms: C_6  and  C_7
REMARK    3  A    between atoms: C_6  and  O_13
REMARK    4  A    between atoms: C_7  and  N_8
REMARK    5  A    between atoms: O_13  and  C_14
REMARK    6  A    between atoms: C_14  and  C_15
REMARK                            x       y       z     vdW  Elec       q    Type
REMARK                         _______ _______ _______ _____ _____    ______ ____
ROOT
ATOM      1  C   UNL     1     -10.878  13.685  68.656  0.00  0.00    +0.161 C 
ENDROOT
BRANCH   1   7
ATOM      2 CL   UNL     1     -13.070  16.084  73.616  0.00  0.00    -0.082 Cl
ATOM      3  C   UNL     1     -12.487  15.348  72.214  0.00  0.00    +0.058 A 
ATOM      4  C   UNL     1     -11.646  16.080  71.400  0.00  0.00    +0.023 A 
ATOM      5  C   UNL     1     -11.417  15.663  70.116  0.00  0.00    +0.057 A 
ATOM      6 CL   UNL     1     -10.795  16.759  68.881  0.00  0.00    -0.082 Cl
ATOM      7  C   UNL     1     -11.970  14.517  69.585  0.00  0.00    +0.017 A 
ATOM      8  C   UNL     1     -12.523  13.633  70.509  0.00  0.00    -0.000 A 
ATOM      9  C   UNL     1     -13.014  14.173  71.693  0.00  0.00    +0.011 A 
ENDBRANCH   1   7
BRANCH   1  10
ATOM     10  O   UNL     1     -11.470  12.329  69.118  0.00  0.00    -0.345 OA
BRANCH  10  11
ATOM     11  C   UNL     1     -10.611  11.417  68.542  0.00  0.00    +0.170 C 
BRANCH  11  12
ATOM     12  C   UNL     1     -10.281  10.359  69.553  0.00  0.00    +0.014 A 
ATOM     13  C   UNL     1     -11.174   9.796  70.403  0.00  0.00    +0.006 A 
ATOM     14  C   UNL     1     -12.505  10.160  70.609  0.00  0.00    +0.000 A 
ATOM     15  C   UNL     1     -13.320   9.360  71.357  0.00  0.00    +0.001 A 
ATOM     16  C   UNL     1     -12.800   8.578  72.371  0.00  0.00    +0.012 A 
ATOM     17  C   UNL     1     -11.422   8.398  72.353  0.00  0.00    +0.064 A 
ATOM     18 CL   UNL     1     -10.765   7.038  73.257  0.00  0.00    -0.082 Cl
ATOM     19  C   UNL     1     -10.636   9.112  71.452  0.00  0.00    +0.040 A 
ATOM     20  S   UNL     1      -9.006   8.848  70.993  0.00  0.00    -0.086 S 
ATOM     21  C   UNL     1      -9.034   9.781  69.557  0.00  0.00    +0.034 A 
ENDBRANCH  11  12
ENDBRANCH  10  11
ENDBRANCH   1  10
BRANCH   1  22
ATOM     22  C   UNL     1     -11.897  13.699  67.312  0.00  0.00    +0.142 C 
BRANCH  22  23
ATOM     23  N   UNL     1     -10.984  14.158  66.265  0.00  0.00    -0.305 N 
ATOM     24  C   UNL     1     -11.404  15.011  65.301  0.00  0.00    +0.179 A 
ATOM     25  N   UNL     1     -10.481  15.937  65.037  0.00  0.00    -0.222 NA
ATOM     26  C   UNL     1      -9.370  15.623  65.728  0.00  0.00    +0.119 A 
ATOM     27  C   UNL     1      -9.669  14.452  66.419  0.00  0.00    +0.098 A 
ENDBRANCH  22  23
ENDBRANCH   1  22
TORSDOF 6
ENDMDL
MODEL 3
REMARK VINA RESULT:      -6.9      1.446      2.204
REMARK  Name = 
REMARK  6 active torsions:
REMARK  status: ('A' for Active; 'I' for Inactive)
REMARK    1  A    between atoms: C_5  and  C_6
REMARK    2  A    between atoms: C_6  and  C_7
REMARK    3  A    between atoms: C_6  and  O_13
REMARK    4  A    between atoms: C_7  and  N_8
REMARK    5  A    between atoms: O_13  and  C_14
REMARK    6  A    between atoms: C_14  and  C_15
REMARK                            x       y       z     vdW  Elec       q    Type
REMARK                         _______ _______ _______ _____ _____    ______ ____
ROOT
ATOM      1  C   UNL     1     -11.043  14.223  69.280  0.00  0.00    +0.161 C 
ENDROOT
BRANCH   1   7
ATOM      2 CL   UNL     1     -12.208  12.135  63.853  0.00  0.00    -0.082 Cl
ATOM      3  C   UNL     1     -11.897  12.791  65.376  0.00  0.00    +0.058 A 
ATOM      4  C   UNL     1     -11.566  11.924  66.399  0.00  0.00    +0.023 A 
ATOM      5  C   UNL     1     -11.628  12.355  67.697  0.00  0.00    +0.057 A 
ATOM      6 CL   UNL     1     -11.720  11.223  69.047  0.00  0.00    -0.082 Cl
ATOM      7  C   UNL     1     -11.988  13.639  68.048  0.00  0.00    +0.017 A 
ATOM      8  C   UNL     1     -11.982  14.570  67.012  0.00  0.00    -0.000 A 
ATOM      9  C   UNL     1     -12.222  14.094  65.728  0.00  0.00    +0.011 A 
ENDBRANCH   1   7
BRANCH   1  10
ATOM     10  O   UNL     1     -10.279  15.147  68.297  0.00  0.00    -0.345 OA
BRANCH  10  11
ATOM     11  C   UNL     1      -9.299  15.690  69.100  0.00  0.00    +0.170 C 
BRANCH  11  12
ATOM     12  C   UNL     1      -8.966  17.063  68.596  0.00  0.00    +0.014 A 
ATOM     13  C   UNL     1      -7.726  17.611  68.609  0.00  0.00    +0.006 A 
ATOM     14  C   UNL     1      -6.569  17.096  69.193  0.00  0.00    +0.000 A 
ATOM     15  C   UNL     1      -5.362  17.682  68.941  0.00  0.00    +0.001 A 
ATOM     16  C   UNL     1      -5.281  19.031  68.656  0.00  0.00    +0.012 A 
ATOM     17  C   UNL     1      -6.476  19.653  68.314  0.00  0.00    +0.064 A 
ATOM     18 CL   UNL     1      -6.382  21.186  67.454  0.00  0.00    -0.082 Cl
ATOM     19  C   UNL     1      -7.680  18.961  68.423  0.00  0.00    +0.040 A 
ATOM     20  S   UNL     1      -9.215  19.352  67.772  0.00  0.00    -0.086 S 
ATOM     21  C   UNL     1      -9.918  17.799  67.932  0.00  0.00    +0.034 A 
ENDBRANCH  11  12
ENDBRANCH  10  11
ENDBRANCH   1  10
BRANCH   1  22
ATOM     22  C   UNL     1     -12.134  15.460  69.631  0.00  0.00    +0.142 C 
BRANCH  22  23
ATOM     23  N   UNL     1     -12.532  15.113  70.995  0.00  0.00    -0.305 N 
ATOM     24  C   UNL     1     -11.703  15.338  72.041  0.00  0.00    +0.179 A 
ATOM     25  N   UNL     1     -12.370  15.805  73.097  0.00  0.00    -0.222 NA
ATOM     26  C   UNL     1     -13.684  15.760  72.810  0.00  0.00    +0.119 A 
ATOM     27  C   UNL     1     -13.775  15.235  71.525  0.00  0.00    +0.098 A 
ENDBRANCH  22  23
ENDBRANCH   1  22
TORSDOF 6
ENDMDL
MODEL 4
REMARK VINA RESULT:      -6.8      4.150      7.943
REMARK  Name = 
REMARK  6 active torsions:
REMARK  status: ('A' for Active; 'I' for Inactive)
REMARK    1  A    between atoms: C_5  and  C_6
REMARK    2  A    between atoms: C_6  and  C_7
REMARK    3  A    between atoms: C_6  and  O_13
REMARK    4  A    between atoms: C_7  and  N_8
REMARK    5  A    between atoms: O_13  and  C_14
REMARK    6  A    between atoms: C_14  and  C_15
REMARK                            x       y       z     vdW  Elec       q    Type
REMARK                         _______ _______ _______ _____ _____    ______ ____
ROOT
ATOM      1  C   UNL     1     -10.266  13.336  67.432  0.00  0.00    +0.161 C 
ENDROOT
BRANCH   1   7
ATOM      2 CL   UNL     1     -12.142  16.246  72.246  0.00  0.00    -0.082 Cl
ATOM      3  C   UNL     1     -11.667  15.382  70.878  0.00  0.00    +0.058 A 
ATOM      4  C   UNL     1     -10.530  15.797  70.212  0.00  0.00    +0.023 A 
ATOM      5  C   UNL     1     -10.291  15.352  68.940  0.00  0.00    +0.057 A 
ATOM      6 CL   UNL     1      -9.182  16.192  67.855  0.00  0.00    -0.082 Cl
ATOM      7  C   UNL     1     -11.125  14.474  68.280  0.00  0.00    +0.017 A 
ATOM      8  C   UNL     1     -12.058  13.815  69.078  0.00  0.00    -0.000 A 
ATOM      9  C   UNL     1     -12.486  14.468  70.228  0.00  0.00    +0.011 A 
ENDBRANCH   1   7
BRANCH   1  10
ATOM     10  O   UNL     1     -10.162  12.434  68.688  0.00  0.00    -0.345 OA
BRANCH  10  11
ATOM     11  C   UNL     1      -9.999  11.179  68.141  0.00  0.00    +0.170 C 
BRANCH  11  12
ATOM     12  C   UNL     1      -9.836  10.185  69.252  0.00  0.00    +0.014 A 
ATOM     13  C   UNL     1     -10.816   9.822  70.115  0.00  0.00    +0.006 A 
ATOM     14  C   UNL     1     -12.092  10.371  70.241  0.00  0.00    +0.000 A 
ATOM     15  C   UNL     1     -13.023   9.756  71.026  0.00  0.00    +0.001 A 
ATOM     16  C   UNL     1     -12.636   9.009  72.122  0.00  0.00    +0.012 A 
ATOM     17  C   UNL     1     -11.293   8.652  72.170  0.00  0.00    +0.064 A 
ATOM     18 CL   UNL     1     -10.843   7.307  73.213  0.00  0.00    -0.082 Cl
ATOM     19  C   UNL     1     -10.398   9.172  71.239  0.00  0.00    +0.040 A 
ATOM     20  S   UNL     1      -8.807   8.660  70.864  0.00  0.00    -0.086 S 
ATOM     21  C   UNL     1      -8.677   9.453  69.352  0.00  0.00    +0.034 A 
ENDBRANCH  11  12
ENDBRANCH  10  11
ENDBRANCH   1  10
BRANCH   1  22
ATOM     22  C   UNL     1     -11.667  12.533  66.944  0.00  0.00    +0.142 C 
BRANCH  22  23
ATOM     23  N   UNL     1     -11.724  12.891  65.527  0.00  0.00    -0.305 N 
ATOM     24  C   UNL     1     -10.607  12.890  64.763  0.00  0.00    +0.179 A 
ATOM     25  N   UNL     1     -10.846  12.380  63.555  0.00  0.00    -0.222 NA
ATOM     26  C   UNL     1     -12.169  12.166  63.450  0.00  0.00    +0.119 A 
ATOM     27  C   UNL     1     -12.719  12.580  64.660  0.00  0.00    +0.098 A 
ENDBRANCH  22  23
ENDBRANCH   1  22
TORSDOF 6
ENDMDL
MODEL 5
REMARK VINA RESULT:      -6.7      3.316      6.820
REMARK  Name = 
REMARK  6 active torsions:
REMARK  status: ('A' for Active; 'I' for Inactive)
REMARK    1  A    between atoms: C_5  and  C_6
REMARK    2  A    between atoms: C_6  and  C_7
REMARK    3  A    between atoms: C_6  and  O_13
REMARK    4  A    between atoms: C_7  and  N_8
REMARK    5  A    between atoms: O_13  and  C_14
REMARK    6  A    between atoms: C_14  and  C_15
REMARK                            x       y       z     vdW  Elec       q    Type
REMARK                         _______ _______ _______ _____ _____    ______ ____
ROOT
ATOM      1  C   UNL     1     -12.025  13.640  68.633  0.00  0.00    +0.161 C 
ENDROOT
BRANCH   1   7
ATOM      2 CL   UNL     1      -7.666  16.774  66.114  0.00  0.00    -0.082 Cl
ATOM      3  C   UNL     1      -8.889  15.911  66.891  0.00  0.00    +0.058 A 
ATOM      4  C   UNL     1      -9.771  15.190  66.108  0.00  0.00    +0.023 A 
ATOM      5  C   UNL     1     -10.951  14.754  66.647  0.00  0.00    +0.057 A 
ATOM      6 CL   UNL     1     -12.319  14.291  65.633  0.00  0.00    -0.082 Cl
ATOM      7  C   UNL     1     -11.309  14.976  67.960  0.00  0.00    +0.017 A 
ATOM      8  C   UNL     1     -10.279  15.392  68.801  0.00  0.00    -0.000 A 
ATOM      9  C   UNL     1      -9.232  16.102  68.223  0.00  0.00    +0.011 A 
ENDBRANCH   1   7
BRANCH   1  10
ATOM     10  O   UNL     1     -10.728  12.812  68.446  0.00  0.00    -0.345 OA
BRANCH  10  11
ATOM     11  C   UNL     1     -11.215  11.560  68.137  0.00  0.00    +0.170 C 
BRANCH  11  12
ATOM     12  C   UNL     1     -10.672  10.572  69.126  0.00  0.00    +0.014 A 
ATOM     13  C   UNL     1     -11.395   9.989  70.113  0.00  0.00    +0.006 A 
ATOM     14  C   UNL     1     -12.707  10.271  70.494  0.00  0.00    +0.000 A 
ATOM     15  C   UNL     1     -13.350   9.453  71.377  0.00  0.00    +0.001 A 
ATOM     16  C   UNL     1     -12.639   8.753  72.332  0.00  0.00    +0.012 A 
ATOM     17  C   UNL     1     -11.268   8.665  72.125  0.00  0.00    +0.064 A 
ATOM     18 CL   UNL     1     -10.395   7.392  72.973  0.00  0.00    -0.082 Cl
ATOM     19  C   UNL     1     -10.668   9.388  71.098  0.00  0.00    +0.040 A 
ATOM     20  S   UNL     1      -9.104   9.214  70.422  0.00  0.00    -0.086 S 
ATOM     21  C   UNL     1      -9.398  10.079  68.974  0.00  0.00    +0.034 A 
ENDBRANCH  11  12
ENDBRANCH  10  11
ENDBRANCH   1  10
BRANCH   1  22
ATOM     22  C   UNL     1     -11.549  14.077  70.191  0.00  0.00    +0.142 C 
BRANCH  22  23
ATOM     23  N   UNL     1     -12.844  14.274  70.841  0.00  0.00    -0.305 N 
ATOM     24  C   UNL     1     -13.253  13.458  71.841  0.00  0.00    +0.179 A 
ATOM     25  N   UNL     1     -13.851  14.145  72.815  0.00  0.00    -0.222 NA
ATOM     26  C   UNL     1     -13.975  15.421  72.405  0.00  0.00    +0.119 A 
ATOM     27  C   UNL     1     -13.425  15.466  71.128  0.00  0.00    +0.098 A 
ENDBRANCH  22  23
ENDBRANCH   1  22
TORSDOF 6
ENDMDL
MODEL 6
REMARK VINA RESULT:      -6.7      2.958      4.926
REMARK  Name = 
REMARK  6 active torsions:
REMARK  status: ('A' for Active; 'I' for Inactive)
REMARK    1  A    between atoms: C_5  and  C_6
REMARK    2  A    between atoms: C_6  and  C_7
REMARK    3  A    between atoms: C_6  and  O_13
REMARK    4  A    between atoms: C_7  and  N_8
REMARK    5  A    between atoms: O_13  and  C_14
REMARK    6  A    between atoms: C_14  and  C_15
REMARK                            x       y       z     vdW  Elec       q    Type
REMARK                         _______ _______ _______ _____ _____    ______ ____
ROOT
ATOM      1  C   UNL     1     -10.901  14.474  67.140  0.00  0.00    +0.161 C 
ENDROOT
BRANCH   1   7
ATOM      2 CL   UNL     1     -12.001  15.603  72.856  0.00  0.00    -0.082 Cl
ATOM      3  C   UNL     1     -11.723  15.223  71.236  0.00  0.00    +0.058 A 
ATOM      4  C   UNL     1     -11.137  16.186  70.437  0.00  0.00    +0.023 A 
ATOM      5  C   UNL     1     -11.192  16.057  69.075  0.00  0.00    +0.057 A 
ATOM      6 CL   UNL     1     -10.938  17.435  68.002  0.00  0.00    -0.082 Cl
ATOM      7  C   UNL     1     -11.790  14.988  68.442  0.00  0.00    +0.017 A 
ATOM      8  C   UNL     1     -12.061  13.886  69.250  0.00  0.00    -0.000 A 
ATOM      9  C   UNL     1     -12.291  14.128  70.600  0.00  0.00    +0.011 A 
ENDBRANCH   1   7
BRANCH   1  10
ATOM     10  O   UNL     1      -9.764  13.981  68.071  0.00  0.00    -0.345 OA
BRANCH  10  11
ATOM     11  C   UNL     1      -8.635  14.220  67.316  0.00  0.00    +0.170 C 
BRANCH  11  12
ATOM     12  C   UNL     1      -7.780  15.225  68.029  0.00  0.00    +0.014 A 
ATOM     13  C   UNL     1      -7.517  16.476  67.576  0.00  0.00    +0.006 A 
ATOM     14  C   UNL     1      -7.855  17.027  66.341  0.00  0.00    +0.000 A 
ATOM     15  C   UNL     1      -7.688  18.364  66.124  0.00  0.00    +0.001 A 
ATOM     16  C   UNL     1      -6.700  19.066  66.787  0.00  0.00    +0.012 A 
ATOM     17  C   UNL     1      -6.144  18.433  67.893  0.00  0.00    +0.064 A 
ATOM     18 CL   UNL     1      -5.291  19.435  69.063  0.00  0.00    -0.082 Cl
ATOM     19  C   UNL     1      -6.473  17.111  68.181  0.00  0.00    +0.040 A 
ATOM     20  S   UNL     1      -6.209  16.219  69.619  0.00  0.00    -0.086 S 
ATOM     21  C   UNL     1      -7.329  14.963  69.300  0.00  0.00    +0.034 A 
ENDBRANCH  11  12
ENDBRANCH  10  11
ENDBRANCH   1  10
BRANCH   1  22
ATOM     22  C   UNL     1     -11.612  12.945  67.161  0.00  0.00    +0.142 C 
BRANCH  22  23
ATOM     23  N   UNL     1     -12.188  12.878  65.818  0.00  0.00    -0.305 N 
ATOM     24  C   UNL     1     -12.758  13.966  65.249  0.00  0.00    +0.179 A 
ATOM     25  N   UNL     1     -12.438  14.062  63.959  0.00  0.00    -0.222 NA
ATOM     26  C   UNL     1     -11.761  12.951  63.615  0.00  0.00    +0.119 A 
ATOM     27  C   UNL     1     -11.694  12.175  64.768  0.00  0.00    +0.098 A 
ENDBRANCH  22  23
ENDBRANCH   1  22
TORSDOF 6
ENDMDL
MODEL 7
REMARK VINA RESULT:      -6.7      2.562      4.828
REMARK  Name = 
REMARK  6 active torsions:
REMARK  status: ('A' for Active; 'I' for Inactive)
REMARK    1  A    between atoms: C_5  and  C_6
REMARK    2  A    between atoms: C_6  and  C_7
REMARK    3  A    between atoms: C_6  and  O_13
REMARK    4  A    between atoms: C_7  and  N_8
REMARK    5  A    between atoms: O_13  and  C_14
REMARK    6  A    between atoms: C_14  and  C_15
REMARK                            x       y       z     vdW  Elec       q    Type
REMARK                         _______ _______ _______ _____ _____    ______ ____
ROOT
ATOM      1  C   UNL     1     -11.911  14.617  68.568  0.00  0.00    +0.161 C 
ENDROOT
BRANCH   1   7
ATOM      2 CL   UNL     1     -12.689  15.636  74.358  0.00  0.00    -0.082 Cl
ATOM      3  C   UNL     1     -12.436  15.406  72.706  0.00  0.00    +0.058 A 
ATOM      4  C   UNL     1     -12.760  14.177  72.166  0.00  0.00    +0.023 A 
ATOM      5  C   UNL     1     -12.277  13.833  70.932  0.00  0.00    +0.057 A 
ATOM      6 CL   UNL     1     -12.210  12.153  70.398  0.00  0.00    -0.082 Cl
ATOM      7  C   UNL     1     -11.488  14.669  70.171  0.00  0.00    +0.017 A 
ATOM      8  C   UNL     1     -11.461  16.002  70.574  0.00  0.00    -0.000 A 
ATOM      9  C   UNL     1     -11.673  16.263  71.923  0.00  0.00    +0.011 A 
ENDBRANCH   1   7
BRANCH   1  10
ATOM     10  O   UNL     1     -11.490  16.096  68.377  0.00  0.00    -0.345 OA
BRANCH  10  11
ATOM     11  C   UNL     1     -10.657  16.030  67.281  0.00  0.00    +0.170 C 
BRANCH  11  12
ATOM     12  C   UNL     1      -9.962  17.349  67.120  0.00  0.00    +0.014 A 
ATOM     13  C   UNL     1      -8.785  17.679  67.707  0.00  0.00    +0.006 A 
ATOM     14  C   UNL     1      -8.067  16.950  68.655  0.00  0.00    +0.000 A 
ATOM     15  C   UNL     1      -6.803  17.335  68.994  0.00  0.00    +0.001 A 
ATOM     16  C   UNL     1      -6.429  18.663  68.925  0.00  0.00    +0.012 A 
ATOM     17  C   UNL     1      -7.270  19.492  68.191  0.00  0.00    +0.064 A 
ATOM     18 CL   UNL     1      -6.614  21.026  67.628  0.00  0.00    -0.082 Cl
ATOM     19  C   UNL     1      -8.485  19.009  67.713  0.00  0.00    +0.040 A 
ATOM     20  S   UNL     1      -9.528  19.684  66.533  0.00  0.00    -0.086 S 
ATOM     21  C   UNL     1     -10.431  18.265  66.209  0.00  0.00    +0.034 A 
ENDBRANCH  11  12
ENDBRANCH  10  11
ENDBRANCH   1  10
BRANCH   1  22
ATOM     22  C   UNL     1     -10.376  14.096  68.102  0.00  0.00    +0.142 C 
BRANCH  22  23
ATOM     23  N   UNL     1     -10.693  12.837  67.428  0.00  0.00    -0.305 N 
ATOM     24  C   UNL     1     -11.904  12.639  66.856  0.00  0.00    +0.179 A 
ATOM     25  N   UNL     1     -11.790  12.011  65.685  0.00  0.00    -0.222 NA
ATOM     26  C   UNL     1     -10.503  11.653  65.530  0.00  0.00    +0.119 A 
ATOM     27  C   UNL     1      -9.844  12.094  66.674  0.00  0.00    +0.098 A 
ENDBRANCH  22  23
ENDBRANCH   1  22
TORSDOF 6
ENDMDL
MODEL 8
REMARK VINA RESULT:      -6.7      2.293      6.222
REMARK  Name = 
REMARK  6 active torsions:
REMARK  status: ('A' for Active; 'I' for Inactive)
REMARK    1  A    between atoms: C_5  and  C_6
REMARK    2  A    between atoms: C_6  and  C_7
REMARK    3  A    between atoms: C_6  and  O_13
REMARK    4  A    between atoms: C_7  and  N_8
REMARK    5  A    between atoms: O_13  and  C_14
REMARK    6  A    between atoms: C_14  and  C_15
REMARK                            x       y       z     vdW  Elec       q    Type
REMARK                         _______ _______ _______ _____ _____    ______ ____
ROOT
ATOM      1  C   UNL     1     -11.354  16.253  68.815  0.00  0.00    +0.161 C 
ENDROOT
BRANCH   1   7
ATOM      2 CL   UNL     1      -5.887  17.336  66.789  0.00  0.00    -0.082 Cl
ATOM      3  C   UNL     1      -7.415  16.989  67.415  0.00  0.00    +0.058 A 
ATOM      4  C   UNL     1      -8.499  17.664  66.888  0.00  0.00    +0.023 A 
ATOM      5  C   UNL     1      -9.688  17.668  67.568  0.00  0.00    +0.057 A 
ATOM      6 CL   UNL     1     -10.932  18.878  67.253  0.00  0.00    -0.082 Cl
ATOM      7  C   UNL     1      -9.876  17.003  68.761  0.00  0.00    +0.017 A 
ATOM      8  C   UNL     1      -8.897  16.068  69.089  0.00  0.00    -0.000 A 
ATOM      9  C   UNL     1      -7.616  16.288  68.597  0.00  0.00    +0.011 A 
ENDBRANCH   1   7
BRANCH   1  10
ATOM     10  O   UNL     1     -10.805  15.045  68.014  0.00  0.00    -0.345 OA
BRANCH  10  11
ATOM     11  C   UNL     1     -11.957  14.453  67.542  0.00  0.00    +0.170 C 
BRANCH  11  12
ATOM     12  C   UNL     1     -11.620  13.088  67.019  0.00  0.00    +0.014 A 
ATOM     13  C   UNL     1     -11.455  11.984  67.789  0.00  0.00    +0.006 A 
ATOM     14  C   UNL     1     -11.427  11.909  69.181  0.00  0.00    +0.000 A 
ATOM     15  C   UNL     1     -11.451  10.691  69.797  0.00  0.00    +0.001 A 
ATOM     16  C   UNL     1     -10.918   9.578  69.175  0.00  0.00    +0.012 A 
ATOM     17  C   UNL     1     -10.684   9.699  67.810  0.00  0.00    +0.064 A 
ATOM     18 CL   UNL     1     -10.513   8.216  66.877  0.00  0.00    -0.082 Cl
ATOM     19  C   UNL     1     -10.837  10.932  67.181  0.00  0.00    +0.040 A 
ATOM     20  S   UNL     1     -10.942  11.287  65.509  0.00  0.00    -0.086 S 
ATOM     21  C   UNL     1     -11.613  12.855  65.664  0.00  0.00    +0.034 A 
ENDBRANCH  11  12
ENDBRANCH  10  11
ENDBRANCH   1  10
BRANCH   1  22
ATOM     22  C   UNL     1     -10.993  15.480  70.270  0.00  0.00    +0.142 C 
BRANCH  22  23
ATOM     23  N   UNL     1     -12.127  15.887  71.100  0.00  0.00    -0.305 N 
ATOM     24  C   UNL     1     -13.323  15.262  70.999  0.00  0.00    +0.179 A 
ATOM     25  N   UNL     1     -13.875  15.073  72.198  0.00  0.00    -0.222 NA
ATOM     26  C   UNL     1     -13.111  15.703  73.109  0.00  0.00    +0.119 A 
ATOM     27  C   UNL     1     -12.071  16.289  72.395  0.00  0.00    +0.098 A 
ENDBRANCH  22  23
ENDBRANCH   1  22
TORSDOF 6
ENDMDL
MODEL 9
REMARK VINA RESULT:      -6.7      3.703      7.289
REMARK  Name = 
REMARK  6 active torsions:
REMARK  status: ('A' for Active; 'I' for Inactive)
REMARK    1  A    between atoms: C_5  and  C_6
REMARK    2  A    between atoms: C_6  and  C_7
REMARK    3  A    between atoms: C_6  and  O_13
REMARK    4  A    between atoms: C_7  and  N_8
REMARK    5  A    between atoms: O_13  and  C_14
REMARK    6  A    between atoms: C_14  and  C_15
REMARK                            x       y       z     vdW  Elec       q    Type
REMARK                         _______ _______ _______ _____ _____    ______ ____
ROOT
ATOM      1  C   UNL     1     -11.922  13.002  66.879  0.00  0.00    +0.161 C 
ENDROOT
BRANCH   1   7
ATOM      2 CL   UNL     1      -9.534  10.218  62.220  0.00  0.00    -0.082 Cl
ATOM      3  C   UNL     1     -10.168  10.978  63.586  0.00  0.00    +0.058 A 
ATOM      4  C   UNL     1     -11.114  11.966  63.396  0.00  0.00    +0.023 A 
ATOM      5  C   UNL     1     -11.410  12.824  64.421  0.00  0.00    +0.057 A 
ATOM      6 CL   UNL     1     -12.194  14.378  64.133  0.00  0.00    -0.082 Cl
ATOM      7  C   UNL     1     -10.822  12.743  65.666  0.00  0.00    +0.017 A 
ATOM      8  C   UNL     1     -10.144  11.556  65.934  0.00  0.00    -0.000 A 
ATOM      9  C   UNL     1      -9.604  10.872  64.850  0.00  0.00    +0.011 A 
ENDBRANCH   1   7
BRANCH   1  10
ATOM     10  O   UNL     1     -11.605  11.619  67.504  0.00  0.00    -0.345 OA
BRANCH  10  11
ATOM     11  C   UNL     1     -11.723  11.867  68.855  0.00  0.00    +0.170 C 
BRANCH  11  12
ATOM     12  C   UNL     1     -11.092  10.738  69.612  0.00  0.00    +0.014 A 
ATOM     13  C   UNL     1     -11.727   9.977  70.538  0.00  0.00    +0.006 A 
ATOM     14  C   UNL     1     -13.006  10.161  71.064  0.00  0.00    +0.000 A 
ATOM     15  C   UNL     1     -13.567   9.189  71.841  0.00  0.00    +0.001 A 
ATOM     16  C   UNL     1     -12.774   8.352  72.602  0.00  0.00    +0.012 A 
ATOM     17  C   UNL     1     -11.423   8.332  72.275  0.00  0.00    +0.064 A 
ATOM     18 CL   UNL     1     -10.472   6.953  72.819  0.00  0.00    -0.082 Cl
ATOM     19  C   UNL     1     -10.916   9.234  71.343  0.00  0.00    +0.040 A 
ATOM     20  S   UNL     1      -9.411   9.214  70.526  0.00  0.00    -0.086 S 
ATOM     21  C   UNL     1      -9.831  10.307  69.276  0.00  0.00    +0.034 A 
ENDBRANCH  11  12
ENDBRANCH  10  11
ENDBRANCH   1  10
BRANCH   1  22
ATOM     22  C   UNL     1     -10.772  13.738  67.869  0.00  0.00    +0.142 C 
BRANCH  22  23
ATOM     23  N   UNL     1     -11.124  15.149  67.717  0.00  0.00    -0.305 N 
ATOM     24  C   UNL     1     -11.600  15.865  68.762  0.00  0.00    +0.179 A 
ATOM     25  N   UNL     1     -11.078  17.091  68.789  0.00  0.00    -0.222 NA
ATOM     26  C   UNL     1     -10.350  17.256  67.670  0.00  0.00    +0.119 A 
ATOM     27  C   UNL     1     -10.466  16.064  66.961  0.00  0.00    +0.098 A 
ENDBRANCH  22  23
ENDBRANCH   1  22
TORSDOF 6
ENDMDL
