MODEL 1
REMARK VINA RESULT:      -3.6      0.000      0.000
REMARK  Name = 
REMARK  1 active torsions:
REMARK  status: ('A' for Active; 'I' for Inactive)
REMARK    1  A    between atoms: C_2  and  C_4
REMARK                            x       y       z     vdW  Elec       q    Type
REMARK                         _______ _______ _______ _____ _____    ______ ____
ROOT
ATOM      1  C   UNL     1     -10.349  15.362  65.544  0.00  0.00    +0.085 C 
ATOM      2  C   UNL     1     -11.430  15.523  64.552  0.00  0.00    +0.252 C 
ATOM      3  O   UNL     1     -11.604  16.584  63.922  0.00  0.00    -0.284 OA
ENDROOT
BRANCH   2   4
ATOM      4  C   UNL     1     -12.382  14.411  64.445  0.00  0.00    +0.422 C 
ATOM      5  O   UNL     1     -12.527  13.760  63.229  0.00  0.00    -0.237 OA
ATOM      6  O   UNL     1     -13.057  14.093  65.464  0.00  0.00    -0.237 OA
ENDBRANCH   2   4
TORSDOF 1
ENDMDL
MODEL 2
REMARK VINA RESULT:      -3.6      7.589      8.284
REMARK  Name = 
REMARK  1 active torsions:
REMARK  status: ('A' for Active; 'I' for Inactive)
REMARK    1  A    between atoms: C_2  and  C_4
REMARK                            x       y       z     vdW  Elec       q    Type
REMARK                         _______ _______ _______ _____ _____    ______ ____
ROOT
ATOM      1  C   UNL     1     -11.889  15.973  71.878  0.00  0.00    +0.085 C 
ATOM      2  C   UNL     1     -13.057  15.803  72.765  0.00  0.00    +0.252 C 
ATOM      3  O   UNL     1     -13.072  16.227  73.936  0.00  0.00    -0.284 OA
ENDROOT
BRANCH   2   4
ATOM      4  C   UNL     1     -14.154  14.982  72.238  0.00  0.00    +0.422 C 
ATOM      5  O   UNL     1     -14.190  13.628  72.540  0.00  0.00    -0.237 OA
ATOM      6  O   UNL     1     -15.024  15.532  71.506  0.00  0.00    -0.237 OA
ENDBRANCH   2   4
TORSDOF 1
ENDMDL
MODEL 3
REMARK VINA RESULT:      -3.6      7.990      8.337
REMARK  Name = 
REMARK  1 active torsions:
REMARK  status: ('A' for Active; 'I' for Inactive)
REMARK    1  A    between atoms: C_2  and  C_4
REMARK                            x       y       z     vdW  Elec       q    Type
REMARK                         _______ _______ _______ _____ _____    ______ ____
ROOT
ATOM      1  C   UNL     1     -12.460  15.580  74.281  0.00  0.00    +0.085 C 
ATOM      2  C   UNL     1     -12.700  15.627  72.825  0.00  0.00    +0.252 C 
ATOM      3  O   UNL     1     -11.973  16.279  72.051  0.00  0.00    -0.284 OA
ENDROOT
BRANCH   2   4
ATOM      4  C   UNL     1     -13.928  14.978  72.351  0.00  0.00    +0.422 C 
ATOM      5  O   UNL     1     -14.107  13.622  72.581  0.00  0.00    -0.237 OA
ATOM      6  O   UNL     1     -14.777  15.673  71.725  0.00  0.00    -0.237 OA
ENDBRANCH   2   4
TORSDOF 1
ENDMDL
MODEL 4
REMARK VINA RESULT:      -3.6      8.154      8.856
REMARK  Name = 
REMARK  1 active torsions:
REMARK  status: ('A' for Active; 'I' for Inactive)
REMARK    1  A    between atoms: C_2  and  C_4
REMARK                            x       y       z     vdW  Elec       q    Type
REMARK                         _______ _______ _______ _____ _____    ______ ____
ROOT
ATOM      1  C   UNL     1     -13.618  13.742  72.412  0.00  0.00    +0.085 C 
ATOM      2  C   UNL     1     -13.792  15.206  72.490  0.00  0.00    +0.252 C 
ATOM      3  O   UNL     1     -14.738  15.796  71.933  0.00  0.00    -0.284 OA
ENDROOT
BRANCH   2   4
ATOM      4  C   UNL     1     -12.709  15.951  73.143  0.00  0.00    +0.422 C 
ATOM      5  O   UNL     1     -12.709  16.071  74.525  0.00  0.00    -0.237 OA
ATOM      6  O   UNL     1     -11.818  16.481  72.421  0.00  0.00    -0.237 OA
ENDBRANCH   2   4
TORSDOF 1
ENDMDL
MODEL 5
REMARK VINA RESULT:      -3.5      1.170      2.558
REMARK  Name = 
REMARK  1 active torsions:
REMARK  status: ('A' for Active; 'I' for Inactive)
REMARK    1  A    between atoms: C_2  and  C_4
REMARK                            x       y       z     vdW  Elec       q    Type
REMARK                         _______ _______ _______ _____ _____    ______ ____
ROOT
ATOM      1  C   UNL     1     -12.271  13.529  65.793  0.00  0.00    +0.085 C 
ATOM      2  C   UNL     1     -12.130  14.329  64.561  0.00  0.00    +0.252 C 
ATOM      3  O   UNL     1     -12.627  13.974  63.475  0.00  0.00    -0.284 OA
ENDROOT
BRANCH   2   4
ATOM      4  C   UNL     1     -11.250  15.501  64.648  0.00  0.00    +0.422 C 
ATOM      5  O   UNL     1     -11.581  16.649  63.944  0.00  0.00    -0.237 OA
ATOM      6  O   UNL     1     -10.203  15.419  65.349  0.00  0.00    -0.237 OA
ENDBRANCH   2   4
TORSDOF 1
ENDMDL
MODEL 6
REMARK VINA RESULT:      -3.5      7.162      8.079
REMARK  Name = 
REMARK  1 active torsions:
REMARK  status: ('A' for Active; 'I' for Inactive)
REMARK    1  A    between atoms: C_2  and  C_4
REMARK                            x       y       z     vdW  Elec       q    Type
REMARK                         _______ _______ _______ _____ _____    ______ ____
ROOT
ATOM      1  C   UNL     1     -12.627  15.052  73.639  0.00  0.00    +0.085 C 
ATOM      2  C   UNL     1     -13.533  14.443  72.645  0.00  0.00    +0.252 C 
ATOM      3  O   UNL     1     -13.811  13.229  72.653  0.00  0.00    -0.284 OA
ENDROOT
BRANCH   2   4
ATOM      4  C   UNL     1     -13.981  15.319  71.556  0.00  0.00    +0.422 C 
ATOM      5  O   UNL     1     -13.034  15.939  70.754  0.00  0.00    -0.237 OA
ATOM      6  O   UNL     1     -15.220  15.499  71.396  0.00  0.00    -0.237 OA
ENDBRANCH   2   4
TORSDOF 1
ENDMDL
MODEL 7
REMARK VINA RESULT:      -3.4     10.499     11.772
REMARK  Name = 
REMARK  1 active torsions:
REMARK  status: ('A' for Active; 'I' for Inactive)
REMARK    1  A    between atoms: C_2  and  C_4
REMARK                            x       y       z     vdW  Elec       q    Type
REMARK                         _______ _______ _______ _____ _____    ______ ____
ROOT
ATOM      1  C   UNL     1      -6.011  20.107  70.314  0.00  0.00    +0.085 C 
ATOM      2  C   UNL     1      -5.118  19.682  71.410  0.00  0.00    +0.252 C 
ATOM      3  O   UNL     1      -5.218  18.566  71.956  0.00  0.00    -0.284 OA
ENDROOT
BRANCH   2   4
ATOM      4  C   UNL     1      -4.192  20.699  71.920  0.00  0.00    +0.422 C 
ATOM      5  O   UNL     1      -4.422  22.034  71.621  0.00  0.00    -0.237 OA
ATOM      6  O   UNL     1      -3.196  20.324  72.601  0.00  0.00    -0.237 OA
ENDBRANCH   2   4
TORSDOF 1
ENDMDL
MODEL 8
REMARK VINA RESULT:      -3.3      2.467      3.287
REMARK  Name = 
REMARK  1 active torsions:
REMARK  status: ('A' for Active; 'I' for Inactive)
REMARK    1  A    between atoms: C_2  and  C_4
REMARK                            x       y       z     vdW  Elec       q    Type
REMARK                         _______ _______ _______ _____ _____    ______ ____
ROOT
ATOM      1  C   UNL     1     -10.692  12.232  63.628  0.00  0.00    +0.085 C 
ATOM      2  C   UNL     1     -12.131  12.279  63.956  0.00  0.00    +0.252 C 
ATOM      3  O   UNL     1     -13.011  11.925  63.147  0.00  0.00    -0.284 OA
ENDROOT
BRANCH   2   4
ATOM      4  C   UNL     1     -12.482  12.899  65.239  0.00  0.00    +0.422 C 
ATOM      5  O   UNL     1     -12.125  12.260  66.418  0.00  0.00    -0.237 OA
ATOM      6  O   UNL     1     -13.120  13.988  65.230  0.00  0.00    -0.237 OA
ENDBRANCH   2   4
TORSDOF 1
ENDMDL
MODEL 9
REMARK VINA RESULT:      -3.3      1.543      2.069
REMARK  Name = 
REMARK  1 active torsions:
REMARK  status: ('A' for Active; 'I' for Inactive)
REMARK    1  A    between atoms: C_2  and  C_4
REMARK                            x       y       z     vdW  Elec       q    Type
REMARK                         _______ _______ _______ _____ _____    ______ ____
ROOT
ATOM      1  C   UNL     1     -10.687  14.613  65.260  0.00  0.00    +0.085 C 
ATOM      2  C   UNL     1     -11.979  14.201  64.677  0.00  0.00    +0.252 C 
ATOM      3  O   UNL     1     -12.645  14.949  63.935  0.00  0.00    -0.284 OA
ENDROOT
BRANCH   2   4
ATOM      4  C   UNL     1     -12.510  12.910  65.131  0.00  0.00    +0.422 C 
ATOM      5  O   UNL     1     -12.116  12.413  66.364  0.00  0.00    -0.237 OA
ATOM      6  O   UNL     1     -13.296  12.279  64.371  0.00  0.00    -0.237 OA
ENDBRANCH   2   4
TORSDOF 1
ENDMDL
