MODEL 1
REMARK VINA RESULT:      -4.6      0.000      0.000
REMARK  Name = 
REMARK  3 active torsions:
REMARK  status: ('A' for Active; 'I' for Inactive)
REMARK    1  A    between atoms: N_2  and  C_3
REMARK    2  A    between atoms: C_3  and  C_5
REMARK    3  A    between atoms: C_5  and  C_6
REMARK                            x       y       z     vdW  Elec       q    Type
REMARK                         _______ _______ _______ _____ _____    ______ ____
ROOT
ATOM      1  C   UNL     1     -12.560  12.876  70.916  0.00  0.00    -0.021 A 
ATOM      2  C   UNL     1     -11.826  12.485  69.821  0.00  0.00    -0.004 A 
ATOM      3  C   UNL     1     -11.534  11.144  69.631  0.00  0.00    -0.000 A 
ATOM      4  C   UNL     1     -12.060  10.221  70.518  0.00  0.00    -0.000 A 
ATOM      5  C   UNL     1     -12.933  10.594  71.537  0.00  0.00    -0.000 A 
ATOM      6  C   UNL     1     -13.007  11.950  71.826  0.00  0.00    -0.004 A 
ENDROOT
BRANCH   1   7
ATOM      7  C   UNL     1     -12.374  14.281  71.398  0.00  0.00    +0.044 C 
BRANCH   7   8
ATOM      8  C   UNL     1     -13.519  14.291  72.613  0.00  0.00    +0.077 C 
ATOM      9  C   UNL     1     -12.547  15.244  73.579  0.00  0.00    +0.019 C 
BRANCH   8  11
ATOM     10  C   UNL     1     -15.161  15.242  71.462  0.00  0.00    +0.107 C 
ATOM     11  N   UNL     1     -14.230  15.580  71.988  0.00  0.00    -0.218 NA
ENDBRANCH   8  11
ENDBRANCH   7   8
ENDBRANCH   1   7
TORSDOF 3
ENDMDL
MODEL 2
REMARK VINA RESULT:      -4.5      3.036      4.746
REMARK  Name = 
REMARK  3 active torsions:
REMARK  status: ('A' for Active; 'I' for Inactive)
REMARK    1  A    between atoms: N_2  and  C_3
REMARK    2  A    between atoms: C_3  and  C_5
REMARK    3  A    between atoms: C_5  and  C_6
REMARK                            x       y       z     vdW  Elec       q    Type
REMARK                         _______ _______ _______ _____ _____    ______ ____
ROOT
ATOM      1  C   UNL     1     -12.601  15.514  70.788  0.00  0.00    -0.021 A 
ATOM      2  C   UNL     1     -13.441  14.493  71.168  0.00  0.00    -0.004 A 
ATOM      3  C   UNL     1     -13.551  14.154  72.507  0.00  0.00    -0.000 A 
ATOM      4  C   UNL     1     -12.861  14.910  73.439  0.00  0.00    -0.000 A 
ATOM      5  C   UNL     1     -12.134  16.041  73.076  0.00  0.00    -0.000 A 
ATOM      6  C   UNL     1     -11.867  16.201  71.723  0.00  0.00    -0.004 A 
ENDROOT
BRANCH   1   7
ATOM      7  C   UNL     1     -12.074  15.479  69.388  0.00  0.00    +0.044 C 
BRANCH   7   8
ATOM      8  C   UNL     1     -10.664  16.344  69.621  0.00  0.00    +0.077 C 
ATOM      9  C   UNL     1      -9.788  15.238  68.730  0.00  0.00    +0.019 C 
BRANCH   8  11
ATOM     10  C   UNL     1     -10.180  18.049  68.286  0.00  0.00    +0.107 C 
ATOM     11  N   UNL     1     -10.945  17.230  68.319  0.00  0.00    -0.218 NA
ENDBRANCH   8  11
ENDBRANCH   7   8
ENDBRANCH   1   7
TORSDOF 3
ENDMDL
MODEL 3
REMARK VINA RESULT:      -4.4      2.253      3.827
REMARK  Name = 
REMARK  3 active torsions:
REMARK  status: ('A' for Active; 'I' for Inactive)
REMARK    1  A    between atoms: N_2  and  C_3
REMARK    2  A    between atoms: C_3  and  C_5
REMARK    3  A    between atoms: C_5  and  C_6
REMARK                            x       y       z     vdW  Elec       q    Type
REMARK                         _______ _______ _______ _____ _____    ______ ____
ROOT
ATOM      1  C   UNL     1     -11.786  14.583  70.108  0.00  0.00    -0.021 A 
ATOM      2  C   UNL     1     -11.896  14.074  68.835  0.00  0.00    -0.004 A 
ATOM      3  C   UNL     1     -11.512  14.846  67.750  0.00  0.00    -0.000 A 
ATOM      4  C   UNL     1     -10.952  16.090  67.988  0.00  0.00    -0.000 A 
ATOM      5  C   UNL     1     -10.693  16.544  69.278  0.00  0.00    -0.000 A 
ATOM      6  C   UNL     1     -11.299  15.849  70.316  0.00  0.00    -0.004 A 
ENDROOT
BRANCH   1   7
ATOM      7  C   UNL     1     -12.695  14.014  71.152  0.00  0.00    +0.044 C 
BRANCH   7   8
ATOM      8  C   UNL     1     -13.183  15.438  71.874  0.00  0.00    +0.077 C 
ATOM      9  C   UNL     1     -14.790  15.058  71.635  0.00  0.00    +0.019 C 
BRANCH   8  11
ATOM     10  C   UNL     1     -12.449  15.286  73.963  0.00  0.00    +0.107 C 
ATOM     11  N   UNL     1     -13.194  14.750  73.318  0.00  0.00    -0.218 NA
ENDBRANCH   8  11
ENDBRANCH   7   8
ENDBRANCH   1   7
TORSDOF 3
ENDMDL
MODEL 4
REMARK VINA RESULT:      -4.3      1.764      2.972
REMARK  Name = 
REMARK  3 active torsions:
REMARK  status: ('A' for Active; 'I' for Inactive)
REMARK    1  A    between atoms: N_2  and  C_3
REMARK    2  A    between atoms: C_3  and  C_5
REMARK    3  A    between atoms: C_5  and  C_6
REMARK                            x       y       z     vdW  Elec       q    Type
REMARK                         _______ _______ _______ _____ _____    ______ ____
ROOT
ATOM      1  C   UNL     1     -11.851  13.682  69.832  0.00  0.00    -0.021 A 
ATOM      2  C   UNL     1     -11.734  12.375  69.423  0.00  0.00    -0.004 A 
ATOM      3  C   UNL     1     -11.713  12.076  68.070  0.00  0.00    -0.000 A 
ATOM      4  C   UNL     1     -11.736  13.121  67.162  0.00  0.00    -0.000 A 
ATOM      5  C   UNL     1     -11.696  14.451  67.571  0.00  0.00    -0.000 A 
ATOM      6  C   UNL     1     -11.949  14.697  68.913  0.00  0.00    -0.004 A 
ENDROOT
BRANCH   1   7
ATOM      7  C   UNL     1     -12.432  13.924  71.191  0.00  0.00    +0.044 C 
BRANCH   7   8
ATOM      8  C   UNL     1     -13.031  15.463  70.945  0.00  0.00    +0.077 C 
ATOM      9  C   UNL     1     -14.492  15.049  71.638  0.00  0.00    +0.019 C 
BRANCH   8  11
ATOM     10  C   UNL     1     -13.266  15.828  73.121  0.00  0.00    +0.107 C 
ATOM     11  N   UNL     1     -12.457  15.955  72.354  0.00  0.00    -0.218 NA
ENDBRANCH   8  11
ENDBRANCH   7   8
ENDBRANCH   1   7
TORSDOF 3
ENDMDL
MODEL 5
REMARK VINA RESULT:      -4.3      3.247      4.701
REMARK  Name = 
REMARK  3 active torsions:
REMARK  status: ('A' for Active; 'I' for Inactive)
REMARK    1  A    between atoms: N_2  and  C_3
REMARK    2  A    between atoms: C_3  and  C_5
REMARK    3  A    between atoms: C_5  and  C_6
REMARK                            x       y       z     vdW  Elec       q    Type
REMARK                         _______ _______ _______ _____ _____    ______ ____
ROOT
ATOM      1  C   UNL     1     -11.916  15.035  71.160  0.00  0.00    -0.021 A 
ATOM      2  C   UNL     1     -11.631  15.487  72.427  0.00  0.00    -0.004 A 
ATOM      3  C   UNL     1     -12.660  15.891  73.262  0.00  0.00    -0.000 A 
ATOM      4  C   UNL     1     -13.965  15.755  72.817  0.00  0.00    -0.000 A 
ATOM      5  C   UNL     1     -14.267  15.152  71.598  0.00  0.00    -0.000 A 
ATOM      6  C   UNL     1     -13.213  14.980  70.711  0.00  0.00    -0.004 A 
ENDROOT
BRANCH   1   7
ATOM      7  C   UNL     1     -10.836  15.158  70.131  0.00  0.00    +0.044 C 
BRANCH   7   8
ATOM      8  C   UNL     1     -11.721  15.879  68.912  0.00  0.00    +0.077 C 
ATOM      9  C   UNL     1     -10.560  17.061  68.712  0.00  0.00    +0.019 C 
BRANCH   8  11
ATOM     10  C   UNL     1     -11.833  14.385  67.275  0.00  0.00    +0.107 C 
ATOM     11  N   UNL     1     -11.027  14.955  67.807  0.00  0.00    -0.218 NA
ENDBRANCH   8  11
ENDBRANCH   7   8
ENDBRANCH   1   7
TORSDOF 3
ENDMDL
MODEL 6
REMARK VINA RESULT:      -4.2      2.735      4.730
REMARK  Name = 
REMARK  3 active torsions:
REMARK  status: ('A' for Active; 'I' for Inactive)
REMARK    1  A    between atoms: N_2  and  C_3
REMARK    2  A    between atoms: C_3  and  C_5
REMARK    3  A    between atoms: C_5  and  C_6
REMARK                            x       y       z     vdW  Elec       q    Type
REMARK                         _______ _______ _______ _____ _____    ______ ____
ROOT
ATOM      1  C   UNL     1     -12.547  15.556  70.799  0.00  0.00    -0.021 A 
ATOM      2  C   UNL     1     -13.339  14.468  71.080  0.00  0.00    -0.004 A 
ATOM      3  C   UNL     1     -13.478  14.037  72.390  0.00  0.00    -0.000 A 
ATOM      4  C   UNL     1     -12.866  14.769  73.394  0.00  0.00    -0.000 A 
ATOM      5  C   UNL     1     -12.194  15.960  73.132  0.00  0.00    -0.000 A 
ATOM      6  C   UNL     1     -11.889  16.221  71.803  0.00  0.00    -0.004 A 
ENDROOT
BRANCH   1   7
ATOM      7  C   UNL     1     -11.969  15.641  69.421  0.00  0.00    +0.044 C 
BRANCH   7   8
ATOM      8  C   UNL     1     -11.646  14.022  69.175  0.00  0.00    +0.077 C 
ATOM      9  C   UNL     1     -11.964  14.163  67.543  0.00  0.00    +0.019 C 
BRANCH   8  11
ATOM     10  C   UNL     1      -9.770  13.779  68.015  0.00  0.00    +0.107 C 
ATOM     11  N   UNL     1     -10.093  14.325  68.939  0.00  0.00    -0.218 NA
ENDBRANCH   8  11
ENDBRANCH   7   8
ENDBRANCH   1   7
TORSDOF 3
ENDMDL
MODEL 7
REMARK VINA RESULT:      -4.2      4.642      6.465
REMARK  Name = 
REMARK  3 active torsions:
REMARK  status: ('A' for Active; 'I' for Inactive)
REMARK    1  A    between atoms: N_2  and  C_3
REMARK    2  A    between atoms: C_3  and  C_5
REMARK    3  A    between atoms: C_5  and  C_6
REMARK                            x       y       z     vdW  Elec       q    Type
REMARK                         _______ _______ _______ _____ _____    ______ ____
ROOT
ATOM      1  C   UNL     1     -11.654  13.108  66.992  0.00  0.00    -0.021 A 
ATOM      2  C   UNL     1     -11.613  14.480  67.066  0.00  0.00    -0.004 A 
ATOM      3  C   UNL     1     -11.712  15.107  68.298  0.00  0.00    -0.000 A 
ATOM      4  C   UNL     1     -11.777  14.321  69.436  0.00  0.00    -0.000 A 
ATOM      5  C   UNL     1     -11.660  12.935  69.380  0.00  0.00    -0.000 A 
ATOM      6  C   UNL     1     -11.795  12.350  68.128  0.00  0.00    -0.004 A 
ENDROOT
BRANCH   1   7
ATOM      7  C   UNL     1     -12.114  12.507  65.701  0.00  0.00    +0.044 C 
BRANCH   7   8
ATOM      8  C   UNL     1     -11.494  13.646  64.649  0.00  0.00    +0.077 C 
ATOM      9  C   UNL     1     -10.330  12.578  64.112  0.00  0.00    +0.019 C 
BRANCH   8  11
ATOM     10  C   UNL     1     -12.399  12.081  63.363  0.00  0.00    +0.107 C 
ATOM     11  N   UNL     1     -12.503  13.189  63.496  0.00  0.00    -0.218 NA
ENDBRANCH   8  11
ENDBRANCH   7   8
ENDBRANCH   1   7
TORSDOF 3
ENDMDL
MODEL 8
REMARK VINA RESULT:      -4.0      5.536      6.564
REMARK  Name = 
REMARK  3 active torsions:
REMARK  status: ('A' for Active; 'I' for Inactive)
REMARK    1  A    between atoms: N_2  and  C_3
REMARK    2  A    between atoms: C_3  and  C_5
REMARK    3  A    between atoms: C_5  and  C_6
REMARK                            x       y       z     vdW  Elec       q    Type
REMARK                         _______ _______ _______ _____ _____    ______ ____
ROOT
ATOM      1  C   UNL     1     -10.405  16.028  66.243  0.00  0.00    -0.021 A 
ATOM      2  C   UNL     1     -10.888  15.422  67.379  0.00  0.00    -0.004 A 
ATOM      3  C   UNL     1     -11.852  14.432  67.275  0.00  0.00    -0.000 A 
ATOM      4  C   UNL     1     -12.250  14.026  66.012  0.00  0.00    -0.000 A 
ATOM      5  C   UNL     1     -11.651  14.524  64.857  0.00  0.00    -0.000 A 
ATOM      6  C   UNL     1     -10.870  15.663  65.004  0.00  0.00    -0.004 A 
ENDROOT
BRANCH   1   7
ATOM      7  C   UNL     1      -9.845  17.408  66.390  0.00  0.00    +0.044 C 
BRANCH   7   8
ATOM      8  C   UNL     1     -10.398  17.749  67.928  0.00  0.00    +0.077 C 
ATOM      9  C   UNL     1      -8.947  18.464  68.337  0.00  0.00    +0.019 C 
BRANCH   8  11
ATOM     10  C   UNL     1     -10.142  19.813  67.155  0.00  0.00    +0.107 C 
ATOM     11  N   UNL     1     -10.999  19.150  67.446  0.00  0.00    -0.218 NA
ENDBRANCH   8  11
ENDBRANCH   7   8
ENDBRANCH   1   7
TORSDOF 3
ENDMDL
MODEL 9
REMARK VINA RESULT:      -3.9      4.029      5.720
REMARK  Name = 
REMARK  3 active torsions:
REMARK  status: ('A' for Active; 'I' for Inactive)
REMARK    1  A    between atoms: N_2  and  C_3
REMARK    2  A    between atoms: C_3  and  C_5
REMARK    3  A    between atoms: C_5  and  C_6
REMARK                            x       y       z     vdW  Elec       q    Type
REMARK                         _______ _______ _______ _____ _____    ______ ____
ROOT
ATOM      1  C   UNL     1     -11.353  11.945  67.222  0.00  0.00    -0.021 A 
ATOM      2  C   UNL     1     -11.682  12.962  68.086  0.00  0.00    -0.004 A 
ATOM      3  C   UNL     1     -11.887  12.687  69.428  0.00  0.00    -0.000 A 
ATOM      4  C   UNL     1     -11.679  11.394  69.877  0.00  0.00    -0.000 A 
ATOM      5  C   UNL     1     -11.193  10.394  69.039  0.00  0.00    -0.000 A 
ATOM      6  C   UNL     1     -11.226  10.655  67.676  0.00  0.00    -0.004 A 
ENDROOT
BRANCH   1   7
ATOM      7  C   UNL     1     -11.696  12.136  65.778  0.00  0.00    +0.044 C 
BRANCH   7   8
ATOM      8  C   UNL     1     -11.849  13.799  65.767  0.00  0.00    +0.077 C 
ATOM      9  C   UNL     1     -10.415  13.967  64.929  0.00  0.00    +0.019 C 
BRANCH   8  11
ATOM     10  C   UNL     1     -12.158  13.062  63.697  0.00  0.00    +0.107 C 
ATOM     11  N   UNL     1     -12.686  13.754  64.405  0.00  0.00    -0.218 NA
ENDBRANCH   8  11
ENDBRANCH   7   8
ENDBRANCH   1   7
TORSDOF 3
ENDMDL
