MODEL 1
REMARK VINA RESULT:      -6.2      0.000      0.000
REMARK  Name = 
REMARK  5 active torsions:
REMARK  status: ('A' for Active; 'I' for Inactive)
REMARK    1  A    between atoms: C_2  and  C_3
REMARK    2  A    between atoms: C_4  and  C_5
REMARK    3  A    between atoms: C_6  and  C_8
REMARK    4  A    between atoms: C_9  and  C_10
REMARK    5  A    between atoms: C_19  and  C_20
REMARK                            x       y       z     vdW  Elec       q    Type
REMARK                         _______ _______ _______ _____ _____    ______ ____
ROOT
ATOM      1  C   UNL     1     -11.576  13.962  70.279  0.00  0.00    -0.004 C 
ATOM      2  C   UNL     1     -12.294  15.060  70.034  0.00  0.00    -0.022 C 
ATOM      3  C   UNL     1     -13.244  15.504  71.103  0.00  0.00    +0.031 C 
ENDROOT
BRANCH   1   5
ATOM      4  C   UNL     1     -11.949  12.988  68.065  0.00  0.00    -0.004 C 
ATOM      5  C   UNL     1     -11.156  13.207  69.092  0.00  0.00    -0.001 C 
BRANCH   4   7
ATOM      6  C   UNL     1     -10.436  12.306  66.154  0.00  0.00    +0.031 C 
ATOM      7  C   UNL     1     -11.534  13.182  66.670  0.00  0.00    -0.015 C 
ATOM      8  C   UNL     1     -12.293  13.741  65.755  0.00  0.00    +0.082 C 
BRANCH   8   9
ATOM      9  C   UNL     1     -12.590  13.116  64.459  0.00  0.00    +0.388 C 
ATOM     10  O   UNL     1     -12.529  13.976  63.359  0.00  0.00    -0.241 OA
ATOM     11  O   UNL     1     -13.359  12.121  64.355  0.00  0.00    -0.241 OA
ENDBRANCH   8   9
ENDBRANCH   4   7
ENDBRANCH   1   5
BRANCH   2  12
ATOM     12  C   UNL     1     -11.682  16.003  69.095  0.00  0.00    -0.005 C 
ATOM     13  C   UNL     1     -10.583  16.676  69.344  0.00  0.00    -0.005 C 
BRANCH  13  14
ATOM     14  C   UNL     1      -9.516  16.886  68.357  0.00  0.00    -0.031 C 
ATOM     15  C   UNL     1      -9.674  17.788  67.186  0.00  0.00    +0.018 C 
ATOM     16  C   UNL     1      -8.314  18.412  66.920  0.00  0.00    +0.004 C 
ATOM     17  C   UNL     1     -10.700  18.859  67.415  0.00  0.00    +0.004 C 
ATOM     18  C   UNL     1     -10.043  16.936  66.006  0.00  0.00    +0.004 C 
ATOM     19  C   UNL     1      -9.151  15.736  65.866  0.00  0.00    +0.005 C 
ATOM     20  C   UNL     1      -7.990  15.776  66.853  0.00  0.00    +0.022 C 
ATOM     21  C   UNL     1      -8.618  15.910  68.205  0.00  0.00    -0.048 C 
ATOM     22  C   UNL     1      -8.170  15.148  69.386  0.00  0.00    +0.026 C 
ENDBRANCH  13  14
ENDBRANCH   2  12
TORSDOF 5
ENDMDL
MODEL 2
REMARK VINA RESULT:      -6.0      4.712      7.829
REMARK  Name = 
REMARK  5 active torsions:
REMARK  status: ('A' for Active; 'I' for Inactive)
REMARK    1  A    between atoms: C_2  and  C_3
REMARK    2  A    between atoms: C_4  and  C_5
REMARK    3  A    between atoms: C_6  and  C_8
REMARK    4  A    between atoms: C_9  and  C_10
REMARK    5  A    between atoms: C_19  and  C_20
REMARK                            x       y       z     vdW  Elec       q    Type
REMARK                         _______ _______ _______ _____ _____    ______ ____
ROOT
ATOM      1  C   UNL     1     -10.695  13.947  68.922  0.00  0.00    -0.004 C 
ATOM      2  C   UNL     1     -11.603  12.990  68.724  0.00  0.00    -0.022 C 
ATOM      3  C   UNL     1     -11.827  12.545  67.311  0.00  0.00    +0.031 C 
ENDROOT
BRANCH   1   5
ATOM      4  C   UNL     1     -11.896  15.644  70.214  0.00  0.00    -0.004 C 
ATOM      5  C   UNL     1     -10.908  14.781  70.112  0.00  0.00    -0.001 C 
BRANCH   4   7
ATOM      6  C   UNL     1     -13.937  14.837  71.475  0.00  0.00    +0.031 C 
ATOM      7  C   UNL     1     -12.755  15.751  71.400  0.00  0.00    -0.015 C 
ATOM      8  C   UNL     1     -12.358  16.263  72.544  0.00  0.00    +0.082 C 
BRANCH   8   9
ATOM      9  C   UNL     1     -12.490  15.564  73.829  0.00  0.00    +0.388 C 
ATOM     10  O   UNL     1     -12.535  16.396  74.952  0.00  0.00    -0.241 OA
ATOM     11  O   UNL     1     -12.041  14.399  74.009  0.00  0.00    -0.241 OA
ENDBRANCH   8   9
ENDBRANCH   4   7
ENDBRANCH   1   5
BRANCH   2  12
ATOM     12  C   UNL     1     -11.821  12.097  69.865  0.00  0.00    -0.005 C 
ATOM     13  C   UNL     1     -12.045  10.809  69.755  0.00  0.00    -0.005 C 
BRANCH  13  14
ATOM     14  C   UNL     1     -11.447   9.800  70.639  0.00  0.00    -0.031 C 
ATOM     15  C   UNL     1     -10.162   9.122  70.327  0.00  0.00    +0.018 C 
ATOM     16  C   UNL     1      -9.459   8.870  71.651  0.00  0.00    +0.004 C 
ATOM     17  C   UNL     1      -9.284   9.935  69.421  0.00  0.00    +0.004 C 
ATOM     18  C   UNL     1     -10.491   7.796  69.706  0.00  0.00    +0.004 C 
ATOM     19  C   UNL     1     -11.524   7.038  70.488  0.00  0.00    +0.005 C 
ATOM     20  C   UNL     1     -11.854   7.729  71.807  0.00  0.00    +0.022 C 
ATOM     21  C   UNL     1     -12.270   9.118  71.439  0.00  0.00    -0.048 C 
ATOM     22  C   UNL     1     -13.425   9.806  72.046  0.00  0.00    +0.026 C 
ENDBRANCH  13  14
ENDBRANCH   2  12
TORSDOF 5
ENDMDL
MODEL 3
REMARK VINA RESULT:      -6.0      3.154      4.981
REMARK  Name = 
REMARK  5 active torsions:
REMARK  status: ('A' for Active; 'I' for Inactive)
REMARK    1  A    between atoms: C_2  and  C_3
REMARK    2  A    between atoms: C_4  and  C_5
REMARK    3  A    between atoms: C_6  and  C_8
REMARK    4  A    between atoms: C_9  and  C_10
REMARK    5  A    between atoms: C_19  and  C_20
REMARK                            x       y       z     vdW  Elec       q    Type
REMARK                         _______ _______ _______ _____ _____    ______ ____
ROOT
ATOM      1  C   UNL     1     -11.054  12.965  67.762  0.00  0.00    -0.004 C 
ATOM      2  C   UNL     1      -9.743  12.967  68.015  0.00  0.00    -0.022 C 
ATOM      3  C   UNL     1      -8.981  11.725  67.667  0.00  0.00    +0.031 C 
ENDROOT
BRANCH   1   5
ATOM      4  C   UNL     1     -12.090  13.592  69.889  0.00  0.00    -0.004 C 
ATOM      5  C   UNL     1     -11.862  13.843  68.618  0.00  0.00    -0.001 C 
BRANCH   4   7
ATOM      6  C   UNL     1     -11.408  15.937  70.555  0.00  0.00    +0.031 C 
ATOM      7  C   UNL     1     -11.956  14.601  70.947  0.00  0.00    -0.015 C 
ATOM      8  C   UNL     1     -12.636  14.573  72.071  0.00  0.00    +0.082 C 
BRANCH   8   9
ATOM      9  C   UNL     1     -13.426  15.708  72.565  0.00  0.00    +0.388 C 
ATOM     10  O   UNL     1     -13.099  16.142  73.853  0.00  0.00    -0.241 OA
ATOM     11  O   UNL     1     -14.611  15.918  72.185  0.00  0.00    -0.241 OA
ENDBRANCH   8   9
ENDBRANCH   4   7
ENDBRANCH   1   5
BRANCH   2  12
ATOM     12  C   UNL     1      -9.116  14.291  68.021  0.00  0.00    -0.005 C 
ATOM     13  C   UNL     1      -8.561  14.843  66.968  0.00  0.00    -0.005 C 
BRANCH  13  14
ATOM     14  C   UNL     1      -8.714  16.261  66.617  0.00  0.00    -0.031 C 
ATOM     15  C   UNL     1      -7.901  17.334  67.245  0.00  0.00    +0.018 C 
ATOM     16  C   UNL     1      -7.671  18.397  66.183  0.00  0.00    +0.004 C 
ATOM     17  C   UNL     1      -6.586  16.833  67.769  0.00  0.00    +0.004 C 
ATOM     18  C   UNL     1      -8.723  17.936  68.348  0.00  0.00    +0.004 C 
ATOM     19  C   UNL     1     -10.119  18.267  67.906  0.00  0.00    +0.005 C 
ATOM     20  C   UNL     1     -10.298  18.068  66.405  0.00  0.00    +0.022 C 
ATOM     21  C   UNL     1      -9.897  16.651  66.138  0.00  0.00    -0.048 C 
ATOM     22  C   UNL     1     -10.649  15.751  65.244  0.00  0.00    +0.026 C 
ENDBRANCH  13  14
ENDBRANCH   2  12
TORSDOF 5
ENDMDL
MODEL 4
REMARK VINA RESULT:      -5.9      2.952      5.429
REMARK  Name = 
REMARK  5 active torsions:
REMARK  status: ('A' for Active; 'I' for Inactive)
REMARK    1  A    between atoms: C_2  and  C_3
REMARK    2  A    between atoms: C_4  and  C_5
REMARK    3  A    between atoms: C_6  and  C_8
REMARK    4  A    between atoms: C_9  and  C_10
REMARK    5  A    between atoms: C_19  and  C_20
REMARK                            x       y       z     vdW  Elec       q    Type
REMARK                         _______ _______ _______ _____ _____    ______ ____
ROOT
ATOM      1  C   UNL     1      -9.724  17.031  68.479  0.00  0.00    -0.004 C 
ATOM      2  C   UNL     1     -10.563  17.227  67.460  0.00  0.00    -0.022 C 
ATOM      3  C   UNL     1     -10.487  18.550  66.762  0.00  0.00    +0.031 C 
ENDROOT
BRANCH   1   5
ATOM      4  C   UNL     1     -11.214  16.318  70.286  0.00  0.00    -0.004 C 
ATOM      5  C   UNL     1     -10.186  16.081  69.500  0.00  0.00    -0.001 C 
BRANCH   4   7
ATOM      6  C   UNL     1     -12.061  13.946  70.032  0.00  0.00    +0.031 C 
ATOM      7  C   UNL     1     -12.276  15.336  70.543  0.00  0.00    -0.015 C 
ATOM      8  C   UNL     1     -13.166  15.460  71.501  0.00  0.00    +0.082 C 
BRANCH   8   9
ATOM      9  C   UNL     1     -13.429  14.413  72.498  0.00  0.00    +0.388 C 
ATOM     10  O   UNL     1     -14.683  13.803  72.397  0.00  0.00    -0.241 OA
ATOM     11  O   UNL     1     -12.900  14.428  73.643  0.00  0.00    -0.241 OA
ENDBRANCH   8   9
ENDBRANCH   4   7
ENDBRANCH   1   5
BRANCH   2  12
ATOM     12  C   UNL     1     -11.001  16.008  66.775  0.00  0.00    -0.005 C 
ATOM     13  C   UNL     1     -10.304  15.401  65.843  0.00  0.00    -0.005 C 
BRANCH  13  14
ATOM     14  C   UNL     1     -10.163  13.942  65.753  0.00  0.00    -0.031 C 
ATOM     15  C   UNL     1     -11.178  13.079  65.095  0.00  0.00    +0.018 C 
ATOM     16  C   UNL     1     -10.428  11.927  64.446  0.00  0.00    +0.004 C 
ATOM     17  C   UNL     1     -11.986  13.815  64.066  0.00  0.00    +0.004 C 
ATOM     18  C   UNL     1     -12.063  12.521  66.172  0.00  0.00    +0.004 C 
ATOM     19  C   UNL     1     -11.279  11.951  67.318  0.00  0.00    +0.005 C 
ATOM     20  C   UNL     1      -9.783  11.927  67.023  0.00  0.00    +0.022 C 
ATOM     21  C   UNL     1      -9.419  13.338  66.681  0.00  0.00    -0.048 C 
ATOM     22  C   UNL     1      -8.202  14.005  67.181  0.00  0.00    +0.026 C 
ENDBRANCH  13  14
ENDBRANCH   2  12
TORSDOF 5
ENDMDL
MODEL 5
REMARK VINA RESULT:      -5.7      6.046      8.822
REMARK  Name = 
REMARK  5 active torsions:
REMARK  status: ('A' for Active; 'I' for Inactive)
REMARK    1  A    between atoms: C_2  and  C_3
REMARK    2  A    between atoms: C_4  and  C_5
REMARK    3  A    between atoms: C_6  and  C_8
REMARK    4  A    between atoms: C_9  and  C_10
REMARK    5  A    between atoms: C_19  and  C_20
REMARK                            x       y       z     vdW  Elec       q    Type
REMARK                         _______ _______ _______ _____ _____    ______ ____
ROOT
ATOM      1  C   UNL     1     -13.542   9.874  71.044  0.00  0.00    -0.004 C 
ATOM      2  C   UNL     1     -13.610   8.847  71.893  0.00  0.00    -0.022 C 
ATOM      3  C   UNL     1     -14.815   7.963  71.796  0.00  0.00    +0.031 C 
ENDROOT
BRANCH   1   5
ATOM      4  C   UNL     1     -12.365  11.995  70.714  0.00  0.00    -0.004 C 
ATOM      5  C   UNL     1     -12.763  11.028  71.512  0.00  0.00    -0.001 C 
BRANCH   4   7
ATOM      6  C   UNL     1     -12.182  14.404  69.959  0.00  0.00    +0.031 C 
ATOM      7  C   UNL     1     -12.508  13.420  71.038  0.00  0.00    -0.015 C 
ATOM      8  C   UNL     1     -13.263  13.873  72.013  0.00  0.00    +0.082 C 
BRANCH   8   9
ATOM      9  C   UNL     1     -14.286  14.911  71.825  0.00  0.00    +0.388 C 
ATOM     10  O   UNL     1     -14.167  16.019  72.668  0.00  0.00    -0.241 OA
ATOM     11  O   UNL     1     -15.447  14.642  71.410  0.00  0.00    -0.241 OA
ENDBRANCH   8   9
ENDBRANCH   4   7
ENDBRANCH   1   5
BRANCH   2  12
ATOM     12  C   UNL     1     -12.317   8.352  72.370  0.00  0.00    -0.005 C 
ATOM     13  C   UNL     1     -11.874   7.135  72.157  0.00  0.00    -0.005 C 
BRANCH  13  14
ATOM     14  C   UNL     1     -10.485   6.826  71.797  0.00  0.00    -0.031 C 
ATOM     15  C   UNL     1      -9.366   6.908  72.773  0.00  0.00    +0.018 C 
ATOM     16  C   UNL     1      -8.377   5.814  72.408  0.00  0.00    +0.004 C 
ATOM     17  C   UNL     1      -9.824   6.742  74.192  0.00  0.00    +0.004 C 
ATOM     18  C   UNL     1      -8.695   8.237  72.577  0.00  0.00    +0.004 C 
ATOM     19  C   UNL     1      -8.403   8.524  71.134  0.00  0.00    +0.005 C 
ATOM     20  C   UNL     1      -8.705   7.322  70.246  0.00  0.00    +0.022 C 
ATOM     21  C   UNL     1     -10.134   6.972  70.518  0.00  0.00    -0.048 C 
ATOM     22  C   UNL     1     -11.098   6.619  69.458  0.00  0.00    +0.026 C 
ENDBRANCH  13  14
ENDBRANCH   2  12
TORSDOF 5
ENDMDL
MODEL 6
REMARK VINA RESULT:      -5.6      2.973      5.091
REMARK  Name = 
REMARK  5 active torsions:
REMARK  status: ('A' for Active; 'I' for Inactive)
REMARK    1  A    between atoms: C_2  and  C_3
REMARK    2  A    between atoms: C_4  and  C_5
REMARK    3  A    between atoms: C_6  and  C_8
REMARK    4  A    between atoms: C_9  and  C_10
REMARK    5  A    between atoms: C_19  and  C_20
REMARK                            x       y       z     vdW  Elec       q    Type
REMARK                         _______ _______ _______ _____ _____    ______ ____
ROOT
ATOM      1  C   UNL     1     -11.072  15.146  67.251  0.00  0.00    -0.004 C 
ATOM      2  C   UNL     1     -10.007  14.912  66.482  0.00  0.00    -0.022 C 
ATOM      3  C   UNL     1     -10.250  14.215  65.179  0.00  0.00    +0.031 C 
ENDROOT
BRANCH   1   5
ATOM      4  C   UNL     1     -11.557  15.918  69.523  0.00  0.00    -0.004 C 
ATOM      5  C   UNL     1     -10.802  15.232  68.692  0.00  0.00    -0.001 C 
BRANCH   4   7
ATOM      6  C   UNL     1     -11.800  16.242  72.022  0.00  0.00    +0.031 C 
ATOM      7  C   UNL     1     -12.024  15.391  70.811  0.00  0.00    -0.015 C 
ATOM      8  C   UNL     1     -12.953  14.469  70.928  0.00  0.00    +0.082 C 
BRANCH   8   9
ATOM      9  C   UNL     1     -14.144  14.627  71.774  0.00  0.00    +0.388 C 
ATOM     10  O   UNL     1     -14.442  13.529  72.586  0.00  0.00    -0.241 OA
ATOM     11  O   UNL     1     -15.115  15.357  71.436  0.00  0.00    -0.241 OA
ENDBRANCH   8   9
ENDBRANCH   4   7
ENDBRANCH   1   5
BRANCH   2  12
ATOM     12  C   UNL     1      -8.889  15.837  66.675  0.00  0.00    -0.005 C 
ATOM     13  C   UNL     1      -8.719  16.936  65.978  0.00  0.00    -0.005 C 
BRANCH  13  14
ATOM     14  C   UNL     1      -8.285  18.211  66.562  0.00  0.00    -0.031 C 
ATOM     15  C   UNL     1      -6.853  18.592  66.683  0.00  0.00    +0.018 C 
ATOM     16  C   UNL     1      -6.777  20.099  66.495  0.00  0.00    +0.004 C 
ATOM     17  C   UNL     1      -5.983  17.899  65.675  0.00  0.00    +0.004 C 
ATOM     18  C   UNL     1      -6.417  18.267  68.082  0.00  0.00    +0.004 C 
ATOM     19  C   UNL     1      -7.379  18.777  69.115  0.00  0.00    +0.005 C 
ATOM     20  C   UNL     1      -8.467  19.645  68.494  0.00  0.00    +0.022 C 
ATOM     21  C   UNL     1      -9.104  18.796  67.439  0.00  0.00    -0.048 C 
ATOM     22  C   UNL     1     -10.562  18.724  67.228  0.00  0.00    +0.026 C 
ENDBRANCH  13  14
ENDBRANCH   2  12
TORSDOF 5
ENDMDL
MODEL 7
REMARK VINA RESULT:      -5.6      3.613      6.384
REMARK  Name = 
REMARK  5 active torsions:
REMARK  status: ('A' for Active; 'I' for Inactive)
REMARK    1  A    between atoms: C_2  and  C_3
REMARK    2  A    between atoms: C_4  and  C_5
REMARK    3  A    between atoms: C_6  and  C_8
REMARK    4  A    between atoms: C_9  and  C_10
REMARK    5  A    between atoms: C_19  and  C_20
REMARK                            x       y       z     vdW  Elec       q    Type
REMARK                         _______ _______ _______ _____ _____    ______ ____
ROOT
ATOM      1  C   UNL     1      -9.947  16.443  68.839  0.00  0.00    -0.004 C 
ATOM      2  C   UNL     1      -9.891  16.740  67.539  0.00  0.00    -0.022 C 
ATOM      3  C   UNL     1      -8.741  17.584  67.082  0.00  0.00    +0.031 C 
ENDROOT
BRANCH   1   5
ATOM      4  C   UNL     1     -11.515  15.455  70.438  0.00  0.00    -0.004 C 
ATOM      5  C   UNL     1     -11.293  16.190  69.369  0.00  0.00    -0.001 C 
BRANCH   4   7
ATOM      6  C   UNL     1     -13.802  15.301  71.511  0.00  0.00    +0.031 C 
ATOM      7  C   UNL     1     -12.415  15.863  71.524  0.00  0.00    -0.015 C 
ATOM      8  C   UNL     1     -11.998  16.323  72.682  0.00  0.00    +0.082 C 
BRANCH   8   9
ATOM      9  C   UNL     1     -12.427  15.768  73.973  0.00  0.00    +0.388 C 
ATOM     10  O   UNL     1     -12.560  16.703  75.004  0.00  0.00    -0.241 OA
ATOM     11  O   UNL     1     -12.161  14.585  74.317  0.00  0.00    -0.241 OA
ENDBRANCH   8   9
ENDBRANCH   4   7
ENDBRANCH   1   5
BRANCH   2  12
ATOM     12  C   UNL     1     -10.549  15.775  66.655  0.00  0.00    -0.005 C 
ATOM     13  C   UNL     1      -9.953  14.721  66.148  0.00  0.00    -0.005 C 
BRANCH  13  14
ATOM     14  C   UNL     1     -10.583  13.398  66.050  0.00  0.00    -0.031 C 
ATOM     15  C   UNL     1     -10.080  12.214  66.794  0.00  0.00    +0.018 C 
ATOM     16  C   UNL     1     -11.291  11.369  67.155  0.00  0.00    +0.004 C 
ATOM     17  C   UNL     1      -9.321  12.588  68.033  0.00  0.00    +0.004 C 
ATOM     18  C   UNL     1      -9.215  11.424  65.854  0.00  0.00    +0.004 C 
ATOM     19  C   UNL     1      -9.871  11.203  64.522  0.00  0.00    +0.005 C 
ATOM     20  C   UNL     1     -11.317  11.686  64.517  0.00  0.00    +0.022 C 
ATOM     21  C   UNL     1     -11.261  13.122  64.934  0.00  0.00    -0.048 C 
ATOM     22  C   UNL     1     -12.049  14.186  64.284  0.00  0.00    +0.026 C 
ENDBRANCH  13  14
ENDBRANCH   2  12
TORSDOF 5
ENDMDL
MODEL 8
REMARK VINA RESULT:      -5.6      4.978      7.515
REMARK  Name = 
REMARK  5 active torsions:
REMARK  status: ('A' for Active; 'I' for Inactive)
REMARK    1  A    between atoms: C_2  and  C_3
REMARK    2  A    between atoms: C_4  and  C_5
REMARK    3  A    between atoms: C_6  and  C_8
REMARK    4  A    between atoms: C_9  and  C_10
REMARK    5  A    between atoms: C_19  and  C_20
REMARK                            x       y       z     vdW  Elec       q    Type
REMARK                         _______ _______ _______ _____ _____    ______ ____
ROOT
ATOM      1  C   UNL     1      -8.036  19.389  67.873  0.00  0.00    -0.004 C 
ATOM      2  C   UNL     1      -9.369  19.330  67.916  0.00  0.00    -0.022 C 
ATOM      3  C   UNL     1     -10.119  20.118  66.887  0.00  0.00    +0.031 C 
ENDROOT
BRANCH   1   5
ATOM      4  C   UNL     1      -6.348  18.335  69.298  0.00  0.00    -0.004 C 
ATOM      5  C   UNL     1      -7.354  19.171  69.155  0.00  0.00    -0.001 C 
BRANCH   4   7
ATOM      6  C   UNL     1      -3.889  18.921  69.184  0.00  0.00    +0.031 C 
ATOM      7  C   UNL     1      -5.111  18.675  70.011  0.00  0.00    -0.015 C 
ATOM      8  C   UNL     1      -5.084  19.171  71.228  0.00  0.00    +0.082 C 
BRANCH   8   9
ATOM      9  C   UNL     1      -4.363  20.401  71.582  0.00  0.00    +0.388 C 
ATOM     10  O   UNL     1      -3.414  20.259  72.598  0.00  0.00    -0.241 OA
ATOM     11  O   UNL     1      -4.881  21.544  71.451  0.00  0.00    -0.241 OA
ENDBRANCH   8   9
ENDBRANCH   4   7
ENDBRANCH   1   5
BRANCH   2  12
ATOM     12  C   UNL     1      -9.915  18.109  68.513  0.00  0.00    -0.005 C 
ATOM     13  C   UNL     1     -10.674  17.255  67.869  0.00  0.00    -0.005 C 
BRANCH  13  14
ATOM     14  C   UNL     1     -10.542  15.797  67.987  0.00  0.00    -0.031 C 
ATOM     15  C   UNL     1      -9.789  14.978  67.002  0.00  0.00    +0.018 C 
ATOM     16  C   UNL     1      -9.151  13.833  67.771  0.00  0.00    +0.004 C 
ATOM     17  C   UNL     1      -8.737  15.766  66.277  0.00  0.00    +0.004 C 
ATOM     18  C   UNL     1     -10.787  14.403  66.038  0.00  0.00    +0.004 C 
ATOM     19  C   UNL     1     -11.961  13.778  66.734  0.00  0.00    +0.005 C 
ATOM     20  C   UNL     1     -11.763  13.733  68.245  0.00  0.00    +0.022 C 
ATOM     21  C   UNL     1     -11.495  15.146  68.657  0.00  0.00    -0.048 C 
ATOM     22  C   UNL     1     -12.096  15.770  69.851  0.00  0.00    +0.026 C 
ENDBRANCH  13  14
ENDBRANCH   2  12
TORSDOF 5
ENDMDL
MODEL 9
REMARK VINA RESULT:      -5.5      1.548      2.883
REMARK  Name = 
REMARK  5 active torsions:
REMARK  status: ('A' for Active; 'I' for Inactive)
REMARK    1  A    between atoms: C_2  and  C_3
REMARK    2  A    between atoms: C_4  and  C_5
REMARK    3  A    between atoms: C_6  and  C_8
REMARK    4  A    between atoms: C_9  and  C_10
REMARK    5  A    between atoms: C_19  and  C_20
REMARK                            x       y       z     vdW  Elec       q    Type
REMARK                         _______ _______ _______ _____ _____    ______ ____
ROOT
ATOM      1  C   UNL     1     -10.678  14.434  69.268  0.00  0.00    -0.004 C 
ATOM      2  C   UNL     1     -11.506  15.480  69.211  0.00  0.00    -0.022 C 
ATOM      3  C   UNL     1     -12.394  15.711  70.394  0.00  0.00    +0.031 C 
ENDROOT
BRANCH   1   5
ATOM      4  C   UNL     1     -11.165  13.279  67.166  0.00  0.00    -0.004 C 
ATOM      5  C   UNL     1     -10.301  13.858  67.971  0.00  0.00    -0.001 C 
BRANCH   4   7
ATOM      6  C   UNL     1     -12.281  12.830  64.939  0.00  0.00    +0.031 C 
ATOM      7  C   UNL     1     -11.234  13.554  65.725  0.00  0.00    -0.015 C 
ATOM      8  C   UNL     1     -10.754  14.642  65.166  0.00  0.00    +0.082 C 
BRANCH   8   9
ATOM      9  C   UNL     1     -11.545  15.512  64.285  0.00  0.00    +0.388 C 
ATOM     10  O   UNL     1     -11.227  16.872  64.356  0.00  0.00    -0.241 OA
ATOM     11  O   UNL     1     -12.725  15.227  63.943  0.00  0.00    -0.241 OA
ENDBRANCH   8   9
ENDBRANCH   4   7
ENDBRANCH   1   5
BRANCH   2  12
ATOM     12  C   UNL     1     -11.060  16.575  68.345  0.00  0.00    -0.005 C 
ATOM     13  C   UNL     1     -10.145  17.451  68.685  0.00  0.00    -0.005 C 
BRANCH  13  14
ATOM     14  C   UNL     1      -9.097  17.929  67.774  0.00  0.00    -0.031 C 
ATOM     15  C   UNL     1      -7.679  17.499  67.888  0.00  0.00    +0.018 C 
ATOM     16  C   UNL     1      -7.118  17.438  66.477  0.00  0.00    +0.004 C 
ATOM     17  C   UNL     1      -7.530  16.167  68.563  0.00  0.00    +0.004 C 
ATOM     18  C   UNL     1      -6.943  18.568  68.644  0.00  0.00    +0.004 C 
ATOM     19  C   UNL     1      -7.230  19.943  68.115  0.00  0.00    +0.005 C 
ATOM     20  C   UNL     1      -8.061  19.896  66.837  0.00  0.00    +0.022 C 
ATOM     21  C   UNL     1      -9.287  19.111  67.185  0.00  0.00    -0.048 C 
ATOM     22  C   UNL     1     -10.645  19.497  66.756  0.00  0.00    +0.026 C 
ENDBRANCH  13  14
ENDBRANCH   2  12
TORSDOF 5
ENDMDL
