MODEL 1
REMARK VINA RESULT:      -5.4      0.000      0.000
REMARK  Name = 
REMARK  9 active torsions:
REMARK  status: ('A' for Active; 'I' for Inactive)
REMARK    1  A    between atoms: C_2  and  C_3
REMARK    2  A    between atoms: C_3  and  C_4
REMARK    3  A    between atoms: C_4  and  C_5
REMARK    4  A    between atoms: C_5  and  N_6
REMARK    5  A    between atoms: N_6  and  C_8
REMARK    6  A    between atoms: C_8  and  C_9
REMARK    7  A    between atoms: C_9  and  C_10
REMARK    8  A    between atoms: C_10  and  P_12
REMARK    9  A    between atoms: C_10  and  P_16
REMARK                            x       y       z     vdW  Elec       q    Type
REMARK                         _______ _______ _______ _____ _____    ______ ____
ROOT
ATOM      1  C   UNL     1     -11.173  13.467  66.070  0.00  0.00    +0.217 C 
ATOM      2  O   UNL     1      -9.935  14.051  65.762  0.00  0.00    -0.211 OA
ENDROOT
BRANCH   1   3
ATOM      3  P   UNL     1     -12.053  13.289  64.484  0.00  0.00    +0.151 P 
ATOM      4  O   UNL     1     -10.939  12.660  63.369  0.00  0.00    -0.355 OA
ATOM      5  O   UNL     1     -13.345  12.230  64.643  0.00  0.00    -0.355 OA
ATOM      6  O   UNL     1     -12.463  14.652  63.998  0.00  0.00    -0.457 OA
ENDBRANCH   1   3
BRANCH   1   7
ATOM      7  P   UNL     1     -10.822  11.874  66.822  0.00  0.00    +0.151 P 
ATOM      8  O   UNL     1     -12.140  11.427  67.762  0.00  0.00    -0.355 OA
ATOM      9  O   UNL     1     -10.433  10.684  65.704  0.00  0.00    -0.355 OA
ATOM     10  O   UNL     1      -9.625  12.063  67.737  0.00  0.00    -0.457 OA
ENDBRANCH   1   7
BRANCH   1  11
ATOM     11  C   UNL     1     -11.906  14.410  66.976  0.00  0.00    +0.062 C 
BRANCH  11  12
ATOM     12  C   UNL     1     -11.056  15.507  67.543  0.00  0.00    +0.076 C 
BRANCH  12  13
ATOM     13  N   UNL     1     -10.734  15.175  68.909  0.00  0.00    -0.271 NA
ATOM     14  C   UNL     1      -9.372  15.471  69.269  0.00  0.00    +0.090 C 
BRANCH  13  15
ATOM     15  C   UNL     1     -11.603  15.796  69.874  0.00  0.00    +0.072 C 
BRANCH  15  16
ATOM     16  C   UNL     1     -11.494  15.216  71.253  0.00  0.00    +0.017 C 
BRANCH  16  17
ATOM     17  C   UNL     1     -12.225  16.003  72.303  0.00  0.00    +0.001 C 
BRANCH  17  19
ATOM     18  C   UNL     1     -13.638  13.995  72.492  0.00  0.00    +0.000 C 
ATOM     19  C   UNL     1     -13.636  15.517  72.530  0.00  0.00    +0.000 C 
ENDBRANCH  17  19
ENDBRANCH  16  17
ENDBRANCH  15  16
ENDBRANCH  13  15
ENDBRANCH  12  13
ENDBRANCH  11  12
ENDBRANCH   1  11
TORSDOF 9
ENDMDL
MODEL 2
REMARK VINA RESULT:      -5.4      1.866      3.393
REMARK  Name = 
REMARK  9 active torsions:
REMARK  status: ('A' for Active; 'I' for Inactive)
REMARK    1  A    between atoms: C_2  and  C_3
REMARK    2  A    between atoms: C_3  and  C_4
REMARK    3  A    between atoms: C_4  and  C_5
REMARK    4  A    between atoms: C_5  and  N_6
REMARK    5  A    between atoms: N_6  and  C_8
REMARK    6  A    between atoms: C_8  and  C_9
REMARK    7  A    between atoms: C_9  and  C_10
REMARK    8  A    between atoms: C_10  and  P_12
REMARK    9  A    between atoms: C_10  and  P_16
REMARK                            x       y       z     vdW  Elec       q    Type
REMARK                         _______ _______ _______ _____ _____    ______ ____
ROOT
ATOM      1  C   UNL     1     -11.130  13.400  65.940  0.00  0.00    +0.217 C 
ATOM      2  O   UNL     1      -9.880  13.914  65.561  0.00  0.00    -0.211 OA
ENDROOT
BRANCH   1   3
ATOM      3  P   UNL     1     -12.043  13.106  64.390  0.00  0.00    +0.151 P 
ATOM      4  O   UNL     1     -12.588  14.618  63.844  0.00  0.00    -0.355 OA
ATOM      5  O   UNL     1     -11.036  12.423  63.234  0.00  0.00    -0.355 OA
ATOM      6  O   UNL     1     -13.253  12.266  64.689  0.00  0.00    -0.457 OA
ENDBRANCH   1   3
BRANCH   1   7
ATOM      7  P   UNL     1     -10.814  11.871  66.829  0.00  0.00    +0.151 P 
ATOM      8  O   UNL     1     -12.154  11.521  67.780  0.00  0.00    -0.355 OA
ATOM      9  O   UNL     1     -10.422  10.587  65.823  0.00  0.00    -0.355 OA
ATOM     10  O   UNL     1      -9.631  12.122  67.747  0.00  0.00    -0.457 OA
ENDBRANCH   1   7
BRANCH   1  11
ATOM     11  C   UNL     1     -11.818  14.444  66.766  0.00  0.00    +0.062 C 
BRANCH  11  12
ATOM     12  C   UNL     1     -10.911  15.521  67.280  0.00  0.00    +0.076 C 
BRANCH  12  13
ATOM     13  N   UNL     1     -11.410  15.968  68.557  0.00  0.00    -0.271 NA
ATOM     14  C   UNL     1     -11.680  14.896  69.479  0.00  0.00    +0.090 C 
BRANCH  13  15
ATOM     15  C   UNL     1     -10.553  16.922  69.210  0.00  0.00    +0.072 C 
BRANCH  15  16
ATOM     16  C   UNL     1      -9.764  17.779  68.265  0.00  0.00    +0.017 C 
BRANCH  16  17
ATOM     17  C   UNL     1      -9.782  19.240  68.612  0.00  0.00    +0.001 C 
BRANCH  17  19
ATOM     18  C   UNL     1     -10.463  19.326  66.247  0.00  0.00    +0.000 C 
ATOM     19  C   UNL     1      -9.883  20.134  67.399  0.00  0.00    +0.000 C 
ENDBRANCH  17  19
ENDBRANCH  16  17
ENDBRANCH  15  16
ENDBRANCH  13  15
ENDBRANCH  12  13
ENDBRANCH  11  12
ENDBRANCH   1  11
TORSDOF 9
ENDMDL
MODEL 3
REMARK VINA RESULT:      -5.2      2.864      4.468
REMARK  Name = 
REMARK  9 active torsions:
REMARK  status: ('A' for Active; 'I' for Inactive)
REMARK    1  A    between atoms: C_2  and  C_3
REMARK    2  A    between atoms: C_3  and  C_4
REMARK    3  A    between atoms: C_4  and  C_5
REMARK    4  A    between atoms: C_5  and  N_6
REMARK    5  A    between atoms: N_6  and  C_8
REMARK    6  A    between atoms: C_8  and  C_9
REMARK    7  A    between atoms: C_9  and  C_10
REMARK    8  A    between atoms: C_10  and  P_12
REMARK    9  A    between atoms: C_10  and  P_16
REMARK                            x       y       z     vdW  Elec       q    Type
REMARK                         _______ _______ _______ _____ _____    ______ ____
ROOT
ATOM      1  C   UNL     1     -11.084  13.721  65.944  0.00  0.00    +0.217 C 
ATOM      2  O   UNL     1     -11.940  14.486  66.751  0.00  0.00    -0.211 OA
ENDROOT
BRANCH   1   3
ATOM      3  P   UNL     1     -10.701  12.219  66.902  0.00  0.00    +0.151 P 
ATOM      4  O   UNL     1     -12.094  11.831  67.791  0.00  0.00    -0.355 OA
ATOM      5  O   UNL     1     -10.319  10.947  65.875  0.00  0.00    -0.355 OA
ATOM      6  O   UNL     1      -9.607  12.533  67.884  0.00  0.00    -0.457 OA
ENDBRANCH   1   3
BRANCH   1   7
ATOM      7  P   UNL     1     -11.993  13.340  64.441  0.00  0.00    +0.151 P 
ATOM      8  O   UNL     1     -12.618  14.770  63.821  0.00  0.00    -0.355 OA
ATOM      9  O   UNL     1     -11.072  12.526  63.298  0.00  0.00    -0.355 OA
ATOM     10  O   UNL     1     -13.153  12.443  64.832  0.00  0.00    -0.457 OA
ENDBRANCH   1   7
BRANCH   1  11
ATOM     11  C   UNL     1      -9.843  14.526  65.708  0.00  0.00    +0.062 C 
BRANCH  11  12
ATOM     12  C   UNL     1      -9.930  15.946  66.180  0.00  0.00    +0.076 C 
BRANCH  12  13
ATOM     13  N   UNL     1      -8.860  16.181  67.118  0.00  0.00    -0.271 NA
ATOM     14  C   UNL     1      -7.733  16.870  66.547  0.00  0.00    +0.090 C 
BRANCH  13  15
ATOM     15  C   UNL     1      -9.274  16.892  68.300  0.00  0.00    +0.072 C 
BRANCH  15  16
ATOM     16  C   UNL     1     -10.290  17.964  68.040  0.00  0.00    +0.017 C 
BRANCH  16  17
ATOM     17  C   UNL     1      -9.837  19.339  68.441  0.00  0.00    +0.001 C 
BRANCH  17  19
ATOM     18  C   UNL     1     -10.431  19.629  66.068  0.00  0.00    +0.000 C 
ATOM     19  C   UNL     1      -9.902  20.335  67.308  0.00  0.00    +0.000 C 
ENDBRANCH  17  19
ENDBRANCH  16  17
ENDBRANCH  15  16
ENDBRANCH  13  15
ENDBRANCH  12  13
ENDBRANCH  11  12
ENDBRANCH   1  11
TORSDOF 9
ENDMDL
MODEL 4
REMARK VINA RESULT:      -5.2      0.830      1.718
REMARK  Name = 
REMARK  9 active torsions:
REMARK  status: ('A' for Active; 'I' for Inactive)
REMARK    1  A    between atoms: C_2  and  C_3
REMARK    2  A    between atoms: C_3  and  C_4
REMARK    3  A    between atoms: C_4  and  C_5
REMARK    4  A    between atoms: C_5  and  N_6
REMARK    5  A    between atoms: N_6  and  C_8
REMARK    6  A    between atoms: C_8  and  C_9
REMARK    7  A    between atoms: C_9  and  C_10
REMARK    8  A    between atoms: C_10  and  P_12
REMARK    9  A    between atoms: C_10  and  P_16
REMARK                            x       y       z     vdW  Elec       q    Type
REMARK                         _______ _______ _______ _____ _____    ______ ____
ROOT
ATOM      1  C   UNL     1     -11.016  13.607  65.963  0.00  0.00    +0.217 C 
ATOM      2  O   UNL     1      -9.751  14.003  65.504  0.00  0.00    -0.211 OA
ENDROOT
BRANCH   1   3
ATOM      3  P   UNL     1     -11.989  13.208  64.474  0.00  0.00    +0.151 P 
ATOM      4  O   UNL     1     -12.578  14.677  63.861  0.00  0.00    -0.355 OA
ATOM      5  O   UNL     1     -11.021  12.467  63.320  0.00  0.00    -0.355 OA
ATOM      6  O   UNL     1     -13.173  12.374  64.875  0.00  0.00    -0.457 OA
ENDBRANCH   1   3
BRANCH   1   7
ATOM      7  P   UNL     1     -10.761  12.162  67.001  0.00  0.00    +0.151 P 
ATOM      8  O   UNL     1      -9.534  12.503  68.095  0.00  0.00    -0.355 OA
ATOM      9  O   UNL     1     -12.156  11.652  67.782  0.00  0.00    -0.355 OA
ATOM     10  O   UNL     1     -10.295  11.035  66.097  0.00  0.00    -0.457 OA
ENDBRANCH   1   7
BRANCH   1  11
ATOM     11  C   UNL     1     -11.620  14.769  66.691  0.00  0.00    +0.062 C 
BRANCH  11  12
ATOM     12  C   UNL     1     -10.662  15.890  66.965  0.00  0.00    +0.076 C 
BRANCH  12  13
ATOM     13  N   UNL     1     -10.564  16.067  68.393  0.00  0.00    -0.271 NA
ATOM     14  C   UNL     1     -10.157  17.391  68.783  0.00  0.00    +0.090 C 
BRANCH  13  15
ATOM     15  C   UNL     1     -11.774  15.739  69.100  0.00  0.00    +0.072 C 
BRANCH  15  16
ATOM     16  C   UNL     1     -11.555  14.902  70.325  0.00  0.00    +0.017 C 
BRANCH  16  17
ATOM     17  C   UNL     1     -11.682  15.665  71.613  0.00  0.00    +0.001 C 
BRANCH  17  19
ATOM     18  C   UNL     1     -12.625  15.447  73.878  0.00  0.00    +0.000 C 
ATOM     19  C   UNL     1     -12.924  15.305  72.392  0.00  0.00    +0.000 C 
ENDBRANCH  17  19
ENDBRANCH  16  17
ENDBRANCH  15  16
ENDBRANCH  13  15
ENDBRANCH  12  13
ENDBRANCH  11  12
ENDBRANCH   1  11
TORSDOF 9
ENDMDL
MODEL 5
REMARK VINA RESULT:      -5.2      1.090      3.008
REMARK  Name = 
REMARK  9 active torsions:
REMARK  status: ('A' for Active; 'I' for Inactive)
REMARK    1  A    between atoms: C_2  and  C_3
REMARK    2  A    between atoms: C_3  and  C_4
REMARK    3  A    between atoms: C_4  and  C_5
REMARK    4  A    between atoms: C_5  and  N_6
REMARK    5  A    between atoms: N_6  and  C_8
REMARK    6  A    between atoms: C_8  and  C_9
REMARK    7  A    between atoms: C_9  and  C_10
REMARK    8  A    between atoms: C_10  and  P_12
REMARK    9  A    between atoms: C_10  and  P_16
REMARK                            x       y       z     vdW  Elec       q    Type
REMARK                         _______ _______ _______ _____ _____    ______ ____
ROOT
ATOM      1  C   UNL     1     -11.343  13.491  66.163  0.00  0.00    +0.217 C 
ATOM      2  O   UNL     1     -12.375  14.048  66.932  0.00  0.00    -0.211 OA
ENDROOT
BRANCH   1   3
ATOM      3  P   UNL     1     -10.914  11.912  66.966  0.00  0.00    +0.151 P 
ATOM      4  O   UNL     1      -9.555  12.206  67.939  0.00  0.00    -0.355 OA
ATOM      5  O   UNL     1     -12.183  11.375  67.924  0.00  0.00    -0.355 OA
ATOM      6  O   UNL     1     -10.512  10.921  65.909  0.00  0.00    -0.457 OA
ENDBRANCH   1   3
BRANCH   1   7
ATOM      7  P   UNL     1     -12.005  13.242  64.510  0.00  0.00    +0.151 P 
ATOM      8  O   UNL     1     -12.572  14.715  63.937  0.00  0.00    -0.355 OA
ATOM      9  O   UNL     1     -10.901  12.553  63.451  0.00  0.00    -0.355 OA
ATOM     10  O   UNL     1     -13.184  12.294  64.637  0.00  0.00    -0.457 OA
ENDBRANCH   1   7
BRANCH   1  11
ATOM     11  C   UNL     1     -10.182  14.437  66.207  0.00  0.00    +0.062 C 
BRANCH  11  12
ATOM     12  C   UNL     1     -10.503  15.782  66.786  0.00  0.00    +0.076 C 
BRANCH  12  13
ATOM     13  N   UNL     1      -9.579  16.050  67.860  0.00  0.00    -0.271 NA
ATOM     14  C   UNL     1      -9.291  17.449  68.038  0.00  0.00    +0.090 C 
BRANCH  13  15
ATOM     15  C   UNL     1      -9.993  15.507  69.127  0.00  0.00    +0.072 C 
BRANCH  15  16
ATOM     16  C   UNL     1     -11.316  16.027  69.608  0.00  0.00    +0.017 C 
BRANCH  16  17
ATOM     17  C   UNL     1     -12.149  14.998  70.319  0.00  0.00    +0.001 C 
BRANCH  17  19
ATOM     18  C   UNL     1     -12.087  15.956  72.587  0.00  0.00    +0.000 C 
ATOM     19  C   UNL     1     -12.995  15.585  71.423  0.00  0.00    +0.000 C 
ENDBRANCH  17  19
ENDBRANCH  16  17
ENDBRANCH  15  16
ENDBRANCH  13  15
ENDBRANCH  12  13
ENDBRANCH  11  12
ENDBRANCH   1  11
TORSDOF 9
ENDMDL
MODEL 6
REMARK VINA RESULT:      -5.2      3.062      4.168
REMARK  Name = 
REMARK  9 active torsions:
REMARK  status: ('A' for Active; 'I' for Inactive)
REMARK    1  A    between atoms: C_2  and  C_3
REMARK    2  A    between atoms: C_3  and  C_4
REMARK    3  A    between atoms: C_4  and  C_5
REMARK    4  A    between atoms: C_5  and  N_6
REMARK    5  A    between atoms: N_6  and  C_8
REMARK    6  A    between atoms: C_8  and  C_9
REMARK    7  A    between atoms: C_9  and  C_10
REMARK    8  A    between atoms: C_10  and  P_12
REMARK    9  A    between atoms: C_10  and  P_16
REMARK                            x       y       z     vdW  Elec       q    Type
REMARK                         _______ _______ _______ _____ _____    ______ ____
ROOT
ATOM      1  C   UNL     1     -11.379  14.009  66.354  0.00  0.00    +0.217 C 
ATOM      2  O   UNL     1     -12.524  14.471  67.021  0.00  0.00    -0.211 OA
ENDROOT
BRANCH   1   3
ATOM      3  P   UNL     1     -11.911  13.616  64.656  0.00  0.00    +0.151 P 
ATOM      4  O   UNL     1     -13.064  12.375  64.775  0.00  0.00    -0.355 OA
ATOM      5  O   UNL     1     -12.608  14.960  63.931  0.00  0.00    -0.355 OA
ATOM      6  O   UNL     1     -10.737  13.074  63.890  0.00  0.00    -0.457 OA
ENDBRANCH   1   3
BRANCH   1   7
ATOM      7  P   UNL     1     -10.184  15.350  66.386  0.00  0.00    +0.151 P 
ATOM      8  O   UNL     1      -8.653  14.694  66.603  0.00  0.00    -0.355 OA
ATOM      9  O   UNL     1     -10.246  16.327  65.023  0.00  0.00    -0.355 OA
ATOM     10  O   UNL     1     -10.508  16.213  67.593  0.00  0.00    -0.457 OA
ENDBRANCH   1   7
BRANCH   1  11
ATOM     11  C   UNL     1     -10.912  12.772  67.059  0.00  0.00    +0.062 C 
BRANCH  11  12
ATOM     12  C   UNL     1     -11.796  12.334  68.188  0.00  0.00    +0.076 C 
BRANCH  12  13
ATOM     13  N   UNL     1     -11.846  10.893  68.196  0.00  0.00    -0.271 NA
ATOM     14  C   UNL     1     -10.826  10.275  67.390  0.00  0.00    +0.090 C 
BRANCH  13  15
ATOM     15  C   UNL     1     -11.789  10.320  69.516  0.00  0.00    +0.072 C 
BRANCH  15  16
ATOM     16  C   UNL     1     -12.131  11.285  70.612  0.00  0.00    +0.017 C 
BRANCH  16  17
ATOM     17  C   UNL     1     -13.036  10.711  71.665  0.00  0.00    +0.001 C 
BRANCH  17  19
ATOM     18  C   UNL     1     -14.220   8.593  72.088  0.00  0.00    +0.000 C 
ATOM     19  C   UNL     1     -12.854   9.224  71.854  0.00  0.00    +0.000 C 
ENDBRANCH  17  19
ENDBRANCH  16  17
ENDBRANCH  15  16
ENDBRANCH  13  15
ENDBRANCH  12  13
ENDBRANCH  11  12
ENDBRANCH   1  11
TORSDOF 9
ENDMDL
MODEL 7
REMARK VINA RESULT:      -5.1      2.649      3.785
REMARK  Name = 
REMARK  9 active torsions:
REMARK  status: ('A' for Active; 'I' for Inactive)
REMARK    1  A    between atoms: C_2  and  C_3
REMARK    2  A    between atoms: C_3  and  C_4
REMARK    3  A    between atoms: C_4  and  C_5
REMARK    4  A    between atoms: C_5  and  N_6
REMARK    5  A    between atoms: N_6  and  C_8
REMARK    6  A    between atoms: C_8  and  C_9
REMARK    7  A    between atoms: C_9  and  C_10
REMARK    8  A    between atoms: C_10  and  P_12
REMARK    9  A    between atoms: C_10  and  P_16
REMARK                            x       y       z     vdW  Elec       q    Type
REMARK                         _______ _______ _______ _____ _____    ______ ____
ROOT
ATOM      1  C   UNL     1     -10.951  14.393  65.997  0.00  0.00    +0.217 C 
ATOM      2  O   UNL     1      -9.757  14.000  65.373  0.00  0.00    -0.211 OA
ENDROOT
BRANCH   1   3
ATOM      3  P   UNL     1     -12.243  14.296  64.716  0.00  0.00    +0.151 P 
ATOM      4  O   UNL     1     -12.277  15.801  63.933  0.00  0.00    -0.355 OA
ATOM      5  O   UNL     1     -11.879  13.093  63.602  0.00  0.00    -0.355 OA
ATOM      6  O   UNL     1     -13.576  14.099  65.382  0.00  0.00    -0.457 OA
ENDBRANCH   1   3
BRANCH   1   7
ATOM      7  P   UNL     1     -11.245  13.228  67.333  0.00  0.00    +0.151 P 
ATOM      8  O   UNL     1     -12.188  13.983  68.499  0.00  0.00    -0.355 OA
ATOM      9  O   UNL     1     -11.939  11.790  66.817  0.00  0.00    -0.355 OA
ATOM     10  O   UNL     1      -9.897  12.900  67.949  0.00  0.00    -0.457 OA
ENDBRANCH   1   7
BRANCH   1  11
ATOM     11  C   UNL     1     -10.775  15.807  66.462  0.00  0.00    +0.062 C 
BRANCH  11  12
ATOM     12  C   UNL     1      -9.370  16.160  66.847  0.00  0.00    +0.076 C 
BRANCH  12  13
ATOM     13  N   UNL     1      -9.318  16.329  68.278  0.00  0.00    -0.271 NA
ATOM     14  C   UNL     1      -7.984  16.506  68.790  0.00  0.00    +0.090 C 
BRANCH  13  15
ATOM     15  C   UNL     1     -10.136  17.409  68.762  0.00  0.00    +0.072 C 
BRANCH  15  16
ATOM     16  C   UNL     1      -9.425  18.728  68.828  0.00  0.00    +0.017 C 
BRANCH  16  17
ATOM     17  C   UNL     1     -10.121  19.831  68.082  0.00  0.00    +0.001 C 
BRANCH  17  19
ATOM     18  C   UNL     1     -10.686  19.533  65.703  0.00  0.00    +0.000 C 
ATOM     19  C   UNL     1      -9.610  20.004  66.672  0.00  0.00    +0.000 C 
ENDBRANCH  17  19
ENDBRANCH  16  17
ENDBRANCH  15  16
ENDBRANCH  13  15
ENDBRANCH  12  13
ENDBRANCH  11  12
ENDBRANCH   1  11
TORSDOF 9
ENDMDL
MODEL 8
REMARK VINA RESULT:      -4.9      4.593      6.465
REMARK  Name = 
REMARK  9 active torsions:
REMARK  status: ('A' for Active; 'I' for Inactive)
REMARK    1  A    between atoms: C_2  and  C_3
REMARK    2  A    between atoms: C_3  and  C_4
REMARK    3  A    between atoms: C_4  and  C_5
REMARK    4  A    between atoms: C_5  and  N_6
REMARK    5  A    between atoms: N_6  and  C_8
REMARK    6  A    between atoms: C_8  and  C_9
REMARK    7  A    between atoms: C_9  and  C_10
REMARK    8  A    between atoms: C_10  and  P_12
REMARK    9  A    between atoms: C_10  and  P_16
REMARK                            x       y       z     vdW  Elec       q    Type
REMARK                         _______ _______ _______ _____ _____    ______ ____
ROOT
ATOM      1  C   UNL     1      -8.640  17.062  66.947  0.00  0.00    +0.217 C 
ATOM      2  O   UNL     1      -8.622  16.744  68.314  0.00  0.00    -0.211 OA
ENDROOT
BRANCH   1   3
ATOM      3  P   UNL     1      -9.900  18.364  66.750  0.00  0.00    +0.151 P 
ATOM      4  O   UNL     1     -11.055  18.121  67.969  0.00  0.00    -0.355 OA
ATOM      5  O   UNL     1      -9.209  19.883  66.927  0.00  0.00    -0.355 OA
ATOM      6  O   UNL     1     -10.588  18.179  65.426  0.00  0.00    -0.457 OA
ENDBRANCH   1   3
BRANCH   1   7
ATOM      7  P   UNL     1      -6.995  17.656  66.532  0.00  0.00    +0.151 P 
ATOM      8  O   UNL     1      -5.938  16.351  66.549  0.00  0.00    -0.355 OA
ATOM      9  O   UNL     1      -6.936  18.476  65.069  0.00  0.00    -0.355 OA
ATOM     10  O   UNL     1      -6.577  18.622  67.626  0.00  0.00    -0.457 OA
ENDBRANCH   1   7
BRANCH   1  11
ATOM     11  C   UNL     1      -9.037  15.826  66.199  0.00  0.00    +0.062 C 
BRANCH  11  12
ATOM     12  C   UNL     1      -9.294  14.634  67.070  0.00  0.00    +0.076 C 
BRANCH  12  13
ATOM     13  N   UNL     1     -10.684  14.269  66.947  0.00  0.00    -0.271 NA
ATOM     14  C   UNL     1     -11.480  14.635  68.089  0.00  0.00    +0.090 C 
BRANCH  13  15
ATOM     15  C   UNL     1     -11.317  14.796  65.767  0.00  0.00    +0.072 C 
BRANCH  15  16
ATOM     16  C   UNL     1     -12.533  14.032  65.336  0.00  0.00    +0.017 C 
BRANCH  16  17
ATOM     17  C   UNL     1     -12.268  12.582  65.047  0.00  0.00    +0.001 C 
BRANCH  17  19
ATOM     18  C   UNL     1     -10.549  11.865  63.434  0.00  0.00    +0.000 C 
ATOM     19  C   UNL     1     -11.997  12.311  63.586  0.00  0.00    +0.000 C 
ENDBRANCH  17  19
ENDBRANCH  16  17
ENDBRANCH  15  16
ENDBRANCH  13  15
ENDBRANCH  12  13
ENDBRANCH  11  12
ENDBRANCH   1  11
TORSDOF 9
ENDMDL
MODEL 9
REMARK VINA RESULT:      -4.9      3.479      5.234
REMARK  Name = 
REMARK  9 active torsions:
REMARK  status: ('A' for Active; 'I' for Inactive)
REMARK    1  A    between atoms: C_2  and  C_3
REMARK    2  A    between atoms: C_3  and  C_4
REMARK    3  A    between atoms: C_4  and  C_5
REMARK    4  A    between atoms: C_5  and  N_6
REMARK    5  A    between atoms: N_6  and  C_8
REMARK    6  A    between atoms: C_8  and  C_9
REMARK    7  A    between atoms: C_9  and  C_10
REMARK    8  A    between atoms: C_10  and  P_12
REMARK    9  A    between atoms: C_10  and  P_16
REMARK                            x       y       z     vdW  Elec       q    Type
REMARK                         _______ _______ _______ _____ _____    ______ ____
ROOT
ATOM      1  C   UNL     1     -10.897  14.395  66.020  0.00  0.00    +0.217 C 
ATOM      2  O   UNL     1     -11.524  15.013  67.113  0.00  0.00    -0.211 OA
ENDROOT
BRANCH   1   3
ATOM      3  P   UNL     1     -10.500  12.701  66.560  0.00  0.00    +0.151 P 
ATOM      4  O   UNL     1     -11.970  11.859  66.668  0.00  0.00    -0.355 OA
ATOM      5  O   UNL     1      -9.502  11.944  65.442  0.00  0.00    -0.355 OA
ATOM      6  O   UNL     1      -9.905  12.756  67.940  0.00  0.00    -0.457 OA
ENDBRANCH   1   3
BRANCH   1   7
ATOM      7  P   UNL     1     -12.083  14.405  64.670  0.00  0.00    +0.151 P 
ATOM      8  O   UNL     1     -12.048  15.917  63.941  0.00  0.00    -0.355 OA
ATOM      9  O   UNL     1     -11.827  13.178  63.553  0.00  0.00    -0.355 OA
ATOM     10  O   UNL     1     -13.459  14.201  65.279  0.00  0.00    -0.457 OA
ENDBRANCH   1   7
BRANCH   1  11
ATOM     11  C   UNL     1      -9.644  15.161  65.722  0.00  0.00    +0.062 C 
BRANCH  11  12
ATOM     12  C   UNL     1      -9.318  16.225  66.727  0.00  0.00    +0.076 C 
BRANCH  12  13
ATOM     13  N   UNL     1      -9.176  17.480  66.032  0.00  0.00    -0.271 NA
ATOM     14  C   UNL     1     -10.293  18.370  66.213  0.00  0.00    +0.090 C 
BRANCH  13  15
ATOM     15  C   UNL     1      -7.971  18.193  66.368  0.00  0.00    +0.072 C 
BRANCH  15  16
ATOM     16  C   UNL     1      -8.147  19.680  66.449  0.00  0.00    +0.017 C 
BRANCH  16  17
ATOM     17  C   UNL     1      -7.332  20.330  67.531  0.00  0.00    +0.001 C 
BRANCH  17  19
ATOM     18  C   UNL     1      -6.205  20.110  69.710  0.00  0.00    +0.000 C 
ATOM     19  C   UNL     1      -7.253  19.500  68.790  0.00  0.00    +0.000 C 
ENDBRANCH  17  19
ENDBRANCH  16  17
ENDBRANCH  15  16
ENDBRANCH  13  15
ENDBRANCH  12  13
ENDBRANCH  11  12
ENDBRANCH   1  11
TORSDOF 9
ENDMDL
