MODEL 1
REMARK VINA RESULT:      -8.3      0.000      0.000
REMARK  Name = 
REMARK  7 active torsions:
REMARK  status: ('A' for Active; 'I' for Inactive)
REMARK    1  A    between atoms: C_2  and  C_3
REMARK    2  A    between atoms: C_3  and  C_4
REMARK    3  A    between atoms: C_11  and  C_12
REMARK    4  A    between atoms: C_14  and  S_15
REMARK    5  A    between atoms: S_15  and  N_18
REMARK    6  A    between atoms: C_27  and  O_28
REMARK    7  A    between atoms: O_28  and  C_29
REMARK                            x       y       z     vdW  Elec       q    Type
REMARK                         _______ _______ _______ _____ _____    ______ ____
ROOT
ATOM      1  C   UNL     1     -10.911  14.984  67.511  0.00  0.00    +0.071 A 
ATOM      2  C   UNL     1     -11.300  14.547  66.250  0.00  0.00    +0.141 A 
ATOM      3  C   UNL     1     -10.728  15.207  65.182  0.00  0.00    +0.038 A 
ATOM      4  C   UNL     1     -10.092  16.425  65.383  0.00  0.00    +0.023 A 
ATOM      5  C   UNL     1     -10.130  17.059  66.620  0.00  0.00    +0.122 A 
ATOM      6  C   UNL     1     -10.382  16.242  67.711  0.00  0.00    +0.026 A 
ENDROOT
BRANCH   1  10
ATOM      7  C   UNL     1     -13.170  13.670  71.686  0.00  0.00    +0.098 A 
ATOM      8  C   UNL     1     -12.256  13.598  70.645  0.00  0.00    +0.120 A 
ATOM      9  N   UNL     1     -11.870  14.512  69.724  0.00  0.00    -0.223 NA
ATOM     10  C   UNL     1     -11.172  14.095  68.648  0.00  0.00    +0.169 A 
ATOM     11  N   UNL     1     -10.705  12.835  68.658  0.00  0.00    -0.187 NA
ATOM     12  C   UNL     1     -11.246  11.852  69.413  0.00  0.00    +0.299 A 
ATOM     13  O   UNL     1     -11.280  10.658  68.990  0.00  0.00    -0.263 OA
ATOM     14  C   UNL     1     -12.157  12.248  70.368  0.00  0.00    +0.154 A 
ATOM     15  N   UNL     1     -12.947  11.541  71.199  0.00  0.00    -0.243 N 
ATOM     16  C   UNL     1     -13.166  10.124  71.052  0.00  0.00    +0.154 C 
ATOM     17  N   UNL     1     -13.361  12.398  72.108  0.00  0.00    -0.172 NA
BRANCH   7  18
ATOM     18  C   UNL     1     -13.920  14.901  72.066  0.00  0.00    +0.049 C 
BRANCH  18  20
ATOM     19  C   UNL     1     -12.466  15.260  74.073  0.00  0.00    +0.000 C 
ATOM     20  C   UNL     1     -13.017  15.885  72.799  0.00  0.00    +0.006 C 
ENDBRANCH  18  20
ENDBRANCH   7  18
ENDBRANCH   1  10
BRANCH   5  21
ATOM     21  S   UNL     1     -10.196  18.814  66.732  0.00  0.00    +0.063 S 
ATOM     22  O   UNL     1     -10.703  19.308  65.398  0.00  0.00    -0.153 OA
ATOM     23  O   UNL     1     -11.132  19.225  67.832  0.00  0.00    -0.153 OA
BRANCH  21  24
ATOM     24  N   UNL     1      -8.637  19.363  67.110  0.00  0.00    -0.153 NA
ATOM     25  C   UNL     1      -7.646  19.172  66.117  0.00  0.00    +0.113 C 
ATOM     26  C   UNL     1      -6.532  18.240  66.468  0.00  0.00    +0.092 C 
ATOM     27  N   UNL     1      -6.014  18.408  67.798  0.00  0.00    -0.269 NA
ATOM     28  C   UNL     1      -5.256  19.616  67.983  0.00  0.00    +0.090 C 
ATOM     29  C   UNL     1      -7.116  18.266  68.713  0.00  0.00    +0.092 C 
ATOM     30  C   UNL     1      -8.239  19.225  68.465  0.00  0.00    +0.113 C 
ENDBRANCH  21  24
ENDBRANCH   5  21
BRANCH   2  31
ATOM     31  O   UNL     1     -12.460  13.778  66.121  0.00  0.00    -0.475 OA
BRANCH  31  32
ATOM     32  C   UNL     1     -12.516  12.759  65.133  0.00  0.00    +0.206 C 
ATOM     33  C   UNL     1     -11.422  11.741  65.287  0.00  0.00    +0.051 C 
ENDBRANCH  31  32
ENDBRANCH   2  31
TORSDOF 7
ENDMDL
MODEL 2
REMARK VINA RESULT:      -7.5      3.314      5.184
REMARK  Name = 
REMARK  7 active torsions:
REMARK  status: ('A' for Active; 'I' for Inactive)
REMARK    1  A    between atoms: C_2  and  C_3
REMARK    2  A    between atoms: C_3  and  C_4
REMARK    3  A    between atoms: C_11  and  C_12
REMARK    4  A    between atoms: C_14  and  S_15
REMARK    5  A    between atoms: S_15  and  N_18
REMARK    6  A    between atoms: C_27  and  O_28
REMARK    7  A    between atoms: O_28  and  C_29
REMARK                            x       y       z     vdW  Elec       q    Type
REMARK                         _______ _______ _______ _____ _____    ______ ____
ROOT
ATOM      1  C   UNL     1      -9.622  17.692  66.450  0.00  0.00    +0.071 A 
ATOM      2  C   UNL     1     -10.495  18.182  67.414  0.00  0.00    +0.141 A 
ATOM      3  C   UNL     1     -10.412  19.536  67.668  0.00  0.00    +0.038 A 
ATOM      4  C   UNL     1      -9.305  20.253  67.232  0.00  0.00    +0.023 A 
ATOM      5  C   UNL     1      -8.215  19.611  66.657  0.00  0.00    +0.122 A 
ATOM      6  C   UNL     1      -8.467  18.364  66.108  0.00  0.00    +0.026 A 
ENDROOT
BRANCH   1  10
ATOM      7  C   UNL     1      -9.671  12.767  66.421  0.00  0.00    +0.098 A 
ATOM      8  C   UNL     1      -9.839  14.054  65.931  0.00  0.00    +0.120 A 
ATOM      9  N   UNL     1      -9.374  15.248  66.367  0.00  0.00    -0.223 NA
ATOM     10  C   UNL     1      -9.920  16.376  65.871  0.00  0.00    +0.169 A 
ATOM     11  N   UNL     1     -10.737  16.261  64.810  0.00  0.00    -0.187 NA
ATOM     12  C   UNL     1     -11.393  15.118  64.505  0.00  0.00    +0.299 A 
ATOM     13  O   UNL     1     -12.552  15.158  63.993  0.00  0.00    -0.263 OA
ATOM     14  C   UNL     1     -11.003  13.989  65.191  0.00  0.00    +0.154 A 
ATOM     15  N   UNL     1     -11.503  12.738  65.213  0.00  0.00    -0.243 N 
ATOM     16  C   UNL     1     -12.789  12.401  64.654  0.00  0.00    +0.154 C 
ATOM     17  N   UNL     1     -10.571  11.994  65.768  0.00  0.00    -0.172 NA
BRANCH   7  18
ATOM     18  C   UNL     1      -8.812  12.413  67.588  0.00  0.00    +0.049 C 
BRANCH  18  20
ATOM     19  C   UNL     1      -6.375  12.982  67.499  0.00  0.00    +0.000 C 
ATOM     20  C   UNL     1      -7.434  11.952  67.130  0.00  0.00    +0.006 C 
ENDBRANCH  18  20
ENDBRANCH   7  18
ENDBRANCH   1  10
BRANCH   5  21
ATOM     21  S   UNL     1      -6.578  20.200  66.924  0.00  0.00    +0.063 S 
ATOM     22  O   UNL     1      -5.935  20.307  65.562  0.00  0.00    -0.153 OA
ATOM     23  O   UNL     1      -6.617  21.545  67.591  0.00  0.00    -0.153 OA
BRANCH  21  24
ATOM     24  N   UNL     1      -5.800  19.102  67.957  0.00  0.00    -0.153 NA
ATOM     25  C   UNL     1      -4.938  18.164  67.341  0.00  0.00    +0.113 C 
ATOM     26  C   UNL     1      -5.346  16.730  67.438  0.00  0.00    +0.092 C 
ATOM     27  N   UNL     1      -5.822  16.335  68.736  0.00  0.00    -0.269 NA
ATOM     28  C   UNL     1      -4.794  16.262  69.740  0.00  0.00    +0.090 C 
ATOM     29  C   UNL     1      -6.912  17.209  69.082  0.00  0.00    +0.092 C 
ATOM     30  C   UNL     1      -6.551  18.662  69.077  0.00  0.00    +0.113 C 
ENDBRANCH  21  24
ENDBRANCH   5  21
BRANCH   2  31
ATOM     31  O   UNL     1     -11.105  17.290  68.301  0.00  0.00    -0.475 OA
BRANCH  31  32
ATOM     32  C   UNL     1     -10.398  16.861  69.456  0.00  0.00    +0.206 C 
ATOM     33  C   UNL     1     -10.634  15.413  69.777  0.00  0.00    +0.051 C 
ENDBRANCH  31  32
ENDBRANCH   2  31
TORSDOF 7
ENDMDL
MODEL 3
REMARK VINA RESULT:      -7.3      4.395      8.718
REMARK  Name = 
REMARK  7 active torsions:
REMARK  status: ('A' for Active; 'I' for Inactive)
REMARK    1  A    between atoms: C_2  and  C_3
REMARK    2  A    between atoms: C_3  and  C_4
REMARK    3  A    between atoms: C_11  and  C_12
REMARK    4  A    between atoms: C_14  and  S_15
REMARK    5  A    between atoms: S_15  and  N_18
REMARK    6  A    between atoms: C_27  and  O_28
REMARK    7  A    between atoms: O_28  and  C_29
REMARK                            x       y       z     vdW  Elec       q    Type
REMARK                         _______ _______ _______ _____ _____    ______ ____
ROOT
ATOM      1  C   UNL     1     -10.967   9.876  70.546  0.00  0.00    +0.071 A 
ATOM      2  C   UNL     1     -11.861   9.270  71.420  0.00  0.00    +0.141 A 
ATOM      3  C   UNL     1     -11.299   8.496  72.414  0.00  0.00    +0.038 A 
ATOM      4  C   UNL     1      -9.972   8.098  72.311  0.00  0.00    +0.023 A 
ATOM      5  C   UNL     1      -9.232   8.355  71.163  0.00  0.00    +0.122 A 
ATOM      6  C   UNL     1      -9.684   9.399  70.372  0.00  0.00    +0.026 A 
ENDROOT
BRANCH   1  10
ATOM      7  C   UNL     1     -11.971  14.616  69.656  0.00  0.00    +0.098 A 
ATOM      8  C   UNL     1     -11.952  13.246  69.437  0.00  0.00    +0.120 A 
ATOM      9  N   UNL     1     -11.693  12.208  70.267  0.00  0.00    -0.223 NA
ATOM     10  C   UNL     1     -11.465  10.992  69.732  0.00  0.00    +0.169 A 
ATOM     11  N   UNL     1     -11.726  10.826  68.424  0.00  0.00    -0.187 NA
ATOM     12  C   UNL     1     -11.755  11.850  67.541  0.00  0.00    +0.299 A 
ATOM     13  O   UNL     1     -11.361  11.684  66.348  0.00  0.00    -0.263 OA
ATOM     14  C   UNL     1     -11.743  13.119  68.078  0.00  0.00    +0.154 A 
ATOM     15  N   UNL     1     -11.658  14.333  67.502  0.00  0.00    -0.243 N 
ATOM     16  C   UNL     1     -11.293  14.519  66.119  0.00  0.00    +0.154 C 
ATOM     17  N   UNL     1     -12.017  15.192  68.432  0.00  0.00    -0.172 NA
BRANCH   7  18
ATOM     18  C   UNL     1     -11.757  15.261  70.983  0.00  0.00    +0.049 C 
BRANCH  18  20
ATOM     19  C   UNL     1     -13.103  14.746  73.031  0.00  0.00    +0.000 C 
ATOM     20  C   UNL     1     -13.082  15.486  71.700  0.00  0.00    +0.006 C 
ENDBRANCH  18  20
ENDBRANCH   7  18
ENDBRANCH   1  10
BRANCH   5  21
ATOM     21  S   UNL     1      -8.023   7.209  70.594  0.00  0.00    +0.063 S 
ATOM     22  O   UNL     1      -6.801   8.020  70.236  0.00  0.00    -0.153 OA
ATOM     23  O   UNL     1      -7.698   6.222  71.679  0.00  0.00    -0.153 OA
BRANCH  21  24
ATOM     24  N   UNL     1      -8.690   6.371  69.278  0.00  0.00    -0.153 NA
ATOM     25  C   UNL     1      -8.488   6.946  68.001  0.00  0.00    +0.113 C 
ATOM     26  C   UNL     1      -9.713   7.418  67.289  0.00  0.00    +0.092 C 
ATOM     27  N   UNL     1     -10.829   6.514  67.363  0.00  0.00    -0.269 NA
ATOM     28  C   UNL     1     -10.663   5.315  66.586  0.00  0.00    +0.090 C 
ATOM     29  C   UNL     1     -11.099   6.273  68.756  0.00  0.00    +0.092 C 
ATOM     30  C   UNL     1      -9.931   5.725  69.516  0.00  0.00    +0.113 C 
ENDBRANCH  21  24
ENDBRANCH   5  21
BRANCH   2  31
ATOM     31  O   UNL     1     -13.205   9.157  71.053  0.00  0.00    -0.475 OA
BRANCH  31  32
ATOM     32  C   UNL     1     -14.153   8.700  72.008  0.00  0.00    +0.206 C 
ATOM     33  C   UNL     1     -14.752   7.372  71.643  0.00  0.00    +0.051 C 
ENDBRANCH  31  32
ENDBRANCH   2  31
TORSDOF 7
ENDMDL
MODEL 4
REMARK VINA RESULT:      -7.0      2.077      3.412
REMARK  Name = 
REMARK  7 active torsions:
REMARK  status: ('A' for Active; 'I' for Inactive)
REMARK    1  A    between atoms: C_2  and  C_3
REMARK    2  A    between atoms: C_3  and  C_4
REMARK    3  A    between atoms: C_11  and  C_12
REMARK    4  A    between atoms: C_14  and  S_15
REMARK    5  A    between atoms: S_15  and  N_18
REMARK    6  A    between atoms: C_27  and  O_28
REMARK    7  A    between atoms: O_28  and  C_29
REMARK                            x       y       z     vdW  Elec       q    Type
REMARK                         _______ _______ _______ _____ _____    ______ ____
ROOT
ATOM      1  C   UNL     1     -10.011  15.945  67.874  0.00  0.00    +0.071 A 
ATOM      2  C   UNL     1      -9.904  15.664  66.517  0.00  0.00    +0.141 A 
ATOM      3  C   UNL     1      -8.729  16.061  65.912  0.00  0.00    +0.038 A 
ATOM      4  C   UNL     1      -7.895  16.968  66.553  0.00  0.00    +0.023 A 
ATOM      5  C   UNL     1      -8.281  17.586  67.737  0.00  0.00    +0.122 A 
ATOM      6  C   UNL     1      -9.253  16.928  68.475  0.00  0.00    +0.026 A 
ENDROOT
BRANCH   1  10
ATOM      7  C   UNL     1     -11.943  11.971  70.052  0.00  0.00    +0.098 A 
ATOM      8  C   UNL     1     -11.886  13.275  69.581  0.00  0.00    +0.120 A 
ATOM      9  N   UNL     1     -11.049  13.877  68.703  0.00  0.00    -0.223 NA
ATOM     10  C   UNL     1     -11.037  15.223  68.637  0.00  0.00    +0.169 A 
ATOM     11  N   UNL     1     -12.010  15.889  69.282  0.00  0.00    -0.187 NA
ATOM     12  C   UNL     1     -12.696  15.366  70.324  0.00  0.00    +0.299 A 
ATOM     13  O   UNL     1     -13.085  16.108  71.276  0.00  0.00    -0.263 OA
ATOM     14  C   UNL     1     -12.524  14.019  70.554  0.00  0.00    +0.154 A 
ATOM     15  N   UNL     1     -12.960  13.218  71.545  0.00  0.00    -0.243 N 
ATOM     16  C   UNL     1     -13.531  13.726  72.768  0.00  0.00    +0.154 C 
ATOM     17  N   UNL     1     -12.791  11.989  71.107  0.00  0.00    -0.172 NA
BRANCH   7  18
ATOM     18  C   UNL     1     -11.056  10.867  69.587  0.00  0.00    +0.049 C 
BRANCH  18  20
ATOM     19  C   UNL     1      -9.493   9.177  70.573  0.00  0.00    +0.000 C 
ATOM     20  C   UNL     1     -10.868   9.822  70.680  0.00  0.00    +0.006 C 
ENDBRANCH  18  20
ENDBRANCH   7  18
ENDBRANCH   1  10
BRANCH   5  21
ATOM     21  S   UNL     1      -7.812  19.247  68.082  0.00  0.00    +0.063 S 
ATOM     22  O   UNL     1      -8.082  20.036  66.823  0.00  0.00    -0.153 OA
ATOM     23  O   UNL     1      -8.626  19.786  69.223  0.00  0.00    -0.153 OA
BRANCH  21  24
ATOM     24  N   UNL     1      -6.178  19.235  68.537  0.00  0.00    -0.153 NA
ATOM     25  C   UNL     1      -5.774  18.188  69.399  0.00  0.00    +0.113 C 
ATOM     26  C   UNL     1      -5.320  18.595  70.763  0.00  0.00    +0.092 C 
ATOM     27  N   UNL     1      -4.458  19.745  70.783  0.00  0.00    -0.269 NA
ATOM     28  C   UNL     1      -3.141  19.501  70.259  0.00  0.00    +0.090 C 
ATOM     29  C   UNL     1      -5.155  20.820  70.126  0.00  0.00    +0.092 C 
ATOM     30  C   UNL     1      -5.575  20.506  68.724  0.00  0.00    +0.113 C 
ENDBRANCH  21  24
ENDBRANCH   5  21
BRANCH   2  31
ATOM     31  O   UNL     1     -11.058  15.367  65.787  0.00  0.00    -0.475 OA
BRANCH  31  32
ATOM     32  C   UNL     1     -11.103  14.182  65.004  0.00  0.00    +0.206 C 
ATOM     33  C   UNL     1     -12.323  13.350  65.280  0.00  0.00    +0.051 C 
ENDBRANCH  31  32
ENDBRANCH   2  31
TORSDOF 7
ENDMDL
MODEL 5
REMARK VINA RESULT:      -7.0      3.261      5.326
REMARK  Name = 
REMARK  7 active torsions:
REMARK  status: ('A' for Active; 'I' for Inactive)
REMARK    1  A    between atoms: C_2  and  C_3
REMARK    2  A    between atoms: C_3  and  C_4
REMARK    3  A    between atoms: C_11  and  C_12
REMARK    4  A    between atoms: C_14  and  S_15
REMARK    5  A    between atoms: S_15  and  N_18
REMARK    6  A    between atoms: C_27  and  O_28
REMARK    7  A    between atoms: O_28  and  C_29
REMARK                            x       y       z     vdW  Elec       q    Type
REMARK                         _______ _______ _______ _____ _____    ______ ____
ROOT
ATOM      1  C   UNL     1      -9.390  17.534  66.738  0.00  0.00    +0.071 A 
ATOM      2  C   UNL     1     -10.350  18.105  67.564  0.00  0.00    +0.141 A 
ATOM      3  C   UNL     1     -10.154  19.433  67.885  0.00  0.00    +0.038 A 
ATOM      4  C   UNL     1      -8.915  20.019  67.668  0.00  0.00    +0.023 A 
ATOM      5  C   UNL     1      -7.825  19.262  67.254  0.00  0.00    +0.122 A 
ATOM      6  C   UNL     1      -8.124  18.067  66.619  0.00  0.00    +0.026 A 
ENDROOT
BRANCH   1  10
ATOM      7  C   UNL     1      -9.632  12.630  66.345  0.00  0.00    +0.098 A 
ATOM      8  C   UNL     1      -9.748  13.955  65.951  0.00  0.00    +0.120 A 
ATOM      9  N   UNL     1      -9.238  15.094  66.475  0.00  0.00    -0.223 NA
ATOM     10  C   UNL     1      -9.737  16.277  66.063  0.00  0.00    +0.169 A 
ATOM     11  N   UNL     1     -10.554  16.273  64.995  0.00  0.00    -0.187 NA
ATOM     12  C   UNL     1     -11.253  15.182  64.605  0.00  0.00    +0.299 A 
ATOM     13  O   UNL     1     -12.407  15.305  64.096  0.00  0.00    -0.263 OA
ATOM     14  C   UNL     1     -10.911  13.991  65.207  0.00  0.00    +0.154 A 
ATOM     15  N   UNL     1     -11.459  12.763  65.136  0.00  0.00    -0.243 N 
ATOM     16  C   UNL     1     -12.755  12.518  64.552  0.00  0.00    +0.154 C 
ATOM     17  N   UNL     1     -10.560  11.943  65.636  0.00  0.00    -0.172 NA
BRANCH   7  18
ATOM     18  C   UNL     1      -8.793  12.158  67.483  0.00  0.00    +0.049 C 
BRANCH  18  20
ATOM     19  C   UNL     1      -8.988   9.760  68.179  0.00  0.00    +0.000 C 
ATOM     20  C   UNL     1      -9.557  11.162  68.348  0.00  0.00    +0.006 C 
ENDBRANCH  18  20
ENDBRANCH   7  18
ENDBRANCH   1  10
BRANCH   5  21
ATOM     21  S   UNL     1      -6.199  19.642  67.811  0.00  0.00    +0.063 S 
ATOM     22  O   UNL     1      -6.334  20.813  68.755  0.00  0.00    -0.153 OA
ATOM     23  O   UNL     1      -5.609  18.460  68.524  0.00  0.00    -0.153 OA
BRANCH  21  24
ATOM     24  N   UNL     1      -5.254  19.980  66.443  0.00  0.00    -0.153 NA
ATOM     25  C   UNL     1      -5.835  20.832  65.474  0.00  0.00    +0.113 C 
ATOM     26  C   UNL     1      -6.111  20.222  64.139  0.00  0.00    +0.092 C 
ATOM     27  N   UNL     1      -5.054  19.387  63.638  0.00  0.00    -0.269 NA
ATOM     28  C   UNL     1      -3.881  20.111  63.225  0.00  0.00    +0.090 C 
ATOM     29  C   UNL     1      -4.795  18.375  64.627  0.00  0.00    +0.092 C 
ATOM     30  C   UNL     1      -4.435  18.920  65.975  0.00  0.00    +0.113 C 
ENDBRANCH  21  24
ENDBRANCH   5  21
BRANCH   2  31
ATOM     31  O   UNL     1     -11.200  17.274  68.301  0.00  0.00    -0.475 OA
BRANCH  31  32
ATOM     32  C   UNL     1     -10.701  16.609  69.453  0.00  0.00    +0.206 C 
ATOM     33  C   UNL     1     -11.149  15.178  69.537  0.00  0.00    +0.051 C 
ENDBRANCH  31  32
ENDBRANCH   2  31
TORSDOF 7
ENDMDL
MODEL 6
REMARK VINA RESULT:      -7.0      4.072      8.122
REMARK  Name = 
REMARK  7 active torsions:
REMARK  status: ('A' for Active; 'I' for Inactive)
REMARK    1  A    between atoms: C_2  and  C_3
REMARK    2  A    between atoms: C_3  and  C_4
REMARK    3  A    between atoms: C_11  and  C_12
REMARK    4  A    between atoms: C_14  and  S_15
REMARK    5  A    between atoms: S_15  and  N_18
REMARK    6  A    between atoms: C_27  and  O_28
REMARK    7  A    between atoms: O_28  and  C_29
REMARK                            x       y       z     vdW  Elec       q    Type
REMARK                         _______ _______ _______ _____ _____    ______ ____
ROOT
ATOM      1  C   UNL     1     -11.349   9.955  70.036  0.00  0.00    +0.071 A 
ATOM      2  C   UNL     1     -11.863   9.599  71.277  0.00  0.00    +0.141 A 
ATOM      3  C   UNL     1     -11.223   8.557  71.917  0.00  0.00    +0.038 A 
ATOM      4  C   UNL     1     -10.363   7.733  71.203  0.00  0.00    +0.023 A 
ATOM      5  C   UNL     1     -10.232   7.854  69.824  0.00  0.00    +0.122 A 
ATOM      6  C   UNL     1     -10.587   9.082  69.288  0.00  0.00    +0.026 A 
ENDROOT
BRANCH   1  10
ATOM      7  C   UNL     1     -11.873  14.849  70.238  0.00  0.00    +0.098 A 
ATOM      8  C   UNL     1     -11.986  13.568  69.719  0.00  0.00    +0.120 A 
ATOM      9  N   UNL     1     -11.839  12.350  70.293  0.00  0.00    -0.223 NA
ATOM     10  C   UNL     1     -11.725  11.268  69.498  0.00  0.00    +0.169 A 
ATOM     11  N   UNL     1     -11.987  11.424  68.189  0.00  0.00    -0.187 NA
ATOM     12  C   UNL     1     -11.905  12.618  67.557  0.00  0.00    +0.299 A 
ATOM     13  O   UNL     1     -11.516  12.684  66.352  0.00  0.00    -0.263 OA
ATOM     14  C   UNL     1     -11.774  13.727  68.364  0.00  0.00    +0.154 A 
ATOM     15  N   UNL     1     -11.564  15.025  68.072  0.00  0.00    -0.243 N 
ATOM     16  C   UNL     1     -11.167  15.478  66.762  0.00  0.00    +0.154 C 
ATOM     17  N   UNL     1     -11.847  15.686  69.174  0.00  0.00    -0.172 NA
BRANCH   7  18
ATOM     18  C   UNL     1     -11.611  15.158  71.673  0.00  0.00    +0.049 C 
BRANCH  18  20
ATOM     19  C   UNL     1     -12.686  15.564  73.898  0.00  0.00    +0.000 C 
ATOM     20  C   UNL     1     -12.898  15.548  72.390  0.00  0.00    +0.006 C 
ENDBRANCH  18  20
ENDBRANCH   7  18
ENDBRANCH   1  10
BRANCH   5  21
ATOM     21  S   UNL     1      -9.966   6.437  68.815  0.00  0.00    +0.063 S 
ATOM     22  O   UNL     1      -9.768   5.274  69.757  0.00  0.00    -0.153 OA
ATOM     23  O   UNL     1     -11.158   6.201  67.933  0.00  0.00    -0.153 OA
BRANCH  21  24
ATOM     24  N   UNL     1      -8.617   6.751  67.835  0.00  0.00    -0.153 NA
ATOM     25  C   UNL     1      -7.475   7.275  68.487  0.00  0.00    +0.113 C 
ATOM     26  C   UNL     1      -7.072   8.660  68.100  0.00  0.00    +0.092 C 
ATOM     27  N   UNL     1      -7.119   8.920  66.687  0.00  0.00    -0.269 NA
ATOM     28  C   UNL     1      -6.090   8.254  65.935  0.00  0.00    +0.090 C 
ATOM     29  C   UNL     1      -8.454   8.623  66.237  0.00  0.00    +0.092 C 
ATOM     30  C   UNL     1      -8.896   7.222  66.526  0.00  0.00    +0.113 C 
ENDBRANCH  21  24
ENDBRANCH   5  21
BRANCH   2  31
ATOM     31  O   UNL     1     -13.151  10.015  71.629  0.00  0.00    -0.475 OA
BRANCH  31  32
ATOM     32  C   UNL     1     -13.960   9.173  72.438  0.00  0.00    +0.206 C 
ATOM     33  C   UNL     1     -14.725   8.158  71.636  0.00  0.00    +0.051 C 
ENDBRANCH  31  32
ENDBRANCH   2  31
TORSDOF 7
ENDMDL
MODEL 7
REMARK VINA RESULT:      -6.9      2.553      3.216
REMARK  Name = 
REMARK  7 active torsions:
REMARK  status: ('A' for Active; 'I' for Inactive)
REMARK    1  A    between atoms: C_2  and  C_3
REMARK    2  A    between atoms: C_3  and  C_4
REMARK    3  A    between atoms: C_11  and  C_12
REMARK    4  A    between atoms: C_14  and  S_15
REMARK    5  A    between atoms: S_15  and  N_18
REMARK    6  A    between atoms: C_27  and  O_28
REMARK    7  A    between atoms: O_28  and  C_29
REMARK                            x       y       z     vdW  Elec       q    Type
REMARK                         _______ _______ _______ _____ _____    ______ ____
ROOT
ATOM      1  C   UNL     1     -10.206  14.139  66.645  0.00  0.00    +0.071 A 
ATOM      2  C   UNL     1     -10.960  14.342  65.496  0.00  0.00    +0.141 A 
ATOM      3  C   UNL     1     -10.855  15.591  64.919  0.00  0.00    +0.038 A 
ATOM      4  C   UNL     1     -10.305  16.641  65.644  0.00  0.00    +0.023 A 
ATOM      5  C   UNL     1      -9.976  16.492  66.986  0.00  0.00    +0.122 A 
ATOM      6  C   UNL     1      -9.760  15.192  67.416  0.00  0.00    +0.026 A 
ENDROOT
BRANCH   1  10
ATOM      7  C   UNL     1     -11.032  10.159  69.427  0.00  0.00    +0.098 A 
ATOM      8  C   UNL     1     -10.405  10.952  68.477  0.00  0.00    +0.120 A 
ATOM      9  N   UNL     1     -10.470  12.282  68.233  0.00  0.00    -0.223 NA
ATOM     10  C   UNL     1      -9.977  12.753  67.070  0.00  0.00    +0.169 A 
ATOM     11  N   UNL     1      -9.248  11.913  66.315  0.00  0.00    -0.187 NA
ATOM     12  C   UNL     1      -9.355  10.567  66.396  0.00  0.00    +0.299 A 
ATOM     13  O   UNL     1      -9.218   9.847  65.362  0.00  0.00    -0.263 OA
ATOM     14  C   UNL     1     -10.073  10.075  67.463  0.00  0.00    +0.154 A 
ATOM     15  N   UNL     1     -10.458   8.824  67.782  0.00  0.00    -0.243 N 
ATOM     16  C   UNL     1     -10.380   7.722  66.856  0.00  0.00    +0.154 C 
ATOM     17  N   UNL     1     -10.824   8.877  69.045  0.00  0.00    -0.172 NA
BRANCH   7  18
ATOM     18  C   UNL     1     -11.927  10.678  70.501  0.00  0.00    +0.049 C 
BRANCH  18  20
ATOM     19  C   UNL     1     -13.583   9.239  71.709  0.00  0.00    +0.000 C 
ATOM     20  C   UNL     1     -12.118   9.639  71.599  0.00  0.00    +0.006 C 
ENDBRANCH  18  20
ENDBRANCH   7  18
ENDBRANCH   1  10
BRANCH   5  21
ATOM     21  S   UNL     1     -10.164  17.830  68.114  0.00  0.00    +0.063 S 
ATOM     22  O   UNL     1     -11.200  18.750  67.516  0.00  0.00    -0.153 OA
ATOM     23  O   UNL     1     -10.625  17.318  69.448  0.00  0.00    -0.153 OA
BRANCH  21  24
ATOM     24  N   UNL     1      -8.643  18.556  68.307  0.00  0.00    -0.153 NA
ATOM     25  C   UNL     1      -8.347  19.633  67.438  0.00  0.00    +0.113 C 
ATOM     26  C   UNL     1      -7.228  19.415  66.473  0.00  0.00    +0.092 C 
ATOM     27  N   UNL     1      -6.072  18.776  67.040  0.00  0.00    -0.269 NA
ATOM     28  C   UNL     1      -5.324  19.610  67.942  0.00  0.00    +0.090 C 
ATOM     29  C   UNL     1      -6.506  17.533  67.620  0.00  0.00    +0.092 C 
ATOM     30  C   UNL     1      -7.577  17.686  68.655  0.00  0.00    +0.113 C 
ENDBRANCH  21  24
ENDBRANCH   5  21
BRANCH   2  31
ATOM     31  O   UNL     1     -12.017  13.472  65.210  0.00  0.00    -0.475 OA
BRANCH  31  32
ATOM     32  C   UNL     1     -12.242  13.065  63.867  0.00  0.00    +0.206 C 
ATOM     33  C   UNL     1     -11.426  11.864  63.481  0.00  0.00    +0.051 C 
ENDBRANCH  31  32
ENDBRANCH   2  31
TORSDOF 7
ENDMDL
MODEL 8
REMARK VINA RESULT:      -6.7      2.275      4.005
REMARK  Name = 
REMARK  7 active torsions:
REMARK  status: ('A' for Active; 'I' for Inactive)
REMARK    1  A    between atoms: C_2  and  C_3
REMARK    2  A    between atoms: C_3  and  C_4
REMARK    3  A    between atoms: C_11  and  C_12
REMARK    4  A    between atoms: C_14  and  S_15
REMARK    5  A    between atoms: S_15  and  N_18
REMARK    6  A    between atoms: C_27  and  O_28
REMARK    7  A    between atoms: O_28  and  C_29
REMARK                            x       y       z     vdW  Elec       q    Type
REMARK                         _______ _______ _______ _____ _____    ______ ____
ROOT
ATOM      1  C   UNL     1     -10.725  13.924  67.133  0.00  0.00    +0.071 A 
ATOM      2  C   UNL     1     -11.047  14.087  65.791  0.00  0.00    +0.141 A 
ATOM      3  C   UNL     1     -10.455  15.161  65.157  0.00  0.00    +0.038 A 
ATOM      4  C   UNL     1      -9.871  16.170  65.910  0.00  0.00    +0.023 A 
ATOM      5  C   UNL     1      -9.980  16.188  67.296  0.00  0.00    +0.122 A 
ATOM      6  C   UNL     1     -10.248  14.968  67.897  0.00  0.00    +0.026 A 
ENDROOT
BRANCH   1  10
ATOM      7  C   UNL     1      -9.790   9.180  68.073  0.00  0.00    +0.098 A 
ATOM      8  C   UNL     1     -10.500  10.372  68.074  0.00  0.00    +0.120 A 
ATOM      9  N   UNL     1     -10.357  11.503  67.344  0.00  0.00    -0.223 NA
ATOM     10  C   UNL     1     -11.001  12.617  67.743  0.00  0.00    +0.169 A 
ATOM     11  N   UNL     1     -11.926  12.493  68.710  0.00  0.00    -0.187 NA
ATOM     12  C   UNL     1     -11.931  11.472  69.599  0.00  0.00    +0.299 A 
ATOM     13  O   UNL     1     -12.313  11.660  70.793  0.00  0.00    -0.263 OA
ATOM     14  C   UNL     1     -11.084  10.421  69.325  0.00  0.00    +0.154 A 
ATOM     15  N   UNL     1     -10.766   9.321  70.034  0.00  0.00    -0.243 N 
ATOM     16  C   UNL     1     -11.106   9.162  71.426  0.00  0.00    +0.154 C 
ATOM     17  N   UNL     1     -10.180   8.508  69.182  0.00  0.00    -0.172 NA
BRANCH   7  18
ATOM     18  C   UNL     1      -8.677   8.862  67.134  0.00  0.00    +0.049 C 
BRANCH  18  20
ATOM     19  C   UNL     1      -8.854   9.409  64.696  0.00  0.00    +0.000 C 
ATOM     20  C   UNL     1      -9.216   8.406  65.783  0.00  0.00    +0.006 C 
ENDBRANCH  18  20
ENDBRANCH   7  18
ENDBRANCH   1  10
BRANCH   5  21
ATOM     21  S   UNL     1     -10.112  17.709  68.171  0.00  0.00    +0.063 S 
ATOM     22  O   UNL     1     -11.039  18.587  67.365  0.00  0.00    -0.153 OA
ATOM     23  O   UNL     1     -10.678  17.468  69.541  0.00  0.00    -0.153 OA
BRANCH  21  24
ATOM     24  N   UNL     1      -8.547  18.345  68.332  0.00  0.00    -0.153 NA
ATOM     25  C   UNL     1      -8.217  19.423  67.478  0.00  0.00    +0.113 C 
ATOM     26  C   UNL     1      -7.140  19.165  66.475  0.00  0.00    +0.092 C 
ATOM     27  N   UNL     1      -6.006  18.449  66.993  0.00  0.00    -0.269 NA
ATOM     28  C   UNL     1      -5.187  19.220  67.889  0.00  0.00    +0.090 C 
ATOM     29  C   UNL     1      -6.492  17.219  67.561  0.00  0.00    +0.092 C 
ATOM     30  C   UNL     1      -7.523  17.409  68.630  0.00  0.00    +0.113 C 
ENDBRANCH  21  24
ENDBRANCH   5  21
BRANCH   2  31
ATOM     31  O   UNL     1     -12.174  13.441  65.274  0.00  0.00    -0.475 OA
BRANCH  31  32
ATOM     32  C   UNL     1     -12.205  13.083  63.899  0.00  0.00    +0.206 C 
ATOM     33  C   UNL     1     -11.501  11.786  63.621  0.00  0.00    +0.051 C 
ENDBRANCH  31  32
ENDBRANCH   2  31
TORSDOF 7
ENDMDL
MODEL 9
REMARK VINA RESULT:      -6.7      4.813      8.987
REMARK  Name = 
REMARK  7 active torsions:
REMARK  status: ('A' for Active; 'I' for Inactive)
REMARK    1  A    between atoms: C_2  and  C_3
REMARK    2  A    between atoms: C_3  and  C_4
REMARK    3  A    between atoms: C_11  and  C_12
REMARK    4  A    between atoms: C_14  and  S_15
REMARK    5  A    between atoms: S_15  and  N_18
REMARK    6  A    between atoms: C_27  and  O_28
REMARK    7  A    between atoms: O_28  and  C_29
REMARK                            x       y       z     vdW  Elec       q    Type
REMARK                         _______ _______ _______ _____ _____    ______ ____
ROOT
ATOM      1  C   UNL     1     -11.319  10.149  69.588  0.00  0.00    +0.071 A 
ATOM      2  C   UNL     1     -11.772   9.496  70.727  0.00  0.00    +0.141 A 
ATOM      3  C   UNL     1     -11.082   8.354  71.081  0.00  0.00    +0.038 A 
ATOM      4  C   UNL     1     -10.235   7.748  70.162  0.00  0.00    +0.023 A 
ATOM      5  C   UNL     1     -10.165   8.193  68.847  0.00  0.00    +0.122 A 
ATOM      6  C   UNL     1     -10.570   9.501  68.628  0.00  0.00    +0.026 A 
ENDROOT
BRANCH   1  10
ATOM      7  C   UNL     1     -12.752  14.612  71.101  0.00  0.00    +0.098 A 
ATOM      8  C   UNL     1     -12.472  13.591  70.206  0.00  0.00    +0.120 A 
ATOM      9  N   UNL     1     -12.286  12.262  70.388  0.00  0.00    -0.223 NA
ATOM     10  C   UNL     1     -11.747  11.539  69.387  0.00  0.00    +0.169 A 
ATOM     11  N   UNL     1     -11.629  12.128  68.184  0.00  0.00    -0.187 NA
ATOM     12  C   UNL     1     -11.578  13.470  68.022  0.00  0.00    +0.299 A 
ATOM     13  O   UNL     1     -10.865  13.982  67.107  0.00  0.00    -0.263 OA
ATOM     14  C   UNL     1     -11.897  14.231  69.125  0.00  0.00    +0.154 A 
ATOM     15  N   UNL     1     -11.846  15.559  69.340  0.00  0.00    -0.243 N 
ATOM     16  C   UNL     1     -11.164  16.470  68.454  0.00  0.00    +0.154 C 
ATOM     17  N   UNL     1     -12.561  15.770  70.425  0.00  0.00    -0.172 NA
BRANCH   7  18
ATOM     18  C   UNL     1     -12.991  14.414  72.559  0.00  0.00    +0.049 C 
BRANCH  18  20
ATOM     19  C   UNL     1     -12.428  15.894  74.500  0.00  0.00    +0.000 C 
ATOM     20  C   UNL     1     -13.284  15.740  73.249  0.00  0.00    +0.006 C 
ENDBRANCH  18  20
ENDBRANCH   7  18
ENDBRANCH   1  10
BRANCH   5  21
ATOM     21  S   UNL     1      -9.910   7.061  67.524  0.00  0.00    +0.063 S 
ATOM     22  O   UNL     1     -11.280   6.699  67.002  0.00  0.00    -0.153 OA
ATOM     23  O   UNL     1      -9.091   7.706  66.444  0.00  0.00    -0.153 OA
BRANCH  21  24
ATOM     24  N   UNL     1      -9.049   5.736  68.142  0.00  0.00    -0.153 NA
ATOM     25  C   UNL     1      -7.700   5.618  67.732  0.00  0.00    +0.113 C 
ATOM     26  C   UNL     1      -7.365   4.423  66.900  0.00  0.00    +0.092 C 
ATOM     27  N   UNL     1      -7.955   3.195  67.361  0.00  0.00    -0.269 NA
ATOM     28  C   UNL     1      -7.379   2.690  68.579  0.00  0.00    +0.090 C 
ATOM     29  C   UNL     1      -9.378   3.397  67.430  0.00  0.00    +0.092 C 
ATOM     30  C   UNL     1      -9.789   4.537  68.310  0.00  0.00    +0.113 C 
ENDBRANCH  21  24
ENDBRANCH   5  21
BRANCH   2  31
ATOM     31  O   UNL     1     -13.052   9.777  71.213  0.00  0.00    -0.475 OA
BRANCH  31  32
ATOM     32  C   UNL     1     -13.608   8.957  72.231  0.00  0.00    +0.206 C 
ATOM     33  C   UNL     1     -14.693   8.052  71.719  0.00  0.00    +0.051 C 
ENDBRANCH  31  32
ENDBRANCH   2  31
TORSDOF 7
ENDMDL
