MODEL 1
REMARK VINA RESULT:      -4.5      0.000      0.000
REMARK  Name = 
REMARK  1 active torsions:
REMARK  status: ('A' for Active; 'I' for Inactive)
REMARK    1  A    between atoms: C_4  and  C_5
REMARK                            x       y       z     vdW  Elec       q    Type
REMARK                         _______ _______ _______ _____ _____    ______ ____
ROOT
ATOM      1  C   UNL     1     -12.329  15.359  70.758  0.00  0.00    -0.021 A 
ATOM      2  C   UNL     1     -13.710  15.223  70.918  0.00  0.00    -0.004 A 
ATOM      3  C   UNL     1     -14.163  15.264  72.229  0.00  0.00    -0.000 A 
ATOM      4  C   UNL     1     -13.338  15.672  73.268  0.00  0.00    -0.000 A 
ATOM      5  C   UNL     1     -12.019  15.904  72.973  0.00  0.00    -0.000 A 
ATOM      6  C   UNL     1     -11.729  16.174  71.639  0.00  0.00    -0.004 A 
ENDROOT
BRANCH   1   9
ATOM      7  N   UNL     1     -11.840  14.049  67.224  0.00  0.00    -0.133 NA
ATOM      8  C   UNL     1     -11.976  13.847  68.827  0.00  0.00    +0.096 C 
ATOM      9  C   UNL     1     -12.045  15.575  69.153  0.00  0.00    +0.041 C 
ATOM     10  C   UNL     1     -10.498  14.742  69.136  0.00  0.00    +0.025 C 
ENDBRANCH   1   9
TORSDOF 1
ENDMDL
MODEL 2
REMARK VINA RESULT:      -4.3      3.091      4.445
REMARK  Name = 
REMARK  1 active torsions:
REMARK  status: ('A' for Active; 'I' for Inactive)
REMARK    1  A    between atoms: C_4  and  C_5
REMARK                            x       y       z     vdW  Elec       q    Type
REMARK                         _______ _______ _______ _____ _____    ______ ____
ROOT
ATOM      1  C   UNL     1     -12.685  13.024  70.954  0.00  0.00    -0.021 A 
ATOM      2  C   UNL     1     -12.953  11.898  71.735  0.00  0.00    -0.004 A 
ATOM      3  C   UNL     1     -12.814  10.678  71.087  0.00  0.00    -0.000 A 
ATOM      4  C   UNL     1     -12.203  10.584  69.844  0.00  0.00    -0.000 A 
ATOM      5  C   UNL     1     -11.862  11.755  69.218  0.00  0.00    -0.000 A 
ATOM      6  C   UNL     1     -11.714  12.868  70.040  0.00  0.00    -0.004 A 
ENDROOT
BRANCH   1   9
ATOM      7  N   UNL     1     -14.252  16.030  72.672  0.00  0.00    -0.133 NA
ATOM      8  C   UNL     1     -14.252  14.841  71.569  0.00  0.00    +0.096 C 
ATOM      9  C   UNL     1     -12.621  14.316  71.969  0.00  0.00    +0.041 C 
ATOM     10  C   UNL     1     -12.877  15.529  70.724  0.00  0.00    +0.025 C 
ENDBRANCH   1   9
TORSDOF 1
ENDMDL
MODEL 3
REMARK VINA RESULT:      -4.3      3.327      4.825
REMARK  Name = 
REMARK  1 active torsions:
REMARK  status: ('A' for Active; 'I' for Inactive)
REMARK    1  A    between atoms: C_4  and  C_5
REMARK                            x       y       z     vdW  Elec       q    Type
REMARK                         _______ _______ _______ _____ _____    ______ ____
ROOT
ATOM      1  C   UNL     1     -11.756  12.671  67.176  0.00  0.00    -0.021 A 
ATOM      2  C   UNL     1     -11.690  13.631  68.188  0.00  0.00    -0.004 A 
ATOM      3  C   UNL     1     -11.823  13.142  69.480  0.00  0.00    -0.000 A 
ATOM      4  C   UNL     1     -11.761  11.782  69.750  0.00  0.00    -0.000 A 
ATOM      5  C   UNL     1     -11.698  10.928  68.679  0.00  0.00    -0.000 A 
ATOM      6  C   UNL     1     -11.233  11.475  67.487  0.00  0.00    -0.004 A 
ENDROOT
BRANCH   1   9
ATOM      7  N   UNL     1     -12.447  14.798  64.103  0.00  0.00    -0.133 NA
ATOM      8  C   UNL     1     -12.920  13.952  65.403  0.00  0.00    +0.096 C 
ATOM      9  C   UNL     1     -11.290  13.404  65.780  0.00  0.00    +0.041 C 
ATOM     10  C   UNL     1     -12.322  12.447  64.728  0.00  0.00    +0.025 C 
ENDBRANCH   1   9
TORSDOF 1
ENDMDL
MODEL 4
REMARK VINA RESULT:      -4.2      1.194      1.992
REMARK  Name = 
REMARK  1 active torsions:
REMARK  status: ('A' for Active; 'I' for Inactive)
REMARK    1  A    between atoms: C_4  and  C_5
REMARK                            x       y       z     vdW  Elec       q    Type
REMARK                         _______ _______ _______ _____ _____    ______ ____
ROOT
ATOM      1  C   UNL     1     -12.037  14.848  70.624  0.00  0.00    -0.021 A 
ATOM      2  C   UNL     1     -11.658  15.836  71.535  0.00  0.00    -0.004 A 
ATOM      3  C   UNL     1     -12.431  15.911  72.685  0.00  0.00    -0.000 A 
ATOM      4  C   UNL     1     -13.337  14.913  73.016  0.00  0.00    -0.000 A 
ATOM      5  C   UNL     1     -13.539  13.914  72.098  0.00  0.00    -0.000 A 
ATOM      6  C   UNL     1     -12.520  13.721  71.170  0.00  0.00    -0.004 A 
ENDROOT
BRANCH   1   9
ATOM      7  N   UNL     1     -10.316  15.966  67.424  0.00  0.00    -0.133 NA
ATOM      8  C   UNL     1     -11.562  15.963  68.463  0.00  0.00    +0.096 C 
ATOM      9  C   UNL     1     -10.841  14.738  69.501  0.00  0.00    +0.041 C 
ATOM     10  C   UNL     1     -11.890  14.264  68.174  0.00  0.00    +0.025 C 
ENDBRANCH   1   9
TORSDOF 1
ENDMDL
MODEL 5
REMARK VINA RESULT:      -4.0      2.241      4.121
REMARK  Name = 
REMARK  1 active torsions:
REMARK  status: ('A' for Active; 'I' for Inactive)
REMARK    1  A    between atoms: C_4  and  C_5
REMARK                            x       y       z     vdW  Elec       q    Type
REMARK                         _______ _______ _______ _____ _____    ______ ____
ROOT
ATOM      1  C   UNL     1     -11.846  15.221  69.844  0.00  0.00    -0.021 A 
ATOM      2  C   UNL     1     -11.879  14.308  68.788  0.00  0.00    -0.004 A 
ATOM      3  C   UNL     1     -11.446  14.800  67.564  0.00  0.00    -0.000 A 
ATOM      4  C   UNL     1     -10.788  16.018  67.465  0.00  0.00    -0.000 A 
ATOM      5  C   UNL     1     -10.699  16.782  68.601  0.00  0.00    -0.000 A 
ATOM      6  C   UNL     1     -10.835  16.102  69.807  0.00  0.00    -0.004 A 
ENDROOT
BRANCH   1   9
ATOM      7  N   UNL     1     -14.122  13.829  72.552  0.00  0.00    -0.133 NA
ATOM      8  C   UNL     1     -13.822  14.779  71.272  0.00  0.00    +0.096 C 
ATOM      9  C   UNL     1     -12.110  14.372  71.228  0.00  0.00    +0.041 C 
ATOM     10  C   UNL     1     -12.666  15.746  72.171  0.00  0.00    +0.025 C 
ENDBRANCH   1   9
TORSDOF 1
ENDMDL
MODEL 6
REMARK VINA RESULT:      -4.0      2.479      4.432
REMARK  Name = 
REMARK  1 active torsions:
REMARK  status: ('A' for Active; 'I' for Inactive)
REMARK    1  A    between atoms: C_4  and  C_5
REMARK                            x       y       z     vdW  Elec       q    Type
REMARK                         _______ _______ _______ _____ _____    ______ ____
ROOT
ATOM      1  C   UNL     1     -11.933  14.956  70.539  0.00  0.00    -0.021 A 
ATOM      2  C   UNL     1     -11.339  16.028  69.868  0.00  0.00    -0.004 A 
ATOM      3  C   UNL     1     -10.524  15.681  68.799  0.00  0.00    -0.000 A 
ATOM      4  C   UNL     1     -10.516  14.393  68.282  0.00  0.00    -0.000 A 
ATOM      5  C   UNL     1     -11.242  13.440  68.950  0.00  0.00    -0.000 A 
ATOM      6  C   UNL     1     -12.267  13.912  69.765  0.00  0.00    -0.004 A 
ENDROOT
BRANCH   1   9
ATOM      7  N   UNL     1     -13.064  16.212  73.943  0.00  0.00    -0.133 NA
ATOM      8  C   UNL     1     -12.013  15.461  72.963  0.00  0.00    +0.096 C 
ATOM      9  C   UNL     1     -13.061  15.586  71.555  0.00  0.00    +0.041 C 
ATOM     10  C   UNL     1     -13.156  14.179  72.604  0.00  0.00    +0.025 C 
ENDBRANCH   1   9
TORSDOF 1
ENDMDL
MODEL 7
REMARK VINA RESULT:      -4.0      4.459      5.816
REMARK  Name = 
REMARK  1 active torsions:
REMARK  status: ('A' for Active; 'I' for Inactive)
REMARK    1  A    between atoms: C_4  and  C_5
REMARK                            x       y       z     vdW  Elec       q    Type
REMARK                         _______ _______ _______ _____ _____    ______ ____
ROOT
ATOM      1  C   UNL     1     -11.402  11.959  66.410  0.00  0.00    -0.021 A 
ATOM      2  C   UNL     1     -11.629  12.651  67.601  0.00  0.00    -0.004 A 
ATOM      3  C   UNL     1     -11.660  11.868  68.747  0.00  0.00    -0.000 A 
ATOM      4  C   UNL     1     -11.236  10.546  68.732  0.00  0.00    -0.000 A 
ATOM      5  C   UNL     1     -10.911  10.001  67.516  0.00  0.00    -0.000 A 
ATOM      6  C   UNL     1     -10.580  10.903  66.510  0.00  0.00    -0.004 A 
ENDROOT
BRANCH   1   9
ATOM      7  N   UNL     1     -12.523  14.732  64.064  0.00  0.00    -0.133 NA
ATOM      8  C   UNL     1     -12.813  13.525  65.108  0.00  0.00    +0.096 C 
ATOM      9  C   UNL     1     -11.115  13.082  65.243  0.00  0.00    +0.041 C 
ATOM     10  C   UNL     1     -12.129  12.328  64.023  0.00  0.00    +0.025 C 
ENDBRANCH   1   9
TORSDOF 1
ENDMDL
MODEL 8
REMARK VINA RESULT:      -4.0      3.760      6.268
REMARK  Name = 
REMARK  1 active torsions:
REMARK  status: ('A' for Active; 'I' for Inactive)
REMARK    1  A    between atoms: C_4  and  C_5
REMARK                            x       y       z     vdW  Elec       q    Type
REMARK                         _______ _______ _______ _____ _____    ______ ____
ROOT
ATOM      1  C   UNL     1     -11.552  13.331  66.232  0.00  0.00    -0.021 A 
ATOM      2  C   UNL     1     -12.357  13.809  65.196  0.00  0.00    -0.004 A 
ATOM      3  C   UNL     1     -12.186  13.177  63.972  0.00  0.00    -0.000 A 
ATOM      4  C   UNL     1     -11.466  11.995  63.860  0.00  0.00    -0.000 A 
ATOM      5  C   UNL     1     -10.816  11.545  64.981  0.00  0.00    -0.000 A 
ATOM      6  C   UNL     1     -11.299  12.013  66.199  0.00  0.00    -0.004 A 
ENDROOT
BRANCH   1   9
ATOM      7  N   UNL     1     -11.735  16.153  68.773  0.00  0.00    -0.133 NA
ATOM      8  C   UNL     1     -11.087  15.422  67.478  0.00  0.00    +0.096 C 
ATOM      9  C   UNL     1     -12.111  13.998  67.628  0.00  0.00    +0.041 C 
ATOM     10  C   UNL     1     -10.550  14.051  68.433  0.00  0.00    +0.025 C 
ENDBRANCH   1   9
TORSDOF 1
ENDMDL
MODEL 9
REMARK VINA RESULT:      -4.0      3.454      5.134
REMARK  Name = 
REMARK  1 active torsions:
REMARK  status: ('A' for Active; 'I' for Inactive)
REMARK    1  A    between atoms: C_4  and  C_5
REMARK                            x       y       z     vdW  Elec       q    Type
REMARK                         _______ _______ _______ _____ _____    ______ ____
ROOT
ATOM      1  C   UNL     1     -10.359  17.621  68.108  0.00  0.00    -0.021 A 
ATOM      2  C   UNL     1     -10.322  17.546  66.713  0.00  0.00    -0.004 A 
ATOM      3  C   UNL     1     -10.370  18.766  66.052  0.00  0.00    -0.000 A 
ATOM      4  C   UNL     1     -10.201  19.965  66.730  0.00  0.00    -0.000 A 
ATOM      5  C   UNL     1     -10.119  19.910  68.098  0.00  0.00    -0.000 A 
ATOM      6  C   UNL     1      -9.740  18.686  68.640  0.00  0.00    -0.004 A 
ENDROOT
BRANCH   1   9
ATOM      7  N   UNL     1     -11.292  14.037  68.965  0.00  0.00    -0.133 NA
ATOM      8  C   UNL     1     -11.661  15.557  68.536  0.00  0.00    +0.096 C 
ATOM      9  C   UNL     1     -10.001  16.122  68.683  0.00  0.00    +0.041 C 
ATOM     10  C   UNL     1     -11.087  16.202  70.063  0.00  0.00    +0.025 C 
ENDBRANCH   1   9
TORSDOF 1
ENDMDL
