MODEL 1
REMARK VINA RESULT:      -5.5      0.000      0.000
REMARK  Name = 
REMARK  4 active torsions:
REMARK  status: ('A' for Active; 'I' for Inactive)
REMARK    1  A    between atoms: O_2  and  C_3
REMARK    2  A    between atoms: C_7  and  C_8
REMARK    3  A    between atoms: C_14  and  C_15
REMARK    4  A    between atoms: C_15  and  N_16
REMARK                            x       y       z     vdW  Elec       q    Type
REMARK                         _______ _______ _______ _____ _____    ______ ____
ROOT
ATOM      1  C   UNL     1     -11.688  13.020  66.595  0.00  0.00    +0.147 C 
ATOM      2  C   UNL     1     -10.324  12.881  65.670  0.00  0.00    +0.048 C 
ATOM      3  C   UNL     1     -11.034  11.763  64.678  0.00  0.00    +0.004 C 
ATOM      4  C   UNL     1     -11.718  12.664  63.685  0.00  0.00    +0.000 C 
ATOM      5  C   UNL     1     -12.142  13.984  64.319  0.00  0.00    +0.003 C 
ATOM      6  C   UNL     1     -12.672  13.758  65.717  0.00  0.00    +0.035 C 
ATOM      7  O   UNL     1     -12.078  11.746  66.892  0.00  0.00    -0.221 OA
ENDROOT
BRANCH   1  10
ATOM      8  C   UNL     1     -11.286  16.112  68.577  0.00  0.00    +0.138 A 
ATOM      9  C   UNL     1     -11.060  15.180  67.572  0.00  0.00    +0.035 A 
ATOM     10  C   UNL     1     -11.283  13.831  67.762  0.00  0.00    +0.008 A 
ATOM     11  C   UNL     1     -11.719  13.461  69.026  0.00  0.00    -0.002 A 
ATOM     12  C   UNL     1     -12.131  14.401  69.963  0.00  0.00    +0.003 A 
ATOM     13  C   UNL     1     -12.068  15.758  69.667  0.00  0.00    +0.037 A 
BRANCH   8  15
ATOM     14  C   UNL     1     -10.311  17.812  68.556  0.00  0.00    +0.252 C 
ATOM     15  O   UNL     1     -10.681  17.371  68.570  0.00  0.00    -0.471 OA
ENDBRANCH   8  15
ENDBRANCH   1  10
BRANCH   2  16
ATOM     16  C   UNL     1      -9.633  11.798  66.704  0.00  0.00    +0.075 C 
BRANCH  16  17
ATOM     17  N   UNL     1      -8.276  12.088  66.877  0.00  0.00    -0.270 NA
ATOM     18  C   UNL     1      -7.500  10.958  66.452  0.00  0.00    +0.090 C 
ATOM     19  C   UNL     1      -7.867  12.411  68.233  0.00  0.00    +0.090 C 
ENDBRANCH  16  17
ENDBRANCH   2  16
TORSDOF 4
ENDMDL
MODEL 2
REMARK VINA RESULT:      -5.4      2.327      4.525
REMARK  Name = 
REMARK  4 active torsions:
REMARK  status: ('A' for Active; 'I' for Inactive)
REMARK    1  A    between atoms: O_2  and  C_3
REMARK    2  A    between atoms: C_7  and  C_8
REMARK    3  A    between atoms: C_14  and  C_15
REMARK    4  A    between atoms: C_15  and  N_16
REMARK                            x       y       z     vdW  Elec       q    Type
REMARK                         _______ _______ _______ _____ _____    ______ ____
ROOT
ATOM      1  C   UNL     1     -10.133  14.894  68.184  0.00  0.00    +0.147 C 
ATOM      2  C   UNL     1     -11.732  14.628  67.854  0.00  0.00    +0.048 C 
ATOM      3  C   UNL     1     -11.833  13.435  68.997  0.00  0.00    +0.004 C 
ATOM      4  C   UNL     1     -12.136  14.250  70.227  0.00  0.00    +0.000 C 
ATOM      5  C   UNL     1     -11.508  15.637  70.152  0.00  0.00    +0.003 C 
ATOM      6  C   UNL     1     -10.128  15.566  69.537  0.00  0.00    +0.035 C 
ATOM      7  O   UNL     1      -9.536  13.667  68.188  0.00  0.00    -0.221 OA
ENDROOT
BRANCH   1  10
ATOM      8  C   UNL     1      -9.501  18.162  66.581  0.00  0.00    +0.138 A 
ATOM      9  C   UNL     1     -10.216  17.071  67.058  0.00  0.00    +0.035 A 
ATOM     10  C   UNL     1      -9.665  15.806  67.120  0.00  0.00    +0.008 A 
ATOM     11  C   UNL     1      -8.365  15.688  66.651  0.00  0.00    -0.002 A 
ATOM     12  C   UNL     1      -7.587  16.802  66.362  0.00  0.00    +0.003 A 
ATOM     13  C   UNL     1      -8.119  18.080  66.491  0.00  0.00    +0.037 A 
BRANCH   8  15
ATOM     14  C   UNL     1     -10.501  19.746  66.002  0.00  0.00    +0.252 C 
ATOM     15  O   UNL     1     -10.135  19.314  66.109  0.00  0.00    -0.471 OA
ENDBRANCH   8  15
ENDBRANCH   1  10
BRANCH   2  16
ATOM     16  C   UNL     1     -11.390  13.636  66.583  0.00  0.00    +0.075 C 
BRANCH  16  17
ATOM     17  N   UNL     1     -12.356  13.777  65.582  0.00  0.00    -0.270 NA
ATOM     18  C   UNL     1     -12.502  12.525  64.895  0.00  0.00    +0.090 C 
ATOM     19  C   UNL     1     -12.085  14.793  64.581  0.00  0.00    +0.090 C 
ENDBRANCH  16  17
ENDBRANCH   2  16
TORSDOF 4
ENDMDL
MODEL 3
REMARK VINA RESULT:      -5.3      2.833      4.877
REMARK  Name = 
REMARK  4 active torsions:
REMARK  status: ('A' for Active; 'I' for Inactive)
REMARK    1  A    between atoms: O_2  and  C_3
REMARK    2  A    between atoms: C_7  and  C_8
REMARK    3  A    between atoms: C_14  and  C_15
REMARK    4  A    between atoms: C_15  and  N_16
REMARK                            x       y       z     vdW  Elec       q    Type
REMARK                         _______ _______ _______ _____ _____    ______ ____
ROOT
ATOM      1  C   UNL     1     -10.878  14.986  69.357  0.00  0.00    +0.147 C 
ATOM      2  C   UNL     1     -11.038  15.825  67.941  0.00  0.00    +0.048 C 
ATOM      3  C   UNL     1      -9.741  15.051  67.262  0.00  0.00    +0.004 C 
ATOM      4  C   UNL     1     -10.409  13.821  66.707  0.00  0.00    +0.000 C 
ATOM      5  C   UNL     1     -11.610  13.404  67.547  0.00  0.00    +0.003 C 
ATOM      6  C   UNL     1     -11.319  13.580  69.020  0.00  0.00    +0.035 C 
ATOM      7  O   UNL     1      -9.560  15.070  69.703  0.00  0.00    -0.221 OA
ENDROOT
BRANCH   1  10
ATOM      8  C   UNL     1     -13.932  15.291  71.413  0.00  0.00    +0.138 A 
ATOM      9  C   UNL     1     -13.135  15.257  70.276  0.00  0.00    +0.035 A 
ATOM     10  C   UNL     1     -11.808  15.639  70.301  0.00  0.00    +0.008 A 
ATOM     11  C   UNL     1     -11.329  16.083  71.524  0.00  0.00    -0.002 A 
ATOM     12  C   UNL     1     -12.060  15.933  72.695  0.00  0.00    +0.003 A 
ATOM     13  C   UNL     1     -13.330  15.368  72.660  0.00  0.00    +0.037 A 
BRANCH   8  15
ATOM     14  C   UNL     1     -15.885  15.220  71.257  0.00  0.00    +0.252 C 
ATOM     15  O   UNL     1     -15.326  15.335  71.339  0.00  0.00    -0.471 OA
ENDBRANCH   8  15
ENDBRANCH   1  10
BRANCH   2  16
ATOM     16  C   UNL     1     -10.197  17.121  68.517  0.00  0.00    +0.075 C 
BRANCH  16  17
ATOM     17  N   UNL     1     -10.677  18.305  67.949  0.00  0.00    -0.270 NA
ATOM     18  C   UNL     1     -10.438  18.272  66.534  0.00  0.00    +0.090 C 
ATOM     19  C   UNL     1     -10.094  19.533  68.461  0.00  0.00    +0.090 C 
ENDBRANCH  16  17
ENDBRANCH   2  16
TORSDOF 4
ENDMDL
MODEL 4
REMARK VINA RESULT:      -5.3      2.773      5.443
REMARK  Name = 
REMARK  4 active torsions:
REMARK  status: ('A' for Active; 'I' for Inactive)
REMARK    1  A    between atoms: O_2  and  C_3
REMARK    2  A    between atoms: C_7  and  C_8
REMARK    3  A    between atoms: C_14  and  C_15
REMARK    4  A    between atoms: C_15  and  N_16
REMARK                            x       y       z     vdW  Elec       q    Type
REMARK                         _______ _______ _______ _____ _____    ______ ____
ROOT
ATOM      1  C   UNL     1      -9.242  17.569  66.556  0.00  0.00    +0.147 C 
ATOM      2  C   UNL     1      -8.784  18.121  68.046  0.00  0.00    +0.048 C 
ATOM      3  C   UNL     1      -8.184  19.527  67.411  0.00  0.00    +0.004 C 
ATOM      4  C   UNL     1      -9.428  20.376  67.386  0.00  0.00    +0.000 C 
ATOM      5  C   UNL     1     -10.681  19.533  67.178  0.00  0.00    +0.003 C 
ATOM      6  C   UNL     1     -10.424  18.431  66.176  0.00  0.00    +0.035 C 
ATOM      7  O   UNL     1      -8.163  17.741  65.738  0.00  0.00    -0.221 OA
ENDROOT
BRANCH   1  10
ATOM      8  C   UNL     1     -11.424  14.819  67.705  0.00  0.00    +0.138 A 
ATOM      9  C   UNL     1     -10.538  15.885  67.780  0.00  0.00    +0.035 A 
ATOM     10  C   UNL     1      -9.639  16.162  66.769  0.00  0.00    +0.008 A 
ATOM     11  C   UNL     1      -9.657  15.293  65.688  0.00  0.00    -0.002 A 
ATOM     12  C   UNL     1     -10.666  14.353  65.521  0.00  0.00    +0.003 A 
ATOM     13  C   UNL     1     -11.669  14.226  66.475  0.00  0.00    +0.037 A 
BRANCH   8  15
ATOM     14  C   UNL     1     -12.123  14.002  69.345  0.00  0.00    +0.252 C 
ATOM     15  O   UNL     1     -12.015  14.265  68.843  0.00  0.00    -0.471 OA
ENDBRANCH   8  15
ENDBRANCH   1  10
BRANCH   2  16
ATOM     16  C   UNL     1      -7.364  17.283  68.011  0.00  0.00    +0.075 C 
BRANCH  16  17
ATOM     17  N   UNL     1      -7.078  16.758  69.275  0.00  0.00    -0.270 NA
ATOM     18  C   UNL     1      -5.825  17.289  69.728  0.00  0.00    +0.090 C 
ATOM     19  C   UNL     1      -6.990  15.310  69.351  0.00  0.00    +0.090 C 
ENDBRANCH  16  17
ENDBRANCH   2  16
TORSDOF 4
ENDMDL
MODEL 5
REMARK VINA RESULT:      -5.2      2.124      4.409
REMARK  Name = 
REMARK  4 active torsions:
REMARK  status: ('A' for Active; 'I' for Inactive)
REMARK    1  A    between atoms: O_2  and  C_3
REMARK    2  A    between atoms: C_7  and  C_8
REMARK    3  A    between atoms: C_14  and  C_15
REMARK    4  A    between atoms: C_15  and  N_16
REMARK                            x       y       z     vdW  Elec       q    Type
REMARK                         _______ _______ _______ _____ _____    ______ ____
ROOT
ATOM      1  C   UNL     1     -10.660  15.211  68.383  0.00  0.00    +0.147 C 
ATOM      2  C   UNL     1     -10.413  14.057  67.225  0.00  0.00    +0.048 C 
ATOM      3  C   UNL     1      -9.325  15.009  66.419  0.00  0.00    +0.004 C 
ATOM      4  C   UNL     1      -8.055  14.665  67.151  0.00  0.00    +0.000 C 
ATOM      5  C   UNL     1      -8.324  14.312  68.610  0.00  0.00    +0.003 C 
ATOM      6  C   UNL     1      -9.383  15.220  69.193  0.00  0.00    +0.035 C 
ATOM      7  O   UNL     1     -10.884  16.380  67.715  0.00  0.00    -0.221 OA
ENDROOT
BRANCH   1  10
ATOM      8  C   UNL     1     -12.392  13.048  70.827  0.00  0.00    +0.138 A 
ATOM      9  C   UNL     1     -11.769  13.424  69.644  0.00  0.00    +0.035 A 
ATOM     10  C   UNL     1     -11.806  14.723  69.178  0.00  0.00    +0.008 A 
ATOM     11  C   UNL     1     -12.525  15.623  69.951  0.00  0.00    -0.002 A 
ATOM     12  C   UNL     1     -12.977  15.298  71.223  0.00  0.00    +0.003 A 
ATOM     13  C   UNL     1     -12.758  14.027  71.740  0.00  0.00    +0.037 A 
BRANCH   8  15
ATOM     14  C   UNL     1     -12.770  11.181  71.291  0.00  0.00    +0.252 C 
ATOM     15  O   UNL     1     -12.739  11.722  71.093  0.00  0.00    -0.471 OA
ENDBRANCH   8  15
ENDBRANCH   1  10
BRANCH   2  16
ATOM     16  C   UNL     1     -11.739  14.521  66.363  0.00  0.00    +0.075 C 
BRANCH  16  17
ATOM     17  N   UNL     1     -12.257  13.438  65.646  0.00  0.00    -0.270 NA
ATOM     18  C   UNL     1     -11.643  12.230  66.117  0.00  0.00    +0.090 C 
ATOM     19  C   UNL     1     -12.073  13.487  64.206  0.00  0.00    +0.090 C 
ENDBRANCH  16  17
ENDBRANCH   2  16
TORSDOF 4
ENDMDL
MODEL 6
REMARK VINA RESULT:      -5.2      1.216      1.994
REMARK  Name = 
REMARK  4 active torsions:
REMARK  status: ('A' for Active; 'I' for Inactive)
REMARK    1  A    between atoms: O_2  and  C_3
REMARK    2  A    between atoms: C_7  and  C_8
REMARK    3  A    between atoms: C_14  and  C_15
REMARK    4  A    between atoms: C_15  and  N_16
REMARK                            x       y       z     vdW  Elec       q    Type
REMARK                         _______ _______ _______ _____ _____    ______ ____
ROOT
ATOM      1  C   UNL     1     -11.676  12.742  66.007  0.00  0.00    +0.147 C 
ATOM      2  C   UNL     1     -10.090  12.594  65.565  0.00  0.00    +0.048 C 
ATOM      3  C   UNL     1     -10.266  10.979  65.242  0.00  0.00    +0.004 C 
ATOM      4  C   UNL     1     -10.747  11.031  63.816  0.00  0.00    +0.000 C 
ATOM      5  C   UNL     1     -11.555  12.293  63.538  0.00  0.00    +0.003 C 
ATOM      6  C   UNL     1     -12.447  12.625  64.712  0.00  0.00    +0.035 C 
ATOM      7  O   UNL     1     -11.926  11.723  66.879  0.00  0.00    -0.221 OA
ENDROOT
BRANCH   1  10
ATOM      8  C   UNL     1     -11.524  15.287  68.682  0.00  0.00    +0.138 A 
ATOM      9  C   UNL     1     -11.995  14.204  67.950  0.00  0.00    +0.035 A 
ATOM     10  C   UNL     1     -11.790  14.096  66.589  0.00  0.00    +0.008 A 
ATOM     11  C   UNL     1     -11.108  15.147  65.994  0.00  0.00    -0.002 A 
ATOM     12  C   UNL     1     -10.469  16.125  66.746  0.00  0.00    +0.003 A 
ATOM     13  C   UNL     1     -10.541  16.098  68.134  0.00  0.00    +0.037 A 
BRANCH   8  15
ATOM     14  C   UNL     1     -12.390  15.684  70.395  0.00  0.00    +0.252 C 
ATOM     15  O   UNL     1     -12.068  15.638  69.920  0.00  0.00    -0.471 OA
ENDBRANCH   8  15
ENDBRANCH   1  10
BRANCH   2  16
ATOM     16  C   UNL     1      -9.586  12.414  67.125  0.00  0.00    +0.075 C 
BRANCH  16  17
ATOM     17  N   UNL     1      -8.191  12.484  67.197  0.00  0.00    -0.270 NA
ATOM     18  C   UNL     1      -7.733  11.595  68.226  0.00  0.00    +0.090 C 
ATOM     19  C   UNL     1      -7.638  13.797  67.477  0.00  0.00    +0.090 C 
ENDBRANCH  16  17
ENDBRANCH   2  16
TORSDOF 4
ENDMDL
MODEL 7
REMARK VINA RESULT:      -5.1      2.426      4.476
REMARK  Name = 
REMARK  4 active torsions:
REMARK  status: ('A' for Active; 'I' for Inactive)
REMARK    1  A    between atoms: O_2  and  C_3
REMARK    2  A    between atoms: C_7  and  C_8
REMARK    3  A    between atoms: C_14  and  C_15
REMARK    4  A    between atoms: C_15  and  N_16
REMARK                            x       y       z     vdW  Elec       q    Type
REMARK                         _______ _______ _______ _____ _____    ______ ____
ROOT
ATOM      1  C   UNL     1     -10.495  13.011  66.843  0.00  0.00    +0.147 C 
ATOM      2  C   UNL     1     -11.592  14.232  67.046  0.00  0.00    +0.048 C 
ATOM      3  C   UNL     1     -11.272  14.853  65.545  0.00  0.00    +0.004 C 
ATOM      4  C   UNL     1     -12.212  14.036  64.699  0.00  0.00    +0.000 C 
ATOM      5  C   UNL     1     -12.427  12.643  65.279  0.00  0.00    +0.003 C 
ATOM      6  C   UNL     1     -11.133  12.089  65.830  0.00  0.00    +0.035 C 
ATOM      7  O   UNL     1      -9.349  13.599  66.392  0.00  0.00    -0.221 OA
ENDROOT
BRANCH   1  10
ATOM      8  C   UNL     1     -11.663  11.073  69.764  0.00  0.00    +0.138 A 
ATOM      9  C   UNL     1     -11.539  12.142  68.884  0.00  0.00    +0.035 A 
ATOM     10  C   UNL     1     -10.380  12.370  68.169  0.00  0.00    +0.008 A 
ATOM     11  C   UNL     1      -9.340  11.483  68.404  0.00  0.00    -0.002 A 
ATOM     12  C   UNL     1      -9.525  10.311  69.126  0.00  0.00    +0.003 A 
ATOM     13  C   UNL     1     -10.766  10.019  69.680  0.00  0.00    +0.037 A 
BRANCH   8  15
ATOM     14  C   UNL     1     -12.900  11.130  71.284  0.00  0.00    +0.252 C 
ATOM     15  O   UNL     1     -12.612  11.064  70.789  0.00  0.00    -0.471 OA
ENDBRANCH   8  15
ENDBRANCH   1  10
BRANCH   2  16
ATOM     16  C   UNL     1     -10.516  15.174  67.867  0.00  0.00    +0.075 C 
BRANCH  16  17
ATOM     17  N   UNL     1     -11.183  16.201  68.541  0.00  0.00    -0.270 NA
ATOM     18  C   UNL     1     -10.447  17.422  68.376  0.00  0.00    +0.090 C 
ATOM     19  C   UNL     1     -11.377  15.999  69.966  0.00  0.00    +0.090 C 
ENDBRANCH  16  17
ENDBRANCH   2  16
TORSDOF 4
ENDMDL
MODEL 8
REMARK VINA RESULT:      -5.0      2.907      4.995
REMARK  Name = 
REMARK  4 active torsions:
REMARK  status: ('A' for Active; 'I' for Inactive)
REMARK    1  A    between atoms: O_2  and  C_3
REMARK    2  A    between atoms: C_7  and  C_8
REMARK    3  A    between atoms: C_14  and  C_15
REMARK    4  A    between atoms: C_15  and  N_16
REMARK                            x       y       z     vdW  Elec       q    Type
REMARK                         _______ _______ _______ _____ _____    ______ ____
ROOT
ATOM      1  C   UNL     1      -9.799  16.054  67.520  0.00  0.00    +0.147 C 
ATOM      2  C   UNL     1      -9.675  15.105  68.869  0.00  0.00    +0.048 C 
ATOM      3  C   UNL     1     -10.082  13.741  68.024  0.00  0.00    +0.004 C 
ATOM      4  C   UNL     1      -8.733  13.322  67.502  0.00  0.00    +0.000 C 
ATOM      5  C   UNL     1      -7.823  14.521  67.263  0.00  0.00    +0.003 C 
ATOM      6  C   UNL     1      -8.604  15.675  66.675  0.00  0.00    +0.035 C 
ATOM      7  O   UNL     1     -10.993  15.738  66.941  0.00  0.00    -0.221 OA
ENDROOT
BRANCH   1  10
ATOM      8  C   UNL     1      -8.085  19.211  68.385  0.00  0.00    +0.138 A 
ATOM      9  C   UNL     1      -8.477  17.882  68.482  0.00  0.00    +0.035 A 
ATOM     10  C   UNL     1      -9.699  17.443  68.014  0.00  0.00    +0.008 A 
ATOM     11  C   UNL     1     -10.522  18.416  67.466  0.00  0.00    -0.002 A 
ATOM     12  C   UNL     1     -10.059  19.696  67.190  0.00  0.00    +0.003 A 
ATOM     13  C   UNL     1      -8.753  20.051  67.507  0.00  0.00    +0.037 A 
BRANCH   8  15
ATOM     14  C   UNL     1      -6.608  19.865  69.496  0.00  0.00    +0.252 C 
ATOM     15  O   UNL     1      -7.093  19.753  69.206  0.00  0.00    -0.471 OA
ENDBRANCH   8  15
ENDBRANCH   1  10
BRANCH   2  16
ATOM     16  C   UNL     1     -11.201  15.474  69.370  0.00  0.00    +0.075 C 
BRANCH  16  17
ATOM     17  N   UNL     1     -11.390  15.070  70.695  0.00  0.00    -0.270 NA
ATOM     18  C   UNL     1     -12.383  14.034  70.730  0.00  0.00    +0.090 C 
ATOM     19  C   UNL     1     -11.812  16.108  71.618  0.00  0.00    +0.090 C 
ENDBRANCH  16  17
ENDBRANCH   2  16
TORSDOF 4
ENDMDL
MODEL 9
REMARK VINA RESULT:      -4.9      5.158      8.129
REMARK  Name = 
REMARK  4 active torsions:
REMARK  status: ('A' for Active; 'I' for Inactive)
REMARK    1  A    between atoms: O_2  and  C_3
REMARK    2  A    between atoms: C_7  and  C_8
REMARK    3  A    between atoms: C_14  and  C_15
REMARK    4  A    between atoms: C_15  and  N_16
REMARK                            x       y       z     vdW  Elec       q    Type
REMARK                         _______ _______ _______ _____ _____    ______ ____
ROOT
ATOM      1  C   UNL     1      -6.925  20.185  67.245  0.00  0.00    +0.147 C 
ATOM      2  C   UNL     1      -5.786  19.636  66.179  0.00  0.00    +0.048 C 
ATOM      3  C   UNL     1      -4.604  20.570  66.865  0.00  0.00    +0.004 C 
ATOM      4  C   UNL     1      -4.132  19.660  67.968  0.00  0.00    +0.000 C 
ATOM      5  C   UNL     1      -5.257  18.771  68.485  0.00  0.00    +0.003 C 
ATOM      6  C   UNL     1      -6.555  19.544  68.563  0.00  0.00    +0.035 C 
ATOM      7  O   UNL     1      -6.815  21.545  67.255  0.00  0.00    -0.221 OA
ENDROOT
BRANCH   1  10
ATOM      8  C   UNL     1      -9.487  17.623  66.522  0.00  0.00    +0.138 A 
ATOM      9  C   UNL     1      -8.298  18.332  66.410  0.00  0.00    +0.035 A 
ATOM     10  C   UNL     1      -8.213  19.672  66.732  0.00  0.00    +0.008 A 
ATOM     11  C   UNL     1      -9.392  20.272  67.148  0.00  0.00    -0.002 A 
ATOM     12  C   UNL     1     -10.526  19.527  67.447  0.00  0.00    +0.003 A 
ATOM     13  C   UNL     1     -10.519  18.146  67.288  0.00  0.00    +0.037 A 
BRANCH   8  15
ATOM     14  C   UNL     1      -9.779  15.888  65.657  0.00  0.00    +0.252 C 
ATOM     15  O   UNL     1      -9.712  16.437  65.819  0.00  0.00    -0.471 OA
ENDBRANCH   8  15
ENDBRANCH   1  10
BRANCH   2  16
ATOM     16  C   UNL     1      -6.228  20.722  65.020  0.00  0.00    +0.075 C 
BRANCH  16  17
ATOM     17  N   UNL     1      -5.514  20.493  63.840  0.00  0.00    -0.270 NA
ATOM     18  C   UNL     1      -6.141  21.213  62.769  0.00  0.00    +0.090 C 
ATOM     19  C   UNL     1      -5.406  19.105  63.427  0.00  0.00    +0.090 C 
ENDBRANCH  16  17
ENDBRANCH   2  16
TORSDOF 4
ENDMDL
