MODEL 1
REMARK VINA RESULT:      -8.0      0.000      0.000
REMARK  Name = 
REMARK  1 active torsions:
REMARK  status: ('A' for Active; 'I' for Inactive)
REMARK    1  A    between atoms: C_14  and  C_15
REMARK                            x       y       z     vdW  Elec       q    Type
REMARK                         _______ _______ _______ _____ _____    ______ ____
ROOT
ATOM      1  C   UNL     1     -10.641  11.784  65.316  0.00  0.00    +0.074 C 
ATOM      2  C   UNL     1     -10.323  13.199  65.683  0.00  0.00    +0.147 A 
ATOM      3  N   UNL     1     -10.480  13.694  66.934  0.00  0.00    -0.279 N 
ATOM      4  C   UNL     1     -10.805  12.925  68.097  0.00  0.00    +0.068 A 
ATOM      5  C   UNL     1     -11.464  13.314  69.258  0.00  0.00    +0.034 A 
ATOM      6  C   UNL     1     -11.934  14.666  69.556  0.00  0.00    +0.078 C 
ATOM      7  N   UNL     1     -11.868  15.715  68.791  0.00  0.00    -0.262 NA
ATOM      8  C   UNL     1     -10.825  16.063  67.830  0.00  0.00    +0.191 C 
ATOM      9  C   UNL     1     -12.023  12.391  70.130  0.00  0.00    +0.014 A 
ATOM     10  C   UNL     1     -11.974  11.063  69.798  0.00  0.00    +0.058 A 
ATOM     11 CL   UNL     1     -12.914   9.926  70.744  0.00  0.00    -0.082 Cl
ATOM     12  C   UNL     1     -11.567  10.679  68.526  0.00  0.00    +0.013 A 
ATOM     13  C   UNL     1     -10.754  11.564  67.828  0.00  0.00    +0.019 A 
ATOM     14  C   UNL     1     -10.689  15.025  66.782  0.00  0.00    +0.172 A 
ATOM     15  N   UNL     1     -10.927  15.306  65.478  0.00  0.00    -0.131 NA
ATOM     16  N   UNL     1     -10.487  14.237  64.831  0.00  0.00    -0.133 NA
ENDROOT
BRANCH   6  17
ATOM     17  C   UNL     1     -12.448  14.845  70.916  0.00  0.00    +0.017 A 
ATOM     18  C   UNL     1     -13.803  15.052  71.120  0.00  0.00    +0.001 A 
ATOM     19  C   UNL     1     -14.229  15.516  72.357  0.00  0.00    +0.000 A 
ATOM     20  C   UNL     1     -13.306  15.938  73.306  0.00  0.00    +0.000 A 
ATOM     21  C   UNL     1     -11.986  16.132  72.920  0.00  0.00    +0.000 A 
ATOM     22  C   UNL     1     -11.557  15.338  71.862  0.00  0.00    +0.001 A 
ENDBRANCH   6  17
TORSDOF 1
ENDMDL
MODEL 2
REMARK VINA RESULT:      -7.4      2.458      3.761
REMARK  Name = 
REMARK  1 active torsions:
REMARK  status: ('A' for Active; 'I' for Inactive)
REMARK    1  A    between atoms: C_14  and  C_15
REMARK                            x       y       z     vdW  Elec       q    Type
REMARK                         _______ _______ _______ _____ _____    ______ ____
ROOT
ATOM      1  C   UNL     1      -9.854  11.970  65.416  0.00  0.00    +0.074 C 
ATOM      2  C   UNL     1     -10.736  11.276  66.406  0.00  0.00    +0.147 A 
ATOM      3  N   UNL     1     -11.446  11.933  67.354  0.00  0.00    -0.279 N 
ATOM      4  C   UNL     1     -11.589  13.354  67.449  0.00  0.00    +0.068 A 
ATOM      5  C   UNL     1     -11.826  14.145  68.567  0.00  0.00    +0.034 A 
ATOM      6  C   UNL     1     -12.035  13.654  69.928  0.00  0.00    +0.078 C 
ATOM      7  N   UNL     1     -11.991  12.422  70.341  0.00  0.00    -0.262 NA
ATOM      8  C   UNL     1     -12.390  11.217  69.619  0.00  0.00    +0.191 C 
ATOM      9  C   UNL     1     -11.581  15.512  68.565  0.00  0.00    +0.014 A 
ATOM     10  C   UNL     1     -11.033  16.077  67.446  0.00  0.00    +0.058 A 
ATOM     11 CL   UNL     1     -10.465  17.733  67.534  0.00  0.00    -0.082 Cl
ATOM     12  C   UNL     1     -10.541  15.269  66.428  0.00  0.00    +0.013 A 
ATOM     13  C   UNL     1     -11.066  13.986  66.329  0.00  0.00    +0.019 A 
ATOM     14  C   UNL     1     -11.607  11.052  68.372  0.00  0.00    +0.172 A 
ATOM     15  N   UNL     1     -10.797   9.982  68.186  0.00  0.00    -0.131 NA
ATOM     16  N   UNL     1     -10.461  10.049  66.906  0.00  0.00    -0.133 NA
ENDROOT
BRANCH   6  17
ATOM     17  C   UNL     1     -12.429  14.684  70.893  0.00  0.00    +0.017 A 
ATOM     18  C   UNL     1     -11.536  15.089  71.872  0.00  0.00    +0.001 A 
ATOM     19  C   UNL     1     -12.013  15.827  72.946  0.00  0.00    +0.000 A 
ATOM     20  C   UNL     1     -13.380  15.997  73.132  0.00  0.00    +0.000 A 
ATOM     21  C   UNL     1     -14.261  15.219  72.391  0.00  0.00    +0.000 A 
ATOM     22  C   UNL     1     -13.790  14.816  71.147  0.00  0.00    +0.001 A 
ENDBRANCH   6  17
TORSDOF 1
ENDMDL
MODEL 3
REMARK VINA RESULT:      -7.1      2.735      6.524
REMARK  Name = 
REMARK  1 active torsions:
REMARK  status: ('A' for Active; 'I' for Inactive)
REMARK    1  A    between atoms: C_14  and  C_15
REMARK                            x       y       z     vdW  Elec       q    Type
REMARK                         _______ _______ _______ _____ _____    ______ ____
ROOT
ATOM      1  C   UNL     1     -12.226  15.937  71.534  0.00  0.00    +0.074 C 
ATOM      2  C   UNL     1     -12.088  14.449  71.447  0.00  0.00    +0.147 A 
ATOM      3  N   UNL     1     -11.612  13.811  70.351  0.00  0.00    -0.279 N 
ATOM      4  C   UNL     1     -11.034  14.447  69.206  0.00  0.00    +0.068 A 
ATOM      5  C   UNL     1     -10.983  14.012  67.886  0.00  0.00    +0.034 A 
ATOM      6  C   UNL     1     -11.491  12.734  67.391  0.00  0.00    +0.078 C 
ATOM      7  N   UNL     1     -12.113  11.814  68.067  0.00  0.00    -0.262 NA
ATOM      8  C   UNL     1     -11.913  11.434  69.462  0.00  0.00    +0.191 C 
ATOM      9  C   UNL     1     -10.719  14.881  66.836  0.00  0.00    +0.014 A 
ATOM     10  C   UNL     1     -10.567  16.213  67.112  0.00  0.00    +0.058 A 
ATOM     11 CL   UNL     1     -10.514  17.346  65.775  0.00  0.00    -0.082 Cl
ATOM     12  C   UNL     1     -10.881  16.703  68.373  0.00  0.00    +0.013 A 
ATOM     13  C   UNL     1     -10.837  15.802  69.431  0.00  0.00    +0.019 A 
ATOM     14  C   UNL     1     -12.167  12.574  70.373  0.00  0.00    +0.172 A 
ATOM     15  N   UNL     1     -13.160  12.533  71.293  0.00  0.00    -0.131 NA
ATOM     16  N   UNL     1     -12.938  13.592  72.057  0.00  0.00    -0.133 NA
ENDROOT
BRANCH   6  17
ATOM     17  C   UNL     1     -11.165  12.450  65.991  0.00  0.00    +0.017 A 
ATOM     18  C   UNL     1     -12.144  12.564  65.018  0.00  0.00    +0.001 A 
ATOM     19  C   UNL     1     -11.910  12.010  63.767  0.00  0.00    +0.000 A 
ATOM     20  C   UNL     1     -10.800  11.200  63.553  0.00  0.00    +0.000 A 
ATOM     21  C   UNL     1     -10.077  10.747  64.649  0.00  0.00    +0.000 A 
ATOM     22  C   UNL     1     -10.104  11.582  65.760  0.00  0.00    +0.001 A 
ENDBRANCH   6  17
TORSDOF 1
ENDMDL
MODEL 4
REMARK VINA RESULT:      -6.8      2.058      4.512
REMARK  Name = 
REMARK  1 active torsions:
REMARK  status: ('A' for Active; 'I' for Inactive)
REMARK    1  A    between atoms: C_14  and  C_15
REMARK                            x       y       z     vdW  Elec       q    Type
REMARK                         _______ _______ _______ _____ _____    ______ ____
ROOT
ATOM      1  C   UNL     1     -10.808  16.351  67.549  0.00  0.00    +0.074 C 
ATOM      2  C   UNL     1     -10.906  15.001  66.910  0.00  0.00    +0.147 A 
ATOM      3  N   UNL     1     -11.380  13.908  67.555  0.00  0.00    -0.279 N 
ATOM      4  C   UNL     1     -11.994  13.908  68.848  0.00  0.00    +0.068 A 
ATOM      5  C   UNL     1     -12.052  12.894  69.798  0.00  0.00    +0.034 A 
ATOM      6  C   UNL     1     -11.515  11.544  69.635  0.00  0.00    +0.078 C 
ATOM      7  N   UNL     1     -10.858  11.070  68.619  0.00  0.00    -0.262 NA
ATOM      8  C   UNL     1     -11.025  11.401  67.207  0.00  0.00    +0.191 C 
ATOM      9  C   UNL     1     -12.357  13.150  71.128  0.00  0.00    +0.014 A 
ATOM     10  C   UNL     1     -12.542  14.449  71.519  0.00  0.00    +0.058 A 
ATOM     11 CL   UNL     1     -12.647  14.803  73.233  0.00  0.00    -0.082 Cl
ATOM     12  C   UNL     1     -12.222  15.488  70.654  0.00  0.00    +0.013 A 
ATOM     13  C   UNL     1     -12.225  15.202  69.293  0.00  0.00    +0.019 A 
ATOM     14  C   UNL     1     -10.790  12.843  66.959  0.00  0.00    +0.172 A 
ATOM     15  N   UNL     1      -9.782  13.264  66.159  0.00  0.00    -0.131 NA
ATOM     16  N   UNL     1     -10.023  14.556  65.988  0.00  0.00    -0.133 NA
ENDROOT
BRANCH   6  17
ATOM     17  C   UNL     1     -11.855  10.619  70.720  0.00  0.00    +0.017 A 
ATOM     18  C   UNL     1     -10.921   9.693  71.155  0.00  0.00    +0.001 A 
ATOM     19  C   UNL     1     -11.345   8.642  71.955  0.00  0.00    +0.000 A 
ATOM     20  C   UNL     1     -12.701   8.419  72.162  0.00  0.00    +0.000 A 
ATOM     21  C   UNL     1     -13.622   9.089  71.367  0.00  0.00    +0.000 A 
ATOM     22  C   UNL     1     -13.203  10.326  70.893  0.00  0.00    +0.001 A 
ENDBRANCH   6  17
TORSDOF 1
ENDMDL
MODEL 5
REMARK VINA RESULT:      -6.7      1.555      5.780
REMARK  Name = 
REMARK  1 active torsions:
REMARK  status: ('A' for Active; 'I' for Inactive)
REMARK    1  A    between atoms: C_14  and  C_15
REMARK                            x       y       z     vdW  Elec       q    Type
REMARK                         _______ _______ _______ _____ _____    ______ ____
ROOT
ATOM      1  C   UNL     1     -11.577  15.994  70.548  0.00  0.00    +0.074 C 
ATOM      2  C   UNL     1     -11.416  16.364  69.107  0.00  0.00    +0.147 A 
ATOM      3  N   UNL     1     -11.390  15.452  68.105  0.00  0.00    -0.279 N 
ATOM      4  C   UNL     1     -11.669  14.055  68.247  0.00  0.00    +0.068 A 
ATOM      5  C   UNL     1     -11.211  12.982  67.490  0.00  0.00    +0.034 A 
ATOM      6  C   UNL     1     -10.353  13.078  66.311  0.00  0.00    +0.078 C 
ATOM      7  N   UNL     1      -9.833  14.152  65.794  0.00  0.00    -0.262 NA
ATOM      8  C   UNL     1     -10.404  15.494  65.748  0.00  0.00    +0.191 C 
ATOM      9  C   UNL     1     -11.270  11.676  67.957  0.00  0.00    +0.014 A 
ATOM     10  C   UNL     1     -11.734  11.454  69.225  0.00  0.00    +0.058 A 
ATOM     11 CL   UNL     1     -11.550   9.855  69.919  0.00  0.00    -0.082 Cl
ATOM     12  C   UNL     1     -11.938  12.524  70.089  0.00  0.00    +0.013 A 
ATOM     13  C   UNL     1     -12.163  13.769  69.512  0.00  0.00    +0.019 A 
ATOM     14  C   UNL     1     -10.664  16.017  67.110  0.00  0.00    +0.172 A 
ATOM     15  N   UNL     1     -10.032  17.122  67.572  0.00  0.00    -0.131 NA
ATOM     16  N   UNL     1     -10.673  17.416  68.694  0.00  0.00    -0.133 NA
ENDROOT
BRANCH   6  17
ATOM     17  C   UNL     1     -10.153  11.813  65.599  0.00  0.00    +0.017 A 
ATOM     18  C   UNL     1      -8.996  11.080  65.808  0.00  0.00    +0.001 A 
ATOM     19  C   UNL     1      -8.682  10.060  64.921  0.00  0.00    +0.000 A 
ATOM     20  C   UNL     1      -9.412   9.898  63.749  0.00  0.00    +0.000 A 
ATOM     21  C   UNL     1     -10.280  10.907  63.352  0.00  0.00    +0.000 A 
ATOM     22  C   UNL     1     -10.817  11.664  64.387  0.00  0.00    +0.001 A 
ENDBRANCH   6  17
TORSDOF 1
ENDMDL
MODEL 6
REMARK VINA RESULT:      -6.7      2.107      2.972
REMARK  Name = 
REMARK  1 active torsions:
REMARK  status: ('A' for Active; 'I' for Inactive)
REMARK    1  A    between atoms: C_14  and  C_15
REMARK                            x       y       z     vdW  Elec       q    Type
REMARK                         _______ _______ _______ _____ _____    ______ ____
ROOT
ATOM      1  C   UNL     1     -10.014  10.339  63.744  0.00  0.00    +0.074 C 
ATOM      2  C   UNL     1     -10.791  11.618  63.777  0.00  0.00    +0.147 A 
ATOM      3  N   UNL     1     -10.799  12.453  64.845  0.00  0.00    -0.279 N 
ATOM      4  C   UNL     1      -9.966  12.329  66.002  0.00  0.00    +0.068 A 
ATOM      5  C   UNL     1     -10.196  12.755  67.306  0.00  0.00    +0.034 A 
ATOM      6  C   UNL     1     -11.371  13.494  67.763  0.00  0.00    +0.078 C 
ATOM      7  N   UNL     1     -12.413  13.838  67.066  0.00  0.00    -0.262 NA
ATOM      8  C   UNL     1     -12.466  14.212  65.656  0.00  0.00    +0.191 C 
ATOM      9  C   UNL     1      -9.476  12.253  68.380  0.00  0.00    +0.014 A 
ATOM     10  C   UNL     1      -8.557  11.265  68.149  0.00  0.00    +0.058 A 
ATOM     11 CL   UNL     1      -7.851  10.435  69.522  0.00  0.00    -0.082 Cl
ATOM     12  C   UNL     1      -8.506  10.639  66.909  0.00  0.00    +0.013 A 
ATOM     13  C   UNL     1      -8.998  11.351  65.821  0.00  0.00    +0.019 A 
ATOM     14  C   UNL     1     -11.982  13.113  64.788  0.00  0.00    +0.172 A 
ATOM     15  N   UNL     1     -12.795  12.521  63.881  0.00  0.00    -0.131 NA
ATOM     16  N   UNL     1     -11.978  11.777  63.150  0.00  0.00    -0.133 NA
ENDROOT
BRANCH   6  17
ATOM     17  C   UNL     1     -11.291  13.967  69.148  0.00  0.00    +0.017 A 
ATOM     18  C   UNL     1     -12.149  13.449  70.104  0.00  0.00    +0.001 A 
ATOM     19  C   UNL     1     -12.270  14.109  71.320  0.00  0.00    +0.000 A 
ATOM     20  C   UNL     1     -11.687  15.357  71.504  0.00  0.00    +0.000 A 
ATOM     21  C   UNL     1     -11.207  16.045  70.397  0.00  0.00    +0.000 A 
ATOM     22  C   UNL     1     -10.779  15.244  69.345  0.00  0.00    +0.001 A 
ENDBRANCH   6  17
TORSDOF 1
ENDMDL
MODEL 7
REMARK VINA RESULT:      -6.6      3.472      5.842
REMARK  Name = 
REMARK  1 active torsions:
REMARK  status: ('A' for Active; 'I' for Inactive)
REMARK    1  A    between atoms: C_14  and  C_15
REMARK                            x       y       z     vdW  Elec       q    Type
REMARK                         _______ _______ _______ _____ _____    ______ ____
ROOT
ATOM      1  C   UNL     1     -11.718   6.532  70.307  0.00  0.00    +0.074 C 
ATOM      2  C   UNL     1     -10.863   6.792  69.107  0.00  0.00    +0.147 A 
ATOM      3  N   UNL     1     -10.549   8.038  68.676  0.00  0.00    -0.279 N 
ATOM      4  C   UNL     1     -10.838   9.255  69.373  0.00  0.00    +0.068 A 
ATOM      5  C   UNL     1     -11.039  10.535  68.868  0.00  0.00    +0.034 A 
ATOM      6  C   UNL     1     -10.940  10.919  67.461  0.00  0.00    +0.078 C 
ATOM      7  N   UNL     1     -10.700  10.147  66.444  0.00  0.00    -0.262 NA
ATOM      8  C   UNL     1      -9.853   8.959  66.396  0.00  0.00    +0.191 C 
ATOM      9  C   UNL     1     -11.660  11.528  69.612  0.00  0.00    +0.014 A 
ATOM     10  C   UNL     1     -12.142  11.212  70.853  0.00  0.00    +0.058 A 
ATOM     11 CL   UNL     1     -13.167  12.372  71.677  0.00  0.00    -0.082 Cl
ATOM     12  C   UNL     1     -12.195   9.885  71.262  0.00  0.00    +0.013 A 
ATOM     13  C   UNL     1     -11.315   8.999  70.651  0.00  0.00    +0.019 A 
ATOM     14  C   UNL     1     -10.324   7.923  67.345  0.00  0.00    +0.172 A 
ATOM     15  N   UNL     1     -10.746   6.711  66.911  0.00  0.00    -0.131 NA
ATOM     16  N   UNL     1     -10.857   5.991  68.017  0.00  0.00    -0.133 NA
ENDROOT
BRANCH   6  17
ATOM     17  C   UNL     1     -11.033  12.361  67.217  0.00  0.00    +0.017 A 
ATOM     18  C   UNL     1     -12.057  12.862  66.429  0.00  0.00    +0.001 A 
ATOM     19  C   UNL     1     -11.963  14.165  65.961  0.00  0.00    +0.000 A 
ATOM     20  C   UNL     1     -10.788  14.888  66.124  0.00  0.00    +0.000 A 
ATOM     21  C   UNL     1      -9.637  14.220  66.523  0.00  0.00    +0.000 A 
ATOM     22  C   UNL     1      -9.852  13.088  67.302  0.00  0.00    +0.001 A 
ENDBRANCH   6  17
TORSDOF 1
ENDMDL
MODEL 8
REMARK VINA RESULT:      -6.5      1.554      5.607
REMARK  Name = 
REMARK  1 active torsions:
REMARK  status: ('A' for Active; 'I' for Inactive)
REMARK    1  A    between atoms: C_14  and  C_15
REMARK                            x       y       z     vdW  Elec       q    Type
REMARK                         _______ _______ _______ _____ _____    ______ ____
ROOT
ATOM      1  C   UNL     1     -12.910  14.433  73.071  0.00  0.00    +0.074 C 
ATOM      2  C   UNL     1     -12.684  15.159  71.781  0.00  0.00    +0.147 A 
ATOM      3  N   UNL     1     -12.476  14.526  70.601  0.00  0.00    -0.279 N 
ATOM      4  C   UNL     1     -12.601  13.117  70.381  0.00  0.00    +0.068 A 
ATOM      5  C   UNL     1     -11.967  12.310  69.443  0.00  0.00    +0.034 A 
ATOM      6  C   UNL     1     -11.038  12.772  68.413  0.00  0.00    +0.078 C 
ATOM      7  N   UNL     1     -10.608  13.983  68.220  0.00  0.00    -0.262 NA
ATOM      8  C   UNL     1     -11.325  15.237  68.433  0.00  0.00    +0.191 C 
ATOM      9  C   UNL     1     -11.908  10.930  69.581  0.00  0.00    +0.014 A 
ATOM     10  C   UNL     1     -12.440  10.362  70.708  0.00  0.00    +0.058 A 
ATOM     11 CL   UNL     1     -12.124   8.666  71.021  0.00  0.00    -0.082 Cl
ATOM     12  C   UNL     1     -12.830  11.163  71.773  0.00  0.00    +0.013 A 
ATOM     13  C   UNL     1     -13.154  12.484  71.486  0.00  0.00    +0.019 A 
ATOM     14  C   UNL     1     -11.747  15.383  69.846  0.00  0.00    +0.172 A 
ATOM     15  N   UNL     1     -11.284  16.396  70.617  0.00  0.00    -0.131 NA
ATOM     16  N   UNL     1     -12.038  16.345  71.705  0.00  0.00    -0.133 NA
ENDROOT
BRANCH   6  17
ATOM     17  C   UNL     1     -10.639  11.744  67.448  0.00  0.00    +0.017 A 
ATOM     18  C   UNL     1      -9.375  11.181  67.523  0.00  0.00    +0.001 A 
ATOM     19  C   UNL     1      -8.907  10.446  66.443  0.00  0.00    +0.000 A 
ATOM     20  C   UNL     1      -9.611  10.430  65.245  0.00  0.00    +0.000 A 
ATOM     21  C   UNL     1     -10.637  11.347  65.055  0.00  0.00    +0.000 A 
ATOM     22  C   UNL     1     -11.281  11.760  66.216  0.00  0.00    +0.001 A 
ENDBRANCH   6  17
TORSDOF 1
ENDMDL
MODEL 9
REMARK VINA RESULT:      -6.4      4.282      5.303
REMARK  Name = 
REMARK  1 active torsions:
REMARK  status: ('A' for Active; 'I' for Inactive)
REMARK    1  A    between atoms: C_14  and  C_15
REMARK                            x       y       z     vdW  Elec       q    Type
REMARK                         _______ _______ _______ _____ _____    ______ ____
ROOT
ATOM      1  C   UNL     1     -11.312  11.514  66.548  0.00  0.00    +0.074 C 
ATOM      2  C   UNL     1     -11.546  12.619  65.567  0.00  0.00    +0.147 A 
ATOM      3  N   UNL     1     -10.771  13.729  65.501  0.00  0.00    -0.279 N 
ATOM      4  C   UNL     1      -9.552  13.935  66.222  0.00  0.00    +0.068 A 
ATOM      5  C   UNL     1      -8.961  15.123  66.638  0.00  0.00    +0.034 A 
ATOM      6  C   UNL     1      -9.468  16.466  66.362  0.00  0.00    +0.078 C 
ATOM      7  N   UNL     1     -10.562  16.788  65.737  0.00  0.00    -0.262 NA
ATOM      8  C   UNL     1     -11.199  16.091  64.624  0.00  0.00    +0.191 C 
ATOM      9  C   UNL     1      -7.988  15.153  67.626  0.00  0.00    +0.014 A 
ATOM     10  C   UNL     1      -7.650  13.981  68.249  0.00  0.00    +0.058 A 
ATOM     11 CL   UNL     1      -6.637  14.051  69.677  0.00  0.00    -0.082 Cl
ATOM     12  C   UNL     1      -8.414  12.839  68.043  0.00  0.00    +0.013 A 
ATOM     13  C   UNL     1      -9.147  12.772  66.863  0.00  0.00    +0.019 A 
ATOM     14  C   UNL     1     -11.565  14.704  64.994  0.00  0.00    +0.172 A 
ATOM     15  N   UNL     1     -12.856  14.294  65.000  0.00  0.00    -0.131 NA
ATOM     16  N   UNL     1     -12.779  12.979  65.142  0.00  0.00    -0.133 NA
ENDROOT
BRANCH   6  17
ATOM     17  C   UNL     1      -8.571  17.550  66.769  0.00  0.00    +0.017 A 
ATOM     18  C   UNL     1      -8.992  18.479  67.706  0.00  0.00    +0.001 A 
ATOM     19  C   UNL     1      -8.267  19.653  67.856  0.00  0.00    +0.000 A 
ATOM     20  C   UNL     1      -7.252  19.972  66.961  0.00  0.00    +0.000 A 
ATOM     21  C   UNL     1      -7.142  19.245  65.783  0.00  0.00    +0.000 A 
ATOM     22  C   UNL     1      -7.597  17.933  65.854  0.00  0.00    +0.001 A 
ENDBRANCH   6  17
TORSDOF 1
ENDMDL
