MODEL 1
REMARK VINA RESULT:      -7.8      0.000      0.000
REMARK  Name = 
REMARK  15 active torsions:
REMARK  status: ('A' for Active; 'I' for Inactive)
REMARK    1  A    between atoms: C_14  and  C_15
REMARK    2  A    between atoms: C_15  and  C_16
REMARK    3  A    between atoms: C_16  and  C_17
REMARK    4  A    between atoms: C_17  and  C_18
REMARK    5  A    between atoms: C_18  and  C_19
REMARK    6  A    between atoms: C_19  and  C_20
REMARK    7  A    between atoms: C_20  and  C_21
REMARK    8  A    between atoms: C_21  and  C_22
REMARK    9  A    between atoms: C_22  and  C_23
REMARK   10  A    between atoms: C_23  and  S_24
REMARK   11  A    between atoms: S_24  and  C_26
REMARK   12  A    between atoms: C_26  and  C_27
REMARK   13  A    between atoms: C_27  and  C_28
REMARK   14  A    between atoms: C_28  and  C_29
REMARK   15  A    between atoms: C_29  and  C_32
REMARK                            x       y       z     vdW  Elec       q    Type
REMARK                         _______ _______ _______ _____ _____    ______ ____
ROOT
ATOM      1  C   UNL     1     -10.146  12.528  67.947  0.00  0.00    +0.000 C 
ENDROOT
BRANCH   1  20
ATOM      2  C   UNL     1     -13.942  14.114  72.305  0.00  0.00    +0.003 C 
ATOM      3  C   UNL     1     -13.005  13.606  71.250  0.00  0.00    +0.028 C 
ATOM      4  C   UNL     1     -13.209  15.092  71.220  0.00  0.00    +0.152 C 
ATOM      5  O   UNL     1     -14.086  15.880  72.148  0.00  0.00    -0.223 OA
ATOM      6  C   UNL     1     -12.382  15.651  70.100  0.00  0.00    +0.033 C 
ATOM      7  C   UNL     1     -11.666  14.510  69.438  0.00  0.00    +0.003 C 
ATOM      8  C   UNL     1     -12.051  13.246  70.149  0.00  0.00    +0.003 C 
ATOM      9  C   UNL     1     -11.658  11.815  69.936  0.00  0.00    +0.004 C 
ATOM     10  C   UNL     1     -12.216  10.742  70.823  0.00  0.00    +0.022 C 
ATOM     11  C   UNL     1     -11.822   9.311  70.610  0.00  0.00    -0.026 A 
ATOM     12  C   UNL     1     -10.869   8.952  69.509  0.00  0.00    -0.023 A 
ATOM     13  C   UNL     1     -10.311  10.025  68.621  0.00  0.00    +0.026 C 
ATOM     14  C   UNL     1     -10.475   7.521  69.295  0.00  0.00    +0.037 A 
ATOM     15  C   UNL     1     -11.034   6.448  70.183  0.00  0.00    +0.195 A 
ATOM     16  O   UNL     1     -10.639   5.017  69.969  0.00  0.00    -0.287 OA
ATOM     17  C   UNL     1     -11.986   6.808  71.284  0.00  0.00    +0.042 A 
ATOM     18  C   UNL     1     -12.381   8.239  71.497  0.00  0.00    -0.001 A 
ATOM     19  C   UNL     1     -13.169  11.102  71.924  0.00  0.00    +0.004 C 
ATOM     20  C   UNL     1     -10.704  11.456  68.834  0.00  0.00    +0.005 C 
ATOM     21  C   UNL     1     -13.563  12.534  72.138  0.00  0.00    +0.003 C 
ENDBRANCH   1  20
BRANCH   1  22
ATOM     22  C   UNL     1      -8.674  12.818  67.955  0.00  0.00    +0.000 C 
BRANCH  22  23
ATOM     23  C   UNL     1      -7.809  12.342  66.826  0.00  0.00    +0.000 C 
BRANCH  23  24
ATOM     24  C   UNL     1      -7.389  10.904  66.757  0.00  0.00    +0.000 C 
BRANCH  24  25
ATOM     25  C   UNL     1      -7.716  10.084  65.544  0.00  0.00    +0.000 C 
BRANCH  25  26
ATOM     26  C   UNL     1      -9.144   9.751  65.227  0.00  0.00    +0.000 C 
BRANCH  26  27
ATOM     27  C   UNL     1      -9.880  10.526  64.176  0.00  0.00    +0.001 C 
BRANCH  27  28
ATOM     28  C   UNL     1     -10.899  11.552  64.575  0.00  0.00    +0.014 C 
BRANCH  28  29
ATOM     29  C   UNL     1     -10.666  13.000  64.264  0.00  0.00    +0.092 C 
BRANCH  29  30
ATOM     30  S   UNL     1     -11.616  14.040  64.780  0.00  0.00    +0.042 S 
ATOM     31  O   UNL     1     -13.061  13.699  64.988  0.00  0.00    -0.256 OA
BRANCH  30  32
ATOM     32  C   UNL     1     -11.120  15.422  65.088  0.00  0.00    +0.092 C 
BRANCH  32  33
ATOM     33  C   UNL     1      -9.754  15.614  65.679  0.00  0.00    +0.020 C 
BRANCH  33  34
ATOM     34  C   UNL     1      -9.597  16.322  66.991  0.00  0.00    +0.077 C 
BRANCH  34  35
ATOM     35  C   UNL     1      -9.662  17.820  67.049  0.00  0.00    +0.349 C 
ATOM     36  F   UNL     1     -10.842  17.733  67.971  0.00  0.00    -0.195 F 
ATOM     37  F   UNL     1      -8.482  17.906  66.126  0.00  0.00    -0.195 F 
BRANCH  35  38
ATOM     38  C   UNL     1      -9.727  19.317  67.106  0.00  0.00    +0.454 C 
ATOM     39  F   UNL     1     -11.223  19.249  67.197  0.00  0.00    -0.165 F 
ATOM     40  F   UNL     1      -8.231  19.386  67.015  0.00  0.00    -0.165 F 
ATOM     41  F   UNL     1      -9.792  20.815  67.164  0.00  0.00    -0.165 F 
ENDBRANCH  35  38
ENDBRANCH  34  35
ENDBRANCH  33  34
ENDBRANCH  32  33
ENDBRANCH  30  32
ENDBRANCH  29  30
ENDBRANCH  28  29
ENDBRANCH  27  28
ENDBRANCH  26  27
ENDBRANCH  25  26
ENDBRANCH  24  25
ENDBRANCH  23  24
ENDBRANCH  22  23
ENDBRANCH   1  22
TORSDOF 15
ENDMDL
MODEL 2
REMARK VINA RESULT:      -7.6      2.161      3.506
REMARK  Name = 
REMARK  15 active torsions:
REMARK  status: ('A' for Active; 'I' for Inactive)
REMARK    1  A    between atoms: C_14  and  C_15
REMARK    2  A    between atoms: C_15  and  C_16
REMARK    3  A    between atoms: C_16  and  C_17
REMARK    4  A    between atoms: C_17  and  C_18
REMARK    5  A    between atoms: C_18  and  C_19
REMARK    6  A    between atoms: C_19  and  C_20
REMARK    7  A    between atoms: C_20  and  C_21
REMARK    8  A    between atoms: C_21  and  C_22
REMARK    9  A    between atoms: C_22  and  C_23
REMARK   10  A    between atoms: C_23  and  S_24
REMARK   11  A    between atoms: S_24  and  C_26
REMARK   12  A    between atoms: C_26  and  C_27
REMARK   13  A    between atoms: C_27  and  C_28
REMARK   14  A    between atoms: C_28  and  C_29
REMARK   15  A    between atoms: C_29  and  C_32
REMARK                            x       y       z     vdW  Elec       q    Type
REMARK                         _______ _______ _______ _____ _____    ______ ____
ROOT
ATOM      1  C   UNL     1     -10.178  12.573  67.820  0.00  0.00    +0.000 C 
ENDROOT
BRANCH   1  20
ATOM      2  C   UNL     1     -13.868  14.146  72.273  0.00  0.00    +0.003 C 
ATOM      3  C   UNL     1     -12.955  13.641  71.195  0.00  0.00    +0.028 C 
ATOM      4  C   UNL     1     -13.171  15.126  71.166  0.00  0.00    +0.152 C 
ATOM      5  O   UNL     1     -14.029  15.911  72.114  0.00  0.00    -0.223 OA
ATOM      6  C   UNL     1     -12.379  15.687  70.023  0.00  0.00    +0.033 C 
ATOM      7  C   UNL     1     -11.673  14.550  69.345  0.00  0.00    +0.003 C 
ATOM      8  C   UNL     1     -12.029  13.285  70.070  0.00  0.00    +0.003 C 
ATOM      9  C   UNL     1     -11.631  11.856  69.851  0.00  0.00    +0.004 C 
ATOM     10  C   UNL     1     -12.157  10.783  70.756  0.00  0.00    +0.022 C 
ATOM     11  C   UNL     1     -11.759   9.354  70.537  0.00  0.00    -0.026 A 
ATOM     12  C   UNL     1     -10.833   8.998  69.412  0.00  0.00    -0.023 A 
ATOM     13  C   UNL     1     -10.306  10.071  68.506  0.00  0.00    +0.026 C 
ATOM     14  C   UNL     1     -10.434   7.569  69.192  0.00  0.00    +0.037 A 
ATOM     15  C   UNL     1     -10.961   6.495  70.098  0.00  0.00    +0.195 A 
ATOM     16  O   UNL     1     -10.562   5.066  69.878  0.00  0.00    -0.287 OA
ATOM     17  C   UNL     1     -11.886   6.851  71.223  0.00  0.00    +0.042 A 
ATOM     18  C   UNL     1     -12.285   8.280  71.442  0.00  0.00    -0.001 A 
ATOM     19  C   UNL     1     -13.083  11.138  71.881  0.00  0.00    +0.004 C 
ATOM     20  C   UNL     1     -10.705  11.500  68.725  0.00  0.00    +0.005 C 
ATOM     21  C   UNL     1     -13.482  12.568  72.101  0.00  0.00    +0.003 C 
ENDBRANCH   1  20
BRANCH   1  22
ATOM     22  C   UNL     1     -10.350  12.454  66.334  0.00  0.00    +0.000 C 
BRANCH  22  23
ATOM     23  C   UNL     1     -11.647  12.848  65.695  0.00  0.00    +0.000 C 
BRANCH  23  24
ATOM     24  C   UNL     1     -11.947  14.296  65.438  0.00  0.00    +0.000 C 
BRANCH  24  25
ATOM     25  C   UNL     1     -10.833  15.246  65.115  0.00  0.00    +0.000 C 
BRANCH  25  26
ATOM     26  C   UNL     1     -10.339  16.205  66.158  0.00  0.00    +0.000 C 
BRANCH  26  27
ATOM     27  C   UNL     1      -8.905  16.164  66.596  0.00  0.00    +0.001 C 
BRANCH  27  28
ATOM     28  C   UNL     1      -8.567  15.909  68.035  0.00  0.00    +0.014 C 
BRANCH  28  29
ATOM     29  C   UNL     1      -7.397  16.604  68.665  0.00  0.00    +0.092 C 
BRANCH  29  30
ATOM     30  S   UNL     1      -6.116  16.758  67.899  0.00  0.00    +0.042 S 
ATOM     31  O   UNL     1      -5.557  15.598  67.130  0.00  0.00    -0.256 OA
BRANCH  30  32
ATOM     32  C   UNL     1      -5.393  18.073  67.903  0.00  0.00    +0.092 C 
BRANCH  32  33
ATOM     33  C   UNL     1      -5.771  19.138  66.917  0.00  0.00    +0.020 C 
BRANCH  33  34
ATOM     34  C   UNL     1      -6.756  20.201  67.301  0.00  0.00    +0.077 C 
BRANCH  34  35
ATOM     35  C   UNL     1      -8.225  19.897  67.303  0.00  0.00    +0.349 C 
ATOM     36  F   UNL     1      -8.209  19.832  68.802  0.00  0.00    -0.195 F 
ATOM     37  F   UNL     1      -8.241  19.963  65.805  0.00  0.00    -0.195 F 
BRANCH  35  38
ATOM     38  C   UNL     1      -9.694  19.593  67.306  0.00  0.00    +0.454 C 
ATOM     39  F   UNL     1      -9.737  19.788  65.819  0.00  0.00    -0.165 F 
ATOM     40  F   UNL     1      -9.652  19.399  68.793  0.00  0.00    -0.165 F 
ATOM     41  F   UNL     1     -11.164  19.290  67.308  0.00  0.00    -0.165 F 
ENDBRANCH  35  38
ENDBRANCH  34  35
ENDBRANCH  33  34
ENDBRANCH  32  33
ENDBRANCH  30  32
ENDBRANCH  29  30
ENDBRANCH  28  29
ENDBRANCH  27  28
ENDBRANCH  26  27
ENDBRANCH  25  26
ENDBRANCH  24  25
ENDBRANCH  23  24
ENDBRANCH  22  23
ENDBRANCH   1  22
TORSDOF 15
ENDMDL
MODEL 3
REMARK VINA RESULT:      -7.5      2.652      4.276
REMARK  Name = 
REMARK  15 active torsions:
REMARK  status: ('A' for Active; 'I' for Inactive)
REMARK    1  A    between atoms: C_14  and  C_15
REMARK    2  A    between atoms: C_15  and  C_16
REMARK    3  A    between atoms: C_16  and  C_17
REMARK    4  A    between atoms: C_17  and  C_18
REMARK    5  A    between atoms: C_18  and  C_19
REMARK    6  A    between atoms: C_19  and  C_20
REMARK    7  A    between atoms: C_20  and  C_21
REMARK    8  A    between atoms: C_21  and  C_22
REMARK    9  A    between atoms: C_22  and  C_23
REMARK   10  A    between atoms: C_23  and  S_24
REMARK   11  A    between atoms: S_24  and  C_26
REMARK   12  A    between atoms: C_26  and  C_27
REMARK   13  A    between atoms: C_27  and  C_28
REMARK   14  A    between atoms: C_28  and  C_29
REMARK   15  A    between atoms: C_29  and  C_32
REMARK                            x       y       z     vdW  Elec       q    Type
REMARK                         _______ _______ _______ _____ _____    ______ ____
ROOT
ATOM      1  C   UNL     1     -10.162  12.548  67.828  0.00  0.00    +0.000 C 
ENDROOT
BRANCH   1  20
ATOM      2  C   UNL     1     -13.849  14.171  72.265  0.00  0.00    +0.003 C 
ATOM      3  C   UNL     1     -12.938  13.654  71.192  0.00  0.00    +0.028 C 
ATOM      4  C   UNL     1     -13.140  15.140  71.157  0.00  0.00    +0.152 C 
ATOM      5  O   UNL     1     -13.993  15.937  72.100  0.00  0.00    -0.223 OA
ATOM      6  C   UNL     1     -12.339  15.690  70.014  0.00  0.00    +0.033 C 
ATOM      7  C   UNL     1     -11.642  14.544  69.342  0.00  0.00    +0.003 C 
ATOM      8  C   UNL     1     -12.013  13.285  70.070  0.00  0.00    +0.003 C 
ATOM      9  C   UNL     1     -11.627  11.852  69.857  0.00  0.00    +0.004 C 
ATOM     10  C   UNL     1     -12.166  10.786  70.765  0.00  0.00    +0.022 C 
ATOM     11  C   UNL     1     -11.781   9.353  70.552  0.00  0.00    -0.026 A 
ATOM     12  C   UNL     1     -10.855   8.984  69.430  0.00  0.00    -0.023 A 
ATOM     13  C   UNL     1     -10.316  10.050  68.522  0.00  0.00    +0.026 C 
ATOM     14  C   UNL     1     -10.469   7.551  69.216  0.00  0.00    +0.037 A 
ATOM     15  C   UNL     1     -11.009   6.485  70.125  0.00  0.00    +0.195 A 
ATOM     16  O   UNL     1     -10.623   5.052  69.911  0.00  0.00    -0.287 OA
ATOM     17  C   UNL     1     -11.934   6.854  71.246  0.00  0.00    +0.042 A 
ATOM     18  C   UNL     1     -12.320   8.287  71.460  0.00  0.00    -0.001 A 
ATOM     19  C   UNL     1     -13.092  11.155  71.887  0.00  0.00    +0.004 C 
ATOM     20  C   UNL     1     -10.702  11.483  68.735  0.00  0.00    +0.005 C 
ATOM     21  C   UNL     1     -13.478  12.589  72.100  0.00  0.00    +0.003 C 
ENDBRANCH   1  20
BRANCH   1  22
ATOM     22  C   UNL     1      -8.797  12.400  67.225  0.00  0.00    +0.000 C 
BRANCH  22  23
ATOM     23  C   UNL     1      -7.641  13.173  67.786  0.00  0.00    +0.000 C 
BRANCH  23  24
ATOM     24  C   UNL     1      -7.576  14.661  67.607  0.00  0.00    +0.000 C 
BRANCH  24  25
ATOM     25  C   UNL     1      -7.873  15.568  68.764  0.00  0.00    +0.000 C 
BRANCH  25  26
ATOM     26  C   UNL     1      -7.107  16.847  68.930  0.00  0.00    +0.000 C 
BRANCH  26  27
ATOM     27  C   UNL     1      -6.517  17.529  67.731  0.00  0.00    +0.001 C 
BRANCH  27  28
ATOM     28  C   UNL     1      -7.292  18.598  67.019  0.00  0.00    +0.014 C 
BRANCH  28  29
ATOM     29  C   UNL     1      -8.639  19.014  67.530  0.00  0.00    +0.092 C 
BRANCH  29  30
ATOM     30  S   UNL     1      -9.877  18.648  66.765  0.00  0.00    +0.042 S 
ATOM     31  O   UNL     1     -10.535  19.660  65.875  0.00  0.00    -0.256 OA
BRANCH  30  32
ATOM     32  C   UNL     1     -10.455  17.270  66.890  0.00  0.00    +0.092 C 
BRANCH  32  33
ATOM     33  C   UNL     1     -10.177  16.242  65.833  0.00  0.00    +0.020 C 
BRANCH  33  34
ATOM     34  C   UNL     1     -11.309  15.645  65.051  0.00  0.00    +0.077 C 
BRANCH  34  35
ATOM     35  C   UNL     1     -11.347  14.167  64.794  0.00  0.00    +0.349 C 
ATOM     36  F   UNL     1     -12.833  14.170  64.998  0.00  0.00    -0.195 F 
ATOM     37  F   UNL     1      -9.861  14.165  64.591  0.00  0.00    -0.195 F 
BRANCH  35  38
ATOM     38  C   UNL     1     -11.385  12.690  64.538  0.00  0.00    +0.454 C 
ATOM     39  F   UNL     1     -10.076  12.783  63.811  0.00  0.00    -0.165 F 
ATOM     40  F   UNL     1     -12.694  12.597  65.265  0.00  0.00    -0.165 F 
ATOM     41  F   UNL     1     -11.423  11.212  64.281  0.00  0.00    -0.165 F 
ENDBRANCH  35  38
ENDBRANCH  34  35
ENDBRANCH  33  34
ENDBRANCH  32  33
ENDBRANCH  30  32
ENDBRANCH  29  30
ENDBRANCH  28  29
ENDBRANCH  27  28
ENDBRANCH  26  27
ENDBRANCH  25  26
ENDBRANCH  24  25
ENDBRANCH  23  24
ENDBRANCH  22  23
ENDBRANCH   1  22
TORSDOF 15
ENDMDL
MODEL 4
REMARK VINA RESULT:      -7.5      2.873      5.044
REMARK  Name = 
REMARK  15 active torsions:
REMARK  status: ('A' for Active; 'I' for Inactive)
REMARK    1  A    between atoms: C_14  and  C_15
REMARK    2  A    between atoms: C_15  and  C_16
REMARK    3  A    between atoms: C_16  and  C_17
REMARK    4  A    between atoms: C_17  and  C_18
REMARK    5  A    between atoms: C_18  and  C_19
REMARK    6  A    between atoms: C_19  and  C_20
REMARK    7  A    between atoms: C_20  and  C_21
REMARK    8  A    between atoms: C_21  and  C_22
REMARK    9  A    between atoms: C_22  and  C_23
REMARK   10  A    between atoms: C_23  and  S_24
REMARK   11  A    between atoms: S_24  and  C_26
REMARK   12  A    between atoms: C_26  and  C_27
REMARK   13  A    between atoms: C_27  and  C_28
REMARK   14  A    between atoms: C_28  and  C_29
REMARK   15  A    between atoms: C_29  and  C_32
REMARK                            x       y       z     vdW  Elec       q    Type
REMARK                         _______ _______ _______ _____ _____    ______ ____
ROOT
ATOM      1  C   UNL     1      -9.434   8.714  65.592  0.00  0.00    +0.000 C 
ENDROOT
BRANCH   1  20
ATOM      2  C   UNL     1     -12.009  14.090  66.219  0.00  0.00    +0.003 C 
ATOM      3  C   UNL     1     -11.393  12.723  66.174  0.00  0.00    +0.028 C 
ATOM      4  C   UNL     1     -11.289  13.482  64.884  0.00  0.00    +0.152 C 
ATOM      5  O   UNL     1     -11.811  14.865  64.630  0.00  0.00    -0.223 OA
ATOM      6  C   UNL     1     -10.572  12.614  63.892  0.00  0.00    +0.033 C 
ATOM      7  C   UNL     1     -10.233  11.319  64.570  0.00  0.00    +0.003 C 
ATOM      8  C   UNL     1     -10.740  11.386  65.980  0.00  0.00    +0.003 C 
ATOM      9  C   UNL     1     -10.692  10.404  67.112  0.00  0.00    +0.004 C 
ATOM     10  C   UNL     1     -11.296  10.757  68.439  0.00  0.00    +0.022 C 
ATOM     11  C   UNL     1     -11.248   9.775  69.571  0.00  0.00    -0.026 A 
ATOM     12  C   UNL     1     -10.595   8.438  69.377  0.00  0.00    -0.023 A 
ATOM     13  C   UNL     1      -9.990   8.085  68.050  0.00  0.00    +0.026 C 
ATOM     14  C   UNL     1     -10.546   7.455  70.508  0.00  0.00    +0.037 A 
ATOM     15  C   UNL     1     -11.151   7.809  71.835  0.00  0.00    +0.195 A 
ATOM     16  O   UNL     1     -11.103   6.826  72.967  0.00  0.00    -0.287 OA
ATOM     17  C   UNL     1     -11.804   9.145  72.029  0.00  0.00    +0.042 A 
ATOM     18  C   UNL     1     -11.853  10.128  70.898  0.00  0.00    -0.001 A 
ATOM     19  C   UNL     1     -11.949  12.094  68.633  0.00  0.00    +0.004 C 
ATOM     20  C   UNL     1     -10.039   9.067  66.918  0.00  0.00    +0.005 C 
ATOM     21  C   UNL     1     -11.998  13.076  67.500  0.00  0.00    +0.003 C 
ENDBRANCH   1  20
BRANCH   1  22
ATOM     22  C   UNL     1      -7.994   8.303  65.509  0.00  0.00    +0.000 C 
BRANCH  22  23
ATOM     23  C   UNL     1      -6.916   9.346  65.492  0.00  0.00    +0.000 C 
BRANCH  23  24
ATOM     24  C   UNL     1      -6.657  10.177  66.713  0.00  0.00    +0.000 C 
BRANCH  24  25
ATOM     25  C   UNL     1      -7.250  11.551  66.825  0.00  0.00    +0.000 C 
BRANCH  25  26
ATOM     26  C   UNL     1      -7.629  12.096  68.170  0.00  0.00    +0.000 C 
BRANCH  26  27
ATOM     27  C   UNL     1      -8.404  13.376  68.269  0.00  0.00    +0.001 C 
BRANCH  27  28
ATOM     28  C   UNL     1      -7.891  14.617  67.599  0.00  0.00    +0.014 C 
BRANCH  28  29
ATOM     29  C   UNL     1      -8.840  15.523  66.872  0.00  0.00    +0.092 C 
BRANCH  29  30
ATOM     30  S   UNL     1      -9.340  16.772  67.534  0.00  0.00    +0.042 S 
ATOM     31  O   UNL     1      -8.554  18.045  67.425  0.00  0.00    -0.256 OA
BRANCH  30  32
ATOM     32  C   UNL     1     -10.626  16.748  68.306  0.00  0.00    +0.092 C 
BRANCH  32  33
ATOM     33  C   UNL     1     -10.721  15.962  69.580  0.00  0.00    +0.020 C 
BRANCH  33  34
ATOM     34  C   UNL     1     -12.064  15.603  70.142  0.00  0.00    +0.077 C 
BRANCH  34  35
ATOM     35  C   UNL     1     -12.227  15.387  71.617  0.00  0.00    +0.349 C 
ATOM     36  F   UNL     1     -11.810  16.806  71.871  0.00  0.00    -0.195 F 
ATOM     37  F   UNL     1     -12.644  13.968  71.363  0.00  0.00    -0.195 F 
BRANCH  35  38
ATOM     38  C   UNL     1     -12.390  15.171  73.093  0.00  0.00    +0.454 C 
ATOM     39  F   UNL     1     -13.067  13.859  72.826  0.00  0.00    -0.165 F 
ATOM     40  F   UNL     1     -11.713  16.482  73.360  0.00  0.00    -0.165 F 
ATOM     41  F   UNL     1     -12.553  14.954  74.568  0.00  0.00    -0.165 F 
ENDBRANCH  35  38
ENDBRANCH  34  35
ENDBRANCH  33  34
ENDBRANCH  32  33
ENDBRANCH  30  32
ENDBRANCH  29  30
ENDBRANCH  28  29
ENDBRANCH  27  28
ENDBRANCH  26  27
ENDBRANCH  25  26
ENDBRANCH  24  25
ENDBRANCH  23  24
ENDBRANCH  22  23
ENDBRANCH   1  22
TORSDOF 15
ENDMDL
MODEL 5
REMARK VINA RESULT:      -7.4      2.674      6.134
REMARK  Name = 
REMARK  15 active torsions:
REMARK  status: ('A' for Active; 'I' for Inactive)
REMARK    1  A    between atoms: C_14  and  C_15
REMARK    2  A    between atoms: C_15  and  C_16
REMARK    3  A    between atoms: C_16  and  C_17
REMARK    4  A    between atoms: C_17  and  C_18
REMARK    5  A    between atoms: C_18  and  C_19
REMARK    6  A    between atoms: C_19  and  C_20
REMARK    7  A    between atoms: C_20  and  C_21
REMARK    8  A    between atoms: C_21  and  C_22
REMARK    9  A    between atoms: C_22  and  C_23
REMARK   10  A    between atoms: C_23  and  S_24
REMARK   11  A    between atoms: S_24  and  C_26
REMARK   12  A    between atoms: C_26  and  C_27
REMARK   13  A    between atoms: C_27  and  C_28
REMARK   14  A    between atoms: C_28  and  C_29
REMARK   15  A    between atoms: C_29  and  C_32
REMARK                            x       y       z     vdW  Elec       q    Type
REMARK                         _______ _______ _______ _____ _____    ______ ____
ROOT
ATOM      1  C   UNL     1      -9.716  10.878  67.321  0.00  0.00    +0.000 C 
ENDROOT
BRANCH   1  20
ATOM      2  C   UNL     1     -11.282   6.282  70.835  0.00  0.00    +0.003 C 
ATOM      3  C   UNL     1     -10.954   7.502  70.026  0.00  0.00    +0.028 C 
ATOM      4  C   UNL     1     -10.327   6.240  69.510  0.00  0.00    +0.152 C 
ATOM      5  O   UNL     1     -10.474   4.873  70.110  0.00  0.00    -0.223 OA
ATOM      6  C   UNL     1      -9.526   6.586  68.289  0.00  0.00    +0.033 C 
ATOM      7  C   UNL     1      -9.658   8.061  68.051  0.00  0.00    +0.003 C 
ATOM      8  C   UNL     1     -10.541   8.627  69.124  0.00  0.00    +0.003 C 
ATOM      9  C   UNL     1     -11.022  10.021  69.397  0.00  0.00    +0.004 C 
ATOM     10  C   UNL     1     -11.916  10.291  70.571  0.00  0.00    +0.022 C 
ATOM     11  C   UNL     1     -12.397  11.684  70.843  0.00  0.00    -0.026 A 
ATOM     12  C   UNL     1     -11.984  12.810  69.941  0.00  0.00    -0.023 A 
ATOM     13  C   UNL     1     -11.090  12.540  68.767  0.00  0.00    +0.026 C 
ATOM     14  C   UNL     1     -12.465  14.204  70.213  0.00  0.00    +0.037 A 
ATOM     15  C   UNL     1     -13.360  14.473  71.388  0.00  0.00    +0.195 A 
ATOM     16  O   UNL     1     -13.840  15.868  71.660  0.00  0.00    -0.287 OA
ATOM     17  C   UNL     1     -13.772  13.348  72.289  0.00  0.00    +0.042 A 
ATOM     18  C   UNL     1     -13.291  11.954  72.017  0.00  0.00    -0.001 A 
ATOM     19  C   UNL     1     -12.329   9.165  71.472  0.00  0.00    +0.004 C 
ATOM     20  C   UNL     1     -10.609  11.147  68.495  0.00  0.00    +0.005 C 
ATOM     21  C   UNL     1     -11.848   7.770  71.199  0.00  0.00    +0.003 C 
ENDBRANCH   1  20
BRANCH   1  22
ATOM     22  C   UNL     1      -8.811  11.957  66.803  0.00  0.00    +0.000 C 
BRANCH  22  23
ATOM     23  C   UNL     1      -7.786  12.574  67.707  0.00  0.00    +0.000 C 
BRANCH  23  24
ATOM     24  C   UNL     1      -7.349  13.992  67.486  0.00  0.00    +0.000 C 
BRANCH  24  25
ATOM     25  C   UNL     1      -7.289  14.946  68.642  0.00  0.00    +0.000 C 
BRANCH  25  26
ATOM     26  C   UNL     1      -6.845  16.362  68.423  0.00  0.00    +0.000 C 
BRANCH  26  27
ATOM     27  C   UNL     1      -6.332  16.788  67.080  0.00  0.00    +0.001 C 
BRANCH  27  28
ATOM     28  C   UNL     1      -7.245  17.485  66.115  0.00  0.00    +0.014 C 
BRANCH  28  29
ATOM     29  C   UNL     1      -8.335  18.380  66.626  0.00  0.00    +0.092 C 
BRANCH  29  30
ATOM     30  S   UNL     1      -9.765  17.933  66.560  0.00  0.00    +0.042 S 
ATOM     31  O   UNL     1     -10.662  18.445  65.473  0.00  0.00    -0.256 OA
BRANCH  30  32
ATOM     32  C   UNL     1     -10.298  16.973  67.582  0.00  0.00    +0.092 C 
BRANCH  32  33
ATOM     33  C   UNL     1     -10.933  15.686  67.142  0.00  0.00    +0.020 C 
BRANCH  33  34
ATOM     34  C   UNL     1     -10.482  15.022  65.876  0.00  0.00    +0.077 C 
BRANCH  34  35
ATOM     35  C   UNL     1     -11.346  13.981  65.226  0.00  0.00    +0.349 C 
ATOM     36  F   UNL     1     -12.446  14.286  66.199  0.00  0.00    -0.195 F 
ATOM     37  F   UNL     1     -10.246  13.676  64.253  0.00  0.00    -0.195 F 
BRANCH  35  38
ATOM     38  C   UNL     1     -12.209  12.940  64.576  0.00  0.00    +0.454 C 
ATOM     39  F   UNL     1     -12.504  12.345  65.921  0.00  0.00    -0.165 F 
ATOM     40  F   UNL     1     -11.914  13.535  63.231  0.00  0.00    -0.165 F 
ATOM     41  F   UNL     1     -13.072  11.899  63.926  0.00  0.00    -0.165 F 
ENDBRANCH  35  38
ENDBRANCH  34  35
ENDBRANCH  33  34
ENDBRANCH  32  33
ENDBRANCH  30  32
ENDBRANCH  29  30
ENDBRANCH  28  29
ENDBRANCH  27  28
ENDBRANCH  26  27
ENDBRANCH  25  26
ENDBRANCH  24  25
ENDBRANCH  23  24
ENDBRANCH  22  23
ENDBRANCH   1  22
TORSDOF 15
ENDMDL
MODEL 6
REMARK VINA RESULT:      -7.3      2.904      5.990
REMARK  Name = 
REMARK  15 active torsions:
REMARK  status: ('A' for Active; 'I' for Inactive)
REMARK    1  A    between atoms: C_14  and  C_15
REMARK    2  A    between atoms: C_15  and  C_16
REMARK    3  A    between atoms: C_16  and  C_17
REMARK    4  A    between atoms: C_17  and  C_18
REMARK    5  A    between atoms: C_18  and  C_19
REMARK    6  A    between atoms: C_19  and  C_20
REMARK    7  A    between atoms: C_20  and  C_21
REMARK    8  A    between atoms: C_21  and  C_22
REMARK    9  A    between atoms: C_22  and  C_23
REMARK   10  A    between atoms: C_23  and  S_24
REMARK   11  A    between atoms: S_24  and  C_26
REMARK   12  A    between atoms: C_26  and  C_27
REMARK   13  A    between atoms: C_27  and  C_28
REMARK   14  A    between atoms: C_28  and  C_29
REMARK   15  A    between atoms: C_29  and  C_32
REMARK                            x       y       z     vdW  Elec       q    Type
REMARK                         _______ _______ _______ _____ _____    ______ ____
ROOT
ATOM      1  C   UNL     1      -9.233   8.242  66.072  0.00  0.00    +0.000 C 
ENDROOT
BRANCH   1  20
ATOM      2  C   UNL     1     -11.225   9.232  71.638  0.00  0.00    +0.003 C 
ATOM      3  C   UNL     1     -10.776   9.086  70.214  0.00  0.00    +0.028 C 
ATOM      4  C   UNL     1     -10.360   7.952  71.104  0.00  0.00    +0.152 C 
ATOM      5  O   UNL     1     -10.662   7.824  72.568  0.00  0.00    -0.223 OA
ATOM      6  C   UNL     1      -9.588   6.970  70.273  0.00  0.00    +0.033 C 
ATOM      7  C   UNL     1      -9.527   7.497  68.870  0.00  0.00    +0.003 C 
ATOM      8  C   UNL     1     -10.262   8.804  68.833  0.00  0.00    +0.003 C 
ATOM      9  C   UNL     1     -10.529   9.775  67.721  0.00  0.00    +0.004 C 
ATOM     10  C   UNL     1     -11.310  11.027  67.989  0.00  0.00    +0.022 C 
ATOM     11  C   UNL     1     -11.577  11.998  66.878  0.00  0.00    -0.026 A 
ATOM     12  C   UNL     1     -11.062  11.716  65.497  0.00  0.00    -0.023 A 
ATOM     13  C   UNL     1     -10.281  10.464  65.229  0.00  0.00    +0.026 C 
ATOM     14  C   UNL     1     -11.329  12.686  64.385  0.00  0.00    +0.037 A 
ATOM     15  C   UNL     1     -12.111  13.939  64.653  0.00  0.00    +0.195 A 
ATOM     16  O   UNL     1     -12.377  14.909  63.541  0.00  0.00    -0.287 OA
ATOM     17  C   UNL     1     -12.625  14.220  66.033  0.00  0.00    +0.042 A 
ATOM     18  C   UNL     1     -12.358  13.250  67.146  0.00  0.00    -0.001 A 
ATOM     19  C   UNL     1     -11.825  11.309  69.370  0.00  0.00    +0.004 C 
ATOM     20  C   UNL     1     -10.014   9.493  66.341  0.00  0.00    +0.005 C 
ATOM     21  C   UNL     1     -11.557  10.337  70.482  0.00  0.00    +0.003 C 
ENDBRANCH   1  20
BRANCH   1  22
ATOM     22  C   UNL     1      -7.748   8.311  65.877  0.00  0.00    +0.000 C 
BRANCH  22  23
ATOM     23  C   UNL     1      -6.974   9.480  66.410  0.00  0.00    +0.000 C 
BRANCH  23  24
ATOM     24  C   UNL     1      -6.523   9.491  67.841  0.00  0.00    +0.000 C 
BRANCH  24  25
ATOM     25  C   UNL     1      -7.164  10.429  68.821  0.00  0.00    +0.000 C 
BRANCH  25  26
ATOM     26  C   UNL     1      -7.083  11.911  68.603  0.00  0.00    +0.000 C 
BRANCH  26  27
ATOM     27  C   UNL     1      -8.167  12.619  67.846  0.00  0.00    +0.001 C 
BRANCH  27  28
ATOM     28  C   UNL     1      -8.047  14.087  67.560  0.00  0.00    +0.014 C 
BRANCH  28  29
ATOM     29  C   UNL     1      -9.005  14.746  66.612  0.00  0.00    +0.092 C 
BRANCH  29  30
ATOM     30  S   UNL     1      -9.439  16.162  66.850  0.00  0.00    +0.042 S 
ATOM     31  O   UNL     1      -9.616  17.097  65.691  0.00  0.00    -0.256 OA
BRANCH  30  32
ATOM     32  C   UNL     1      -9.696  16.643  68.247  0.00  0.00    +0.092 C 
BRANCH  32  33
ATOM     33  C   UNL     1     -10.925  16.193  68.980  0.00  0.00    +0.020 C 
BRANCH  33  34
ATOM     34  C   UNL     1     -10.802  15.271  70.156  0.00  0.00    +0.077 C 
BRANCH  34  35
ATOM     35  C   UNL     1     -12.029  14.844  70.907  0.00  0.00    +0.349 C 
ATOM     36  F   UNL     1     -11.272  14.942  72.199  0.00  0.00    -0.195 F 
ATOM     37  F   UNL     1     -12.786  14.747  69.615  0.00  0.00    -0.195 F 
BRANCH  35  38
ATOM     38  C   UNL     1     -13.256  14.418  71.658  0.00  0.00    +0.454 C 
ATOM     39  F   UNL     1     -12.600  13.109  71.986  0.00  0.00    -0.165 F 
ATOM     40  F   UNL     1     -13.912  15.726  71.330  0.00  0.00    -0.165 F 
ATOM     41  F   UNL     1     -14.483  13.991  72.409  0.00  0.00    -0.165 F 
ENDBRANCH  35  38
ENDBRANCH  34  35
ENDBRANCH  33  34
ENDBRANCH  32  33
ENDBRANCH  30  32
ENDBRANCH  29  30
ENDBRANCH  28  29
ENDBRANCH  27  28
ENDBRANCH  26  27
ENDBRANCH  25  26
ENDBRANCH  24  25
ENDBRANCH  23  24
ENDBRANCH  22  23
ENDBRANCH   1  22
TORSDOF 15
ENDMDL
MODEL 7
REMARK VINA RESULT:      -7.2      3.259      4.809
REMARK  Name = 
REMARK  15 active torsions:
REMARK  status: ('A' for Active; 'I' for Inactive)
REMARK    1  A    between atoms: C_14  and  C_15
REMARK    2  A    between atoms: C_15  and  C_16
REMARK    3  A    between atoms: C_16  and  C_17
REMARK    4  A    between atoms: C_17  and  C_18
REMARK    5  A    between atoms: C_18  and  C_19
REMARK    6  A    between atoms: C_19  and  C_20
REMARK    7  A    between atoms: C_20  and  C_21
REMARK    8  A    between atoms: C_21  and  C_22
REMARK    9  A    between atoms: C_22  and  C_23
REMARK   10  A    between atoms: C_23  and  S_24
REMARK   11  A    between atoms: S_24  and  C_26
REMARK   12  A    between atoms: C_26  and  C_27
REMARK   13  A    between atoms: C_27  and  C_28
REMARK   14  A    between atoms: C_28  and  C_29
REMARK   15  A    between atoms: C_29  and  C_32
REMARK                            x       y       z     vdW  Elec       q    Type
REMARK                         _______ _______ _______ _____ _____    ______ ____
ROOT
ATOM      1  C   UNL     1     -10.064  12.672  67.913  0.00  0.00    +0.000 C 
ENDROOT
BRANCH   1  20
ATOM      2  C   UNL     1     -13.868  14.163  72.298  0.00  0.00    +0.003 C 
ATOM      3  C   UNL     1     -12.929  13.678  71.234  0.00  0.00    +0.028 C 
ATOM      4  C   UNL     1     -13.127  15.165  71.242  0.00  0.00    +0.152 C 
ATOM      5  O   UNL     1     -14.003  15.934  72.186  0.00  0.00    -0.223 OA
ATOM      6  C   UNL     1     -12.293  15.749  70.139  0.00  0.00    +0.033 C 
ATOM      7  C   UNL     1     -11.581  14.623  69.450  0.00  0.00    +0.003 C 
ATOM      8  C   UNL     1     -11.974  13.343  70.126  0.00  0.00    +0.003 C 
ATOM      9  C   UNL     1     -11.586  11.916  69.878  0.00  0.00    +0.004 C 
ATOM     10  C   UNL     1     -12.152  10.823  70.736  0.00  0.00    +0.022 C 
ATOM     11  C   UNL     1     -11.765   9.396  70.487  0.00  0.00    -0.026 A 
ATOM     12  C   UNL     1     -10.809   9.061  69.380  0.00  0.00    -0.023 A 
ATOM     13  C   UNL     1     -10.243  10.153  68.522  0.00  0.00    +0.026 C 
ATOM     14  C   UNL     1     -10.421   7.634  69.131  0.00  0.00    +0.037 A 
ATOM     15  C   UNL     1     -10.988   6.541  69.989  0.00  0.00    +0.195 A 
ATOM     16  O   UNL     1     -10.599   5.114  69.740  0.00  0.00    -0.287 OA
ATOM     17  C   UNL     1     -11.942   6.877  71.096  0.00  0.00    +0.042 A 
ATOM     18  C   UNL     1     -12.331   8.304  71.345  0.00  0.00    -0.001 A 
ATOM     19  C   UNL     1     -13.108  11.158  71.843  0.00  0.00    +0.004 C 
ATOM     20  C   UNL     1     -10.631  11.580  68.771  0.00  0.00    +0.005 C 
ATOM     21  C   UNL     1     -13.496  12.586  72.092  0.00  0.00    +0.003 C 
ENDBRANCH   1  20
BRANCH   1  22
ATOM     22  C   UNL     1      -8.580  12.867  67.830  0.00  0.00    +0.000 C 
BRANCH  22  23
ATOM     23  C   UNL     1      -7.905  13.876  68.711  0.00  0.00    +0.000 C 
BRANCH  23  24
ATOM     24  C   UNL     1      -6.933  14.856  68.123  0.00  0.00    +0.000 C 
BRANCH  24  25
ATOM     25  C   UNL     1      -7.376  16.254  67.810  0.00  0.00    +0.000 C 
BRANCH  25  26
ATOM     26  C   UNL     1      -8.805  16.523  67.441  0.00  0.00    +0.000 C 
BRANCH  26  27
ATOM     27  C   UNL     1      -9.317  16.132  66.087  0.00  0.00    +0.001 C 
BRANCH  27  28
ATOM     28  C   UNL     1     -10.760  15.764  65.907  0.00  0.00    +0.014 C 
BRANCH  28  29
ATOM     29  C   UNL     1     -11.176  14.905  64.750  0.00  0.00    +0.092 C 
BRANCH  29  30
ATOM     30  S   UNL     1     -12.143  13.778  64.963  0.00  0.00    +0.042 S 
ATOM     31  O   UNL     1     -13.555  14.068  65.375  0.00  0.00    -0.256 OA
BRANCH  30  32
ATOM     32  C   UNL     1     -11.696  12.360  64.764  0.00  0.00    +0.092 C 
BRANCH  32  33
ATOM     33  C   UNL     1     -10.467  12.067  63.954  0.00  0.00    +0.020 C 
BRANCH  33  34
ATOM     34  C   UNL     1     -10.055  10.648  63.702  0.00  0.00    +0.077 C 
BRANCH  34  35
ATOM     35  C   UNL     1      -9.173   9.937  64.685  0.00  0.00    +0.349 C 
ATOM     36  F   UNL     1      -7.960  10.409  63.939  0.00  0.00    -0.195 F 
ATOM     37  F   UNL     1     -10.386   9.465  65.432  0.00  0.00    -0.195 F 
BRANCH  35  38
ATOM     38  C   UNL     1      -8.291   9.225  65.669  0.00  0.00    +0.454 C 
ATOM     39  F   UNL     1      -9.071   7.962  65.455  0.00  0.00    -0.165 F 
ATOM     40  F   UNL     1      -7.511  10.489  65.883  0.00  0.00    -0.165 F 
ATOM     41  F   UNL     1      -7.409   8.514  66.652  0.00  0.00    -0.165 F 
ENDBRANCH  35  38
ENDBRANCH  34  35
ENDBRANCH  33  34
ENDBRANCH  32  33
ENDBRANCH  30  32
ENDBRANCH  29  30
ENDBRANCH  28  29
ENDBRANCH  27  28
ENDBRANCH  26  27
ENDBRANCH  25  26
ENDBRANCH  24  25
ENDBRANCH  23  24
ENDBRANCH  22  23
ENDBRANCH   1  22
TORSDOF 15
ENDMDL
MODEL 8
REMARK VINA RESULT:      -7.1      1.392      2.274
REMARK  Name = 
REMARK  15 active torsions:
REMARK  status: ('A' for Active; 'I' for Inactive)
REMARK    1  A    between atoms: C_14  and  C_15
REMARK    2  A    between atoms: C_15  and  C_16
REMARK    3  A    between atoms: C_16  and  C_17
REMARK    4  A    between atoms: C_17  and  C_18
REMARK    5  A    between atoms: C_18  and  C_19
REMARK    6  A    between atoms: C_19  and  C_20
REMARK    7  A    between atoms: C_20  and  C_21
REMARK    8  A    between atoms: C_21  and  C_22
REMARK    9  A    between atoms: C_22  and  C_23
REMARK   10  A    between atoms: C_23  and  S_24
REMARK   11  A    between atoms: S_24  and  C_26
REMARK   12  A    between atoms: C_26  and  C_27
REMARK   13  A    between atoms: C_27  and  C_28
REMARK   14  A    between atoms: C_28  and  C_29
REMARK   15  A    between atoms: C_29  and  C_32
REMARK                            x       y       z     vdW  Elec       q    Type
REMARK                         _______ _______ _______ _____ _____    ______ ____
ROOT
ATOM      1  C   UNL     1     -10.118  12.321  68.000  0.00  0.00    +0.000 C 
ENDROOT
BRANCH   1  20
ATOM      2  C   UNL     1     -13.960  14.089  72.247  0.00  0.00    +0.003 C 
ATOM      3  C   UNL     1     -13.012  13.537  71.225  0.00  0.00    +0.028 C 
ATOM      4  C   UNL     1     -13.212  15.021  71.133  0.00  0.00    +0.152 C 
ATOM      5  O   UNL     1     -14.097  15.848  72.017  0.00  0.00    -0.223 OA
ATOM      6  C   UNL     1     -12.370  15.533  70.001  0.00  0.00    +0.033 C 
ATOM      7  C   UNL     1     -11.651  14.365  69.393  0.00  0.00    +0.003 C 
ATOM      8  C   UNL     1     -12.047  13.132  70.149  0.00  0.00    +0.003 C 
ATOM      9  C   UNL     1     -11.654  11.692  69.999  0.00  0.00    +0.004 C 
ATOM     10  C   UNL     1     -12.226  10.657  70.922  0.00  0.00    +0.022 C 
ATOM     11  C   UNL     1     -11.833   9.218  70.771  0.00  0.00    -0.026 A 
ATOM     12  C   UNL     1     -10.869   8.813  69.696  0.00  0.00    -0.023 A 
ATOM     13  C   UNL     1     -10.297   9.847  68.773  0.00  0.00    +0.026 C 
ATOM     14  C   UNL     1     -10.476   7.373  69.544  0.00  0.00    +0.037 A 
ATOM     15  C   UNL     1     -11.048   6.338  70.468  0.00  0.00    +0.195 A 
ATOM     16  O   UNL     1     -10.654   4.899  70.317  0.00  0.00    -0.287 OA
ATOM     17  C   UNL     1     -12.012   6.744  71.543  0.00  0.00    +0.042 A 
ATOM     18  C   UNL     1     -12.405   8.183  71.694  0.00  0.00    -0.001 A 
ATOM     19  C   UNL     1     -13.191  11.063  71.997  0.00  0.00    +0.004 C 
ATOM     20  C   UNL     1     -10.690  11.287  68.923  0.00  0.00    +0.005 C 
ATOM     21  C   UNL     1     -13.583  12.503  72.148  0.00  0.00    +0.003 C 
ENDBRANCH   1  20
BRANCH   1  22
ATOM     22  C   UNL     1      -8.727  12.161  67.462  0.00  0.00    +0.000 C 
BRANCH  22  23
ATOM     23  C   UNL     1      -8.517  11.720  66.045  0.00  0.00    +0.000 C 
BRANCH  23  24
ATOM     24  C   UNL     1      -9.459  10.736  65.417  0.00  0.00    +0.000 C 
BRANCH  24  25
ATOM     25  C   UNL     1     -10.671  11.224  64.680  0.00  0.00    +0.000 C 
BRANCH  25  26
ATOM     26  C   UNL     1     -10.765  12.661  64.261  0.00  0.00    +0.000 C 
BRANCH  26  27
ATOM     27  C   UNL     1     -11.780  13.563  64.898  0.00  0.00    +0.001 C 
BRANCH  27  28
ATOM     28  C   UNL     1     -11.330  14.740  65.712  0.00  0.00    +0.014 C 
BRANCH  28  29
ATOM     29  C   UNL     1     -10.667  15.907  65.041  0.00  0.00    +0.092 C 
BRANCH  29  30
ATOM     30  S   UNL     1     -10.423  17.173  65.808  0.00  0.00    +0.042 S 
ATOM     31  O   UNL     1     -10.875  18.488  65.247  0.00  0.00    -0.256 OA
BRANCH  30  32
ATOM     32  C   UNL     1      -9.726  17.124  67.135  0.00  0.00    +0.092 C 
BRANCH  32  33
ATOM     33  C   UNL     1     -10.263  17.911  68.293  0.00  0.00    +0.020 C 
BRANCH  33  34
ATOM     34  C   UNL     1      -9.585  19.180  68.716  0.00  0.00    +0.077 C 
BRANCH  34  35
ATOM     35  C   UNL     1      -8.504  19.774  67.862  0.00  0.00    +0.349 C 
ATOM     36  F   UNL     1      -7.476  18.975  68.609  0.00  0.00    -0.195 F 
ATOM     37  F   UNL     1      -9.531  20.573  67.116  0.00  0.00    -0.195 F 
BRANCH  35  38
ATOM     38  C   UNL     1      -7.422  20.367  67.008  0.00  0.00    +0.454 C 
ATOM     39  F   UNL     1      -6.718  20.856  68.240  0.00  0.00    -0.165 F 
ATOM     40  F   UNL     1      -8.126  19.878  65.777  0.00  0.00    -0.165 F 
ATOM     41  F   UNL     1      -6.341  20.960  66.155  0.00  0.00    -0.165 F 
ENDBRANCH  35  38
ENDBRANCH  34  35
ENDBRANCH  33  34
ENDBRANCH  32  33
ENDBRANCH  30  32
ENDBRANCH  29  30
ENDBRANCH  28  29
ENDBRANCH  27  28
ENDBRANCH  26  27
ENDBRANCH  25  26
ENDBRANCH  24  25
ENDBRANCH  23  24
ENDBRANCH  22  23
ENDBRANCH   1  22
TORSDOF 15
ENDMDL
MODEL 9
REMARK VINA RESULT:      -7.1      2.350      5.872
REMARK  Name = 
REMARK  15 active torsions:
REMARK  status: ('A' for Active; 'I' for Inactive)
REMARK    1  A    between atoms: C_14  and  C_15
REMARK    2  A    between atoms: C_15  and  C_16
REMARK    3  A    between atoms: C_16  and  C_17
REMARK    4  A    between atoms: C_17  and  C_18
REMARK    5  A    between atoms: C_18  and  C_19
REMARK    6  A    between atoms: C_19  and  C_20
REMARK    7  A    between atoms: C_20  and  C_21
REMARK    8  A    between atoms: C_21  and  C_22
REMARK    9  A    between atoms: C_22  and  C_23
REMARK   10  A    between atoms: C_23  and  S_24
REMARK   11  A    between atoms: S_24  and  C_26
REMARK   12  A    between atoms: C_26  and  C_27
REMARK   13  A    between atoms: C_27  and  C_28
REMARK   14  A    between atoms: C_28  and  C_29
REMARK   15  A    between atoms: C_29  and  C_32
REMARK                            x       y       z     vdW  Elec       q    Type
REMARK                         _______ _______ _______ _____ _____    ______ ____
ROOT
ATOM      1  C   UNL     1     -12.074   8.763  70.793  0.00  0.00    +0.000 C 
ENDROOT
BRANCH   1  20
ATOM      2  C   UNL     1      -9.795  10.652  65.581  0.00  0.00    +0.003 C 
ATOM      3  C   UNL     1     -10.391  10.292  66.910  0.00  0.00    +0.028 C 
ATOM      4  C   UNL     1      -9.873   9.117  66.134  0.00  0.00    +0.152 C 
ATOM      5  O   UNL     1      -9.227   9.168  64.781  0.00  0.00    -0.223 OA
ATOM      6  C   UNL     1     -10.114   7.880  66.949  0.00  0.00    +0.033 C 
ATOM      7  C   UNL     1     -10.781   8.292  68.229  0.00  0.00    +0.003 C 
ATOM      8  C   UNL     1     -10.952   9.782  68.204  0.00  0.00    +0.003 C 
ATOM      9  C   UNL     1     -11.546  10.741  69.193  0.00  0.00    +0.004 C 
ATOM     10  C   UNL     1     -11.579  12.209  68.888  0.00  0.00    +0.022 C 
ATOM     11  C   UNL     1     -12.172  13.168  69.876  0.00  0.00    -0.026 A 
ATOM     12  C   UNL     1     -12.734  12.658  71.171  0.00  0.00    -0.023 A 
ATOM     13  C   UNL     1     -12.701  11.190  71.476  0.00  0.00    +0.026 C 
ATOM     14  C   UNL     1     -13.328  13.616  72.160  0.00  0.00    +0.037 A 
ATOM     15  C   UNL     1     -13.361  15.085  71.855  0.00  0.00    +0.195 A 
ATOM     16  O   UNL     1     -13.955  16.043  72.844  0.00  0.00    -0.287 OA
ATOM     17  C   UNL     1     -12.799  15.594  70.561  0.00  0.00    +0.042 A 
ATOM     18  C   UNL     1     -12.206  14.636  69.572  0.00  0.00    -0.001 A 
ATOM     19  C   UNL     1     -11.017  12.719  67.593  0.00  0.00    +0.004 C 
ATOM     20  C   UNL     1     -12.107  10.231  70.487  0.00  0.00    +0.005 C 
ATOM     21  C   UNL     1     -10.423  11.760  66.604  0.00  0.00    +0.003 C 
ENDBRANCH   1  20
BRANCH   1  22
ATOM     22  C   UNL     1     -11.351   8.265  72.008  0.00  0.00    +0.000 C 
BRANCH  22  23
ATOM     23  C   UNL     1      -9.874   8.488  72.147  0.00  0.00    +0.000 C 
BRANCH  23  24
ATOM     24  C   UNL     1      -8.911   7.642  71.368  0.00  0.00    +0.000 C 
BRANCH  24  25
ATOM     25  C   UNL     1      -7.984   8.280  70.377  0.00  0.00    +0.000 C 
BRANCH  25  26
ATOM     26  C   UNL     1      -7.930   9.775  70.256  0.00  0.00    +0.000 C 
BRANCH  26  27
ATOM     27  C   UNL     1      -7.236  10.408  69.087  0.00  0.00    +0.001 C 
BRANCH  27  28
ATOM     28  C   UNL     1      -7.616  11.791  68.648  0.00  0.00    +0.014 C 
BRANCH  28  29
ATOM     29  C   UNL     1      -6.559  12.843  68.486  0.00  0.00    +0.092 C 
BRANCH  29  30
ATOM     30  S   UNL     1      -6.912  14.292  68.648  0.00  0.00    +0.042 S 
ATOM     31  O   UNL     1      -6.262  15.106  69.727  0.00  0.00    -0.256 OA
BRANCH  30  32
ATOM     32  C   UNL     1      -7.916  14.926  67.731  0.00  0.00    +0.092 C 
BRANCH  32  33
ATOM     33  C   UNL     1      -9.009  15.786  68.295  0.00  0.00    +0.020 C 
BRANCH  33  34
ATOM     34  C   UNL     1      -9.916  16.545  67.375  0.00  0.00    +0.077 C 
BRANCH  34  35
ATOM     35  C   UNL     1      -9.930  18.045  67.403  0.00  0.00    +0.349 C 
ATOM     36  F   UNL     1      -9.694  18.019  68.884  0.00  0.00    -0.195 F 
ATOM     37  F   UNL     1     -10.165  18.071  65.921  0.00  0.00    -0.195 F 
BRANCH  35  38
ATOM     38  C   UNL     1      -9.943  19.545  67.431  0.00  0.00    +0.454 C 
ATOM     39  F   UNL     1     -10.957  19.557  66.325  0.00  0.00    -0.165 F 
ATOM     40  F   UNL     1      -8.929  19.533  68.536  0.00  0.00    -0.165 F 
ATOM     41  F   UNL     1      -9.956  21.045  67.459  0.00  0.00    -0.165 F 
ENDBRANCH  35  38
ENDBRANCH  34  35
ENDBRANCH  33  34
ENDBRANCH  32  33
ENDBRANCH  30  32
ENDBRANCH  29  30
ENDBRANCH  28  29
ENDBRANCH  27  28
ENDBRANCH  26  27
ENDBRANCH  25  26
ENDBRANCH  24  25
ENDBRANCH  23  24
ENDBRANCH  22  23
ENDBRANCH   1  22
TORSDOF 15
ENDMDL
