MODEL 1
REMARK VINA RESULT:      -7.1      0.000      0.000
REMARK  Name = 
REMARK  5 active torsions:
REMARK  status: ('A' for Active; 'I' for Inactive)
REMARK    1  A    between atoms: C_2  and  C_3
REMARK    2  A    between atoms: C_3  and  C_4
REMARK    3  A    between atoms: C_4  and  C_5
REMARK    4  A    between atoms: C_4  and  N_10
REMARK    5  A    between atoms: C_12  and  C_13
REMARK                            x       y       z     vdW  Elec       q    Type
REMARK                         _______ _______ _______ _____ _____    ______ ____
ROOT
ATOM      1  N   UNL     1     -10.918  13.723  66.731  0.00  0.00    -0.250 N 
ATOM      2  N   UNL     1      -9.895  14.136  67.447  0.00  0.00    -0.168 NA
ATOM      3  C   UNL     1     -10.234  14.052  68.749  0.00  0.00    +0.123 A 
ATOM      4  C   UNL     1     -11.505  13.489  68.786  0.00  0.00    +0.057 A 
ATOM      5  C   UNL     1     -11.672  12.978  67.503  0.00  0.00    +0.098 A 
ENDROOT
BRANCH   4   6
ATOM      6  C   UNL     1     -12.064  12.985  70.028  0.00  0.00    +0.089 A 
ATOM      7  C   UNL     1     -12.656  13.844  70.912  0.00  0.00    +0.055 A 
ATOM      8  C   UNL     1     -13.310  13.333  72.021  0.00  0.00    +0.166 A 
ATOM      9  N   UNL     1     -13.871  14.371  72.687  0.00  0.00    -0.225 NA
ATOM     10  C   UNL     1     -13.630  15.486  71.980  0.00  0.00    +0.101 A 
ATOM     11  N   UNL     1     -13.457  11.992  72.151  0.00  0.00    -0.205 NA
ATOM     12  C   UNL     1     -12.828  11.184  71.263  0.00  0.00    +0.200 A 
ATOM     13  C   UNL     1     -12.916  15.183  70.855  0.00  0.00    +0.025 A 
ATOM     14  N   UNL     1     -12.002  11.676  70.339  0.00  0.00    -0.224 NA
ENDBRANCH   4   6
BRANCH   1  15
ATOM     15  C   UNL     1     -10.674  13.503  65.195  0.00  0.00    +0.120 C 
BRANCH  15  16
ATOM     16  C   UNL     1     -11.437  12.044  65.172  0.00  0.00    +0.024 C 
ATOM     17  C   UNL     1     -10.285  11.070  65.365  0.00  0.00    +0.002 C 
ATOM     18  C   UNL     1      -9.509  11.286  64.075  0.00  0.00    +0.000 C 
ATOM     19  C   UNL     1     -10.631  11.212  63.046  0.00  0.00    +0.000 C 
ATOM     20  C   UNL     1     -11.786  11.936  63.717  0.00  0.00    +0.002 C 
ENDBRANCH  15  16
BRANCH  15  21
ATOM     21  C   UNL     1     -12.042  14.316  64.769  0.00  0.00    +0.130 C 
BRANCH  21  23
ATOM     22  N   UNL     1     -11.220  16.771  64.306  0.00  0.00    -0.196 NA
ATOM     23  C   UNL     1     -11.527  15.690  64.613  0.00  0.00    +0.075 C 
ENDBRANCH  21  23
ENDBRANCH  15  21
ENDBRANCH   1  15
TORSDOF 5
ENDMDL
MODEL 2
REMARK VINA RESULT:      -6.9      3.037      5.265
REMARK  Name = 
REMARK  5 active torsions:
REMARK  status: ('A' for Active; 'I' for Inactive)
REMARK    1  A    between atoms: C_2  and  C_3
REMARK    2  A    between atoms: C_3  and  C_4
REMARK    3  A    between atoms: C_4  and  C_5
REMARK    4  A    between atoms: C_4  and  N_10
REMARK    5  A    between atoms: C_12  and  C_13
REMARK                            x       y       z     vdW  Elec       q    Type
REMARK                         _______ _______ _______ _____ _____    ______ ____
ROOT
ATOM      1  N   UNL     1     -10.067  16.180  68.134  0.00  0.00    -0.250 N 
ATOM      2  N   UNL     1     -10.920  15.603  67.316  0.00  0.00    -0.168 NA
ATOM      3  C   UNL     1     -11.804  14.907  68.058  0.00  0.00    +0.123 A 
ATOM      4  C   UNL     1     -11.483  15.159  69.388  0.00  0.00    +0.057 A 
ATOM      5  C   UNL     1     -10.632  16.257  69.314  0.00  0.00    +0.098 A 
ENDROOT
BRANCH   4   6
ATOM      6  C   UNL     1     -12.398  14.808  70.458  0.00  0.00    +0.089 A 
ATOM      7  C   UNL     1     -12.604  13.497  70.784  0.00  0.00    +0.055 A 
ATOM      8  C   UNL     1     -13.367  13.184  71.897  0.00  0.00    +0.166 A 
ATOM      9  N   UNL     1     -13.353  11.838  72.045  0.00  0.00    -0.225 NA
ATOM     10  C   UNL     1     -12.554  11.331  71.094  0.00  0.00    +0.101 A 
ATOM     11  N   UNL     1     -13.796  14.177  72.713  0.00  0.00    -0.205 NA
ATOM     12  C   UNL     1     -13.591  15.461  72.331  0.00  0.00    +0.200 A 
ATOM     13  C   UNL     1     -12.043  12.340  70.325  0.00  0.00    +0.025 A 
ATOM     14  N   UNL     1     -13.069  15.757  71.140  0.00  0.00    -0.224 NA
ENDBRANCH   4   6
BRANCH   1  15
ATOM     15  C   UNL     1      -9.087  17.240  67.513  0.00  0.00    +0.120 C 
BRANCH  15  16
ATOM     16  C   UNL     1      -9.731  18.495  68.363  0.00  0.00    +0.024 C 
ATOM     17  C   UNL     1     -10.571  19.204  67.312  0.00  0.00    +0.002 C 
ATOM     18  C   UNL     1      -9.487  19.701  66.368  0.00  0.00    +0.000 C 
ATOM     19  C   UNL     1      -8.507  20.324  67.354  0.00  0.00    +0.000 C 
ATOM     20  C   UNL     1      -8.522  19.366  68.534  0.00  0.00    +0.002 C 
ENDBRANCH  15  16
BRANCH  15  21
ATOM     21  C   UNL     1      -7.924  16.964  68.647  0.00  0.00    +0.130 C 
BRANCH  21  23
ATOM     22  N   UNL     1      -6.566  15.174  67.281  0.00  0.00    -0.196 NA
ATOM     23  C   UNL     1      -7.110  15.929  67.981  0.00  0.00    +0.075 C 
ENDBRANCH  21  23
ENDBRANCH  15  21
ENDBRANCH   1  15
TORSDOF 5
ENDMDL
MODEL 3
REMARK VINA RESULT:      -6.6      2.037      6.790
REMARK  Name = 
REMARK  5 active torsions:
REMARK  status: ('A' for Active; 'I' for Inactive)
REMARK    1  A    between atoms: C_2  and  C_3
REMARK    2  A    between atoms: C_3  and  C_4
REMARK    3  A    between atoms: C_4  and  C_5
REMARK    4  A    between atoms: C_4  and  N_10
REMARK    5  A    between atoms: C_12  and  C_13
REMARK                            x       y       z     vdW  Elec       q    Type
REMARK                         _______ _______ _______ _____ _____    ______ ____
ROOT
ATOM      1  N   UNL     1     -12.218  13.699  69.371  0.00  0.00    -0.250 N 
ATOM      2  N   UNL     1     -11.984  12.579  70.021  0.00  0.00    -0.168 NA
ATOM      3  C   UNL     1     -11.567  11.658  69.130  0.00  0.00    +0.123 A 
ATOM      4  C   UNL     1     -11.488  12.308  67.903  0.00  0.00    +0.057 A 
ATOM      5  C   UNL     1     -11.548  13.655  68.245  0.00  0.00    +0.098 A 
ENDROOT
BRANCH   4   6
ATOM      6  C   UNL     1     -10.799  11.702  66.778  0.00  0.00    +0.089 A 
ATOM      7  C   UNL     1     -11.284  11.862  65.510  0.00  0.00    +0.055 A 
ATOM      8  C   UNL     1     -10.541  11.401  64.435  0.00  0.00    +0.166 A 
ATOM      9  N   UNL     1     -11.195  11.747  63.300  0.00  0.00    -0.225 NA
ATOM     10  C   UNL     1     -12.277  12.458  63.653  0.00  0.00    +0.101 A 
ATOM     11  N   UNL     1      -9.295  10.910  64.645  0.00  0.00    -0.205 NA
ATOM     12  C   UNL     1      -8.873  10.746  65.922  0.00  0.00    +0.200 A 
ATOM     13  C   UNL     1     -12.334  12.580  65.013  0.00  0.00    +0.025 A 
ATOM     14  N   UNL     1      -9.685  10.966  66.957  0.00  0.00    -0.224 NA
ENDBRANCH   4   6
BRANCH   1  15
ATOM     15  C   UNL     1     -12.483  14.984  70.234  0.00  0.00    +0.120 C 
BRANCH  15  16
ATOM     16  C   UNL     1     -12.459  14.162  71.661  0.00  0.00    +0.024 C 
ATOM     17  C   UNL     1     -13.937  14.070  72.010  0.00  0.00    +0.002 C 
ATOM     18  C   UNL     1     -14.268  15.536  72.245  0.00  0.00    +0.000 C 
ATOM     19  C   UNL     1     -13.119  15.950  73.156  0.00  0.00    +0.000 C 
ATOM     20  C   UNL     1     -11.918  15.217  72.581  0.00  0.00    +0.002 C 
ENDBRANCH  15  16
BRANCH  15  21
ATOM     21  C   UNL     1     -10.883  15.360  70.332  0.00  0.00    +0.130 C 
BRANCH  21  23
ATOM     22  N   UNL     1     -10.859  17.341  68.602  0.00  0.00    -0.196 NA
ATOM     23  C   UNL     1     -10.806  16.532  69.439  0.00  0.00    +0.075 C 
ENDBRANCH  21  23
ENDBRANCH  15  21
ENDBRANCH   1  15
TORSDOF 5
ENDMDL
MODEL 4
REMARK VINA RESULT:      -6.4      3.184      5.649
REMARK  Name = 
REMARK  5 active torsions:
REMARK  status: ('A' for Active; 'I' for Inactive)
REMARK    1  A    between atoms: C_2  and  C_3
REMARK    2  A    between atoms: C_3  and  C_4
REMARK    3  A    between atoms: C_4  and  C_5
REMARK    4  A    between atoms: C_4  and  N_10
REMARK    5  A    between atoms: C_12  and  C_13
REMARK                            x       y       z     vdW  Elec       q    Type
REMARK                         _______ _______ _______ _____ _____    ______ ____
ROOT
ATOM      1  N   UNL     1     -11.339  14.287  67.233  0.00  0.00    -0.250 N 
ATOM      2  N   UNL     1     -12.104  14.625  68.248  0.00  0.00    -0.168 NA
ATOM      3  C   UNL     1     -11.665  15.807  68.725  0.00  0.00    +0.123 A 
ATOM      4  C   UNL     1     -10.630  16.207  67.888  0.00  0.00    +0.057 A 
ATOM      5  C   UNL     1     -10.768  15.376  66.780  0.00  0.00    +0.098 A 
ENDROOT
BRANCH   4   6
ATOM      6  C   UNL     1     -10.118  17.565  67.927  0.00  0.00    +0.089 A 
ATOM      7  C   UNL     1      -8.841  17.806  68.351  0.00  0.00    +0.055 A 
ATOM      8  C   UNL     1      -8.320  19.085  68.247  0.00  0.00    +0.166 A 
ATOM      9  N   UNL     1      -7.029  19.042  68.657  0.00  0.00    -0.225 NA
ATOM     10  C   UNL     1      -6.735  17.764  68.944  0.00  0.00    +0.101 A 
ATOM     11  N   UNL     1      -9.035  20.049  67.619  0.00  0.00    -0.205 NA
ATOM     12  C   UNL     1     -10.306  19.768  67.243  0.00  0.00    +0.200 A 
ATOM     13  C   UNL     1      -7.827  16.971  68.723  0.00  0.00    +0.025 A 
ATOM     14  N   UNL     1     -10.886  18.610  67.561  0.00  0.00    -0.224 NA
ENDBRANCH   4   6
BRANCH   1  15
ATOM     15  C   UNL     1     -11.805  13.064  66.364  0.00  0.00    +0.120 C 
BRANCH  15  16
ATOM     16  C   UNL     1     -10.904  13.508  65.060  0.00  0.00    +0.024 C 
ATOM     17  C   UNL     1     -11.965  13.752  63.997  0.00  0.00    +0.002 C 
ATOM     18  C   UNL     1     -12.514  12.346  63.812  0.00  0.00    +0.000 C 
ATOM     19  C   UNL     1     -11.223  11.547  63.674  0.00  0.00    +0.000 C 
ATOM     20  C   UNL     1     -10.288  12.191  64.685  0.00  0.00    +0.002 C 
ENDBRANCH  15  16
BRANCH  15  21
ATOM     21  C   UNL     1     -10.620  12.080  66.949  0.00  0.00    +0.130 C 
BRANCH  21  23
ATOM     22  N   UNL     1     -12.093  10.839  68.740  0.00  0.00    -0.196 NA
ATOM     23  C   UNL     1     -11.362  11.303  67.961  0.00  0.00    +0.075 C 
ENDBRANCH  21  23
ENDBRANCH  15  21
ENDBRANCH   1  15
TORSDOF 5
ENDMDL
MODEL 5
REMARK VINA RESULT:      -6.4      3.109      4.407
REMARK  Name = 
REMARK  5 active torsions:
REMARK  status: ('A' for Active; 'I' for Inactive)
REMARK    1  A    between atoms: C_2  and  C_3
REMARK    2  A    between atoms: C_3  and  C_4
REMARK    3  A    between atoms: C_4  and  C_5
REMARK    4  A    between atoms: C_4  and  N_10
REMARK    5  A    between atoms: C_12  and  C_13
REMARK                            x       y       z     vdW  Elec       q    Type
REMARK                         _______ _______ _______ _____ _____    ______ ____
ROOT
ATOM      1  N   UNL     1     -10.038  16.250  68.331  0.00  0.00    -0.250 N 
ATOM      2  N   UNL     1     -10.914  15.795  67.462  0.00  0.00    -0.168 NA
ATOM      3  C   UNL     1     -11.831  15.070  68.133  0.00  0.00    +0.123 A 
ATOM      4  C   UNL     1     -11.502  15.174  69.480  0.00  0.00    +0.057 A 
ATOM      5  C   UNL     1     -10.603  16.236  69.514  0.00  0.00    +0.098 A 
ENDROOT
BRANCH   4   6
ATOM      6  C   UNL     1     -12.436  14.762  70.512  0.00  0.00    +0.089 A 
ATOM      7  C   UNL     1     -12.607  13.435  70.793  0.00  0.00    +0.055 A 
ATOM      8  C   UNL     1     -13.391  13.064  71.873  0.00  0.00    +0.166 A 
ATOM      9  N   UNL     1     -13.337  11.715  71.982  0.00  0.00    -0.225 NA
ATOM     10  C   UNL     1     -12.494  11.264  71.040  0.00  0.00    +0.101 A 
ATOM     11  N   UNL     1     -13.876  14.018  72.706  0.00  0.00    -0.205 NA
ATOM     12  C   UNL     1     -13.703  15.318  72.368  0.00  0.00    +0.200 A 
ATOM     13  C   UNL     1     -11.995  12.312  70.316  0.00  0.00    +0.025 A 
ATOM     14  N   UNL     1     -13.157  15.668  71.202  0.00  0.00    -0.224 NA
ENDBRANCH   4   6
BRANCH   1  15
ATOM     15  C   UNL     1      -9.010  17.320  67.816  0.00  0.00    +0.120 C 
BRANCH  15  16
ATOM     16  C   UNL     1      -8.344  16.304  66.704  0.00  0.00    +0.024 C 
ATOM     17  C   UNL     1      -7.470  15.405  67.566  0.00  0.00    +0.002 C 
ATOM     18  C   UNL     1      -6.436  16.403  68.064  0.00  0.00    +0.000 C 
ATOM     19  C   UNL     1      -6.058  17.101  66.762  0.00  0.00    +0.000 C 
ATOM     20  C   UNL     1      -7.380  17.230  66.023  0.00  0.00    +0.002 C 
ENDBRANCH  15  16
BRANCH  15  21
ATOM     21  C   UNL     1     -10.072  17.948  66.724  0.00  0.00    +0.130 C 
BRANCH  21  23
ATOM     22  N   UNL     1      -9.971  20.481  67.422  0.00  0.00    -0.196 NA
ATOM     23  C   UNL     1     -10.127  19.359  67.150  0.00  0.00    +0.075 C 
ENDBRANCH  21  23
ENDBRANCH  15  21
ENDBRANCH   1  15
TORSDOF 5
ENDMDL
MODEL 6
REMARK VINA RESULT:      -6.2      3.464      5.532
REMARK  Name = 
REMARK  5 active torsions:
REMARK  status: ('A' for Active; 'I' for Inactive)
REMARK    1  A    between atoms: C_2  and  C_3
REMARK    2  A    between atoms: C_3  and  C_4
REMARK    3  A    between atoms: C_4  and  C_5
REMARK    4  A    between atoms: C_4  and  N_10
REMARK    5  A    between atoms: C_12  and  C_13
REMARK                            x       y       z     vdW  Elec       q    Type
REMARK                         _______ _______ _______ _____ _____    ______ ____
ROOT
ATOM      1  N   UNL     1     -10.414  14.228  67.036  0.00  0.00    -0.250 N 
ATOM      2  N   UNL     1     -11.450  14.454  67.815  0.00  0.00    -0.168 NA
ATOM      3  C   UNL     1     -11.339  15.706  68.304  0.00  0.00    +0.123 A 
ATOM      4  C   UNL     1     -10.208  16.258  67.714  0.00  0.00    +0.057 A 
ATOM      5  C   UNL     1      -9.932  15.389  66.663  0.00  0.00    +0.098 A 
ENDROOT
BRANCH   4   6
ATOM      6  C   UNL     1      -9.948  17.684  67.784  0.00  0.00    +0.089 A 
ATOM      7  C   UNL     1      -8.749  18.141  68.258  0.00  0.00    +0.055 A 
ATOM      8  C   UNL     1      -8.461  19.494  68.186  0.00  0.00    +0.166 A 
ATOM      9  N   UNL     1      -7.198  19.674  68.642  0.00  0.00    -0.225 NA
ATOM     10  C   UNL     1      -6.692  18.465  68.928  0.00  0.00    +0.101 A 
ATOM     11  N   UNL     1      -9.314  20.326  67.540  0.00  0.00    -0.205 NA
ATOM     12  C   UNL     1     -10.501  19.829  67.114  0.00  0.00    +0.200 A 
ATOM     13  C   UNL     1      -7.616  17.494  68.660  0.00  0.00    +0.025 A 
ATOM     14  N   UNL     1     -10.876  18.582  67.399  0.00  0.00    -0.224 NA
ENDBRANCH   4   6
BRANCH   1  15
ATOM     15  C   UNL     1     -10.448  12.923  66.164  0.00  0.00    +0.120 C 
BRANCH  15  16
ATOM     16  C   UNL     1     -10.504  11.921  67.470  0.00  0.00    +0.024 C 
ATOM     17  C   UNL     1      -9.034  11.775  67.833  0.00  0.00    +0.002 C 
ATOM     18  C   UNL     1      -8.511  11.032  66.615  0.00  0.00    +0.000 C 
ATOM     19  C   UNL     1      -9.552   9.927  66.479  0.00  0.00    +0.000 C 
ATOM     20  C   UNL     1     -10.863  10.622  66.810  0.00  0.00    +0.002 C 
ENDBRANCH  15  16
BRANCH  15  21
ATOM     21  C   UNL     1     -12.088  12.954  66.017  0.00  0.00    +0.130 C 
BRANCH  21  23
ATOM     22  N   UNL     1     -12.519  13.688  63.528  0.00  0.00    -0.196 NA
ATOM     23  C   UNL     1     -12.244  13.292  64.589  0.00  0.00    +0.075 C 
ENDBRANCH  21  23
ENDBRANCH  15  21
ENDBRANCH   1  15
TORSDOF 5
ENDMDL
MODEL 7
REMARK VINA RESULT:      -6.1      4.162      7.738
REMARK  Name = 
REMARK  5 active torsions:
REMARK  status: ('A' for Active; 'I' for Inactive)
REMARK    1  A    between atoms: C_2  and  C_3
REMARK    2  A    between atoms: C_3  and  C_4
REMARK    3  A    between atoms: C_4  and  C_5
REMARK    4  A    between atoms: C_4  and  N_10
REMARK    5  A    between atoms: C_12  and  C_13
REMARK                            x       y       z     vdW  Elec       q    Type
REMARK                         _______ _______ _______ _____ _____    ______ ____
ROOT
ATOM      1  N   UNL     1     -10.516  16.176  69.495  0.00  0.00    -0.250 N 
ATOM      2  N   UNL     1     -11.320  16.756  68.631  0.00  0.00    -0.168 NA
ATOM      3  C   UNL     1     -10.586  17.599  67.878  0.00  0.00    +0.123 A 
ATOM      4  C   UNL     1      -9.267  17.441  68.287  0.00  0.00    +0.057 A 
ATOM      5  C   UNL     1      -9.294  16.263  69.027  0.00  0.00    +0.098 A 
ENDROOT
BRANCH   4   6
ATOM      6  C   UNL     1      -8.170  17.975  67.500  0.00  0.00    +0.089 A 
ATOM      7  C   UNL     1      -7.325  18.904  68.042  0.00  0.00    +0.055 A 
ATOM      8  C   UNL     1      -6.202  19.297  67.332  0.00  0.00    +0.166 A 
ATOM      9  N   UNL     1      -5.499  20.154  68.109  0.00  0.00    -0.225 NA
ATOM     10  C   UNL     1      -6.128  20.242  69.292  0.00  0.00    +0.101 A 
ATOM     11  N   UNL     1      -5.893  18.671  66.170  0.00  0.00    -0.205 NA
ATOM     12  C   UNL     1      -6.777  17.778  65.663  0.00  0.00    +0.200 A 
ATOM     13  C   UNL     1      -7.239  19.446  69.292  0.00  0.00    +0.025 A 
ATOM     14  N   UNL     1      -7.969  17.581  66.227  0.00  0.00    -0.224 NA
ENDBRANCH   4   6
BRANCH   1  15
ATOM     15  C   UNL     1     -11.101  14.974  70.321  0.00  0.00    +0.120 C 
BRANCH  15  16
ATOM     16  C   UNL     1     -12.424  15.818  70.818  0.00  0.00    +0.024 C 
ATOM     17  C   UNL     1     -11.993  16.324  72.186  0.00  0.00    +0.002 C 
ATOM     18  C   UNL     1     -11.877  15.016  72.952  0.00  0.00    +0.000 C 
ATOM     19  C   UNL     1     -13.193  14.344  72.579  0.00  0.00    +0.000 C 
ATOM     20  C   UNL     1     -13.376  14.696  71.111  0.00  0.00    +0.002 C 
ENDBRANCH  15  16
BRANCH  15  21
ATOM     21  C   UNL     1     -11.891  14.346  69.019  0.00  0.00    +0.130 C 
BRANCH  21  23
ATOM     22  N   UNL     1     -10.444  12.251  68.363  0.00  0.00    -0.196 NA
ATOM     23  C   UNL     1     -11.100  13.129  68.758  0.00  0.00    +0.075 C 
ENDBRANCH  21  23
ENDBRANCH  15  21
ENDBRANCH   1  15
TORSDOF 5
ENDMDL
MODEL 8
REMARK VINA RESULT:      -6.1      3.280      6.337
REMARK  Name = 
REMARK  5 active torsions:
REMARK  status: ('A' for Active; 'I' for Inactive)
REMARK    1  A    between atoms: C_2  and  C_3
REMARK    2  A    between atoms: C_3  and  C_4
REMARK    3  A    between atoms: C_4  and  C_5
REMARK    4  A    between atoms: C_4  and  N_10
REMARK    5  A    between atoms: C_12  and  C_13
REMARK                            x       y       z     vdW  Elec       q    Type
REMARK                         _______ _______ _______ _____ _____    ______ ____
ROOT
ATOM      1  N   UNL     1     -12.096  10.006  70.241  0.00  0.00    -0.250 N 
ATOM      2  N   UNL     1     -11.522  10.130  69.065  0.00  0.00    -0.168 NA
ATOM      3  C   UNL     1     -11.502  11.440  68.746  0.00  0.00    +0.123 A 
ATOM      4  C   UNL     1     -12.033  12.116  69.839  0.00  0.00    +0.057 A 
ATOM      5  C   UNL     1     -12.014  11.162  70.852  0.00  0.00    +0.098 A 
ENDROOT
BRANCH   4   6
ATOM      6  C   UNL     1     -11.897  13.556  69.966  0.00  0.00    +0.089 A 
ATOM      7  C   UNL     1     -12.695  14.246  70.836  0.00  0.00    +0.055 A 
ATOM      8  C   UNL     1     -12.458  15.594  71.052  0.00  0.00    +0.166 A 
ATOM      9  N   UNL     1     -13.324  16.020  72.003  0.00  0.00    -0.225 NA
ATOM     10  C   UNL     1     -14.033  14.958  72.415  0.00  0.00    +0.101 A 
ATOM     11  N   UNL     1     -11.371  16.179  70.494  0.00  0.00    -0.205 NA
ATOM     12  C   UNL     1     -10.629  15.460  69.617  0.00  0.00    +0.200 A 
ATOM     13  C   UNL     1     -13.635  13.838  71.739  0.00  0.00    +0.025 A 
ATOM     14  N   UNL     1     -11.000  14.240  69.229  0.00  0.00    -0.224 NA
ENDBRANCH   4   6
BRANCH   1  15
ATOM     15  C   UNL     1     -12.018   8.595  70.928  0.00  0.00    +0.120 C 
BRANCH  15  16
ATOM     16  C   UNL     1     -10.542   8.883  71.599  0.00  0.00    +0.024 C 
ATOM     17  C   UNL     1      -9.601   8.187  70.628  0.00  0.00    +0.002 C 
ATOM     18  C   UNL     1     -10.004   6.734  70.830  0.00  0.00    +0.000 C 
ATOM     19  C   UNL     1     -10.008   6.644  72.352  0.00  0.00    +0.000 C 
ATOM     20  C   UNL     1     -10.596   7.975  72.792  0.00  0.00    +0.002 C 
ENDBRANCH  15  16
BRANCH  15  21
ATOM     21  C   UNL     1     -12.819   9.105  72.274  0.00  0.00    +0.130 C 
BRANCH  21  23
ATOM     22  N   UNL     1     -15.211   8.025  72.116  0.00  0.00    -0.196 NA
ATOM     23  C   UNL     1     -14.113   8.413  72.122  0.00  0.00    +0.075 C 
ENDBRANCH  21  23
ENDBRANCH  15  21
ENDBRANCH   1  15
TORSDOF 5
ENDMDL
MODEL 9
REMARK VINA RESULT:      -6.0      3.586      6.031
REMARK  Name = 
REMARK  5 active torsions:
REMARK  status: ('A' for Active; 'I' for Inactive)
REMARK    1  A    between atoms: C_2  and  C_3
REMARK    2  A    between atoms: C_3  and  C_4
REMARK    3  A    between atoms: C_4  and  C_5
REMARK    4  A    between atoms: C_4  and  N_10
REMARK    5  A    between atoms: C_12  and  C_13
REMARK                            x       y       z     vdW  Elec       q    Type
REMARK                         _______ _______ _______ _____ _____    ______ ____
ROOT
ATOM      1  N   UNL     1      -9.628  17.311  67.993  0.00  0.00    -0.250 N 
ATOM      2  N   UNL     1     -10.473  17.356  69.000  0.00  0.00    -0.168 NA
ATOM      3  C   UNL     1     -11.317  16.311  68.884  0.00  0.00    +0.123 A 
ATOM      4  C   UNL     1     -10.886  15.580  67.783  0.00  0.00    +0.057 A 
ATOM      5  C   UNL     1      -9.611  16.081  67.539  0.00  0.00    +0.098 A 
ENDROOT
BRANCH   4   6
ATOM      6  C   UNL     1     -11.380  14.238  67.536  0.00  0.00    +0.089 A 
ATOM      7  C   UNL     1     -11.729  13.857  66.270  0.00  0.00    +0.055 A 
ATOM      8  C   UNL     1     -12.062  12.535  66.025  0.00  0.00    +0.166 A 
ATOM      9  N   UNL     1     -12.289  12.403  64.696  0.00  0.00    -0.225 NA
ATOM     10  C   UNL     1     -12.043  13.590  64.121  0.00  0.00    +0.101 A 
ATOM     11  N   UNL     1     -11.919  11.616  67.012  0.00  0.00    -0.205 NA
ATOM     12  C   UNL     1     -11.598  12.049  68.255  0.00  0.00    +0.200 A 
ATOM     13  C   UNL     1     -11.654  14.498  65.067  0.00  0.00    +0.025 A 
ATOM     14  N   UNL     1     -11.515  13.349  68.540  0.00  0.00    -0.224 NA
ENDBRANCH   4   6
BRANCH   1  15
ATOM     15  C   UNL     1      -8.400  18.289  68.046  0.00  0.00    +0.120 C 
BRANCH  15  16
ATOM     16  C   UNL     1      -7.291  17.074  67.966  0.00  0.00    +0.024 C 
ATOM     17  C   UNL     1      -6.704  17.074  69.369  0.00  0.00    +0.002 C 
ATOM     18  C   UNL     1      -6.012  18.428  69.390  0.00  0.00    +0.000 C 
ATOM     19  C   UNL     1      -5.259  18.389  68.065  0.00  0.00    +0.000 C 
ATOM     20  C   UNL     1      -6.236  17.717  67.113  0.00  0.00    +0.002 C 
ENDBRANCH  15  16
BRANCH  15  21
ATOM     21  C   UNL     1      -8.392  18.513  66.414  0.00  0.00    +0.130 C 
BRANCH  21  23
ATOM     22  N   UNL     1     -10.527  19.999  66.027  0.00  0.00    -0.196 NA
ATOM     23  C   UNL     1      -9.529  19.437  66.243  0.00  0.00    +0.075 C 
ENDBRANCH  21  23
ENDBRANCH  15  21
ENDBRANCH   1  15
TORSDOF 5
ENDMDL
