MODEL 1
REMARK VINA RESULT:      -7.9      0.000      0.000
REMARK  Name = 
REMARK  8 active torsions:
REMARK  status: ('A' for Active; 'I' for Inactive)
REMARK    1  A    between atoms: C_2  and  C_3
REMARK    2  A    between atoms: C_3  and  C_4
REMARK    3  A    between atoms: C_12  and  C_13
REMARK    4  A    between atoms: C_15  and  S_16
REMARK    5  A    between atoms: S_16  and  N_19
REMARK    6  A    between atoms: N_22  and  C_23
REMARK    7  A    between atoms: C_29  and  O_30
REMARK    8  A    between atoms: O_30  and  C_31
REMARK                            x       y       z     vdW  Elec       q    Type
REMARK                         _______ _______ _______ _____ _____    ______ ____
ROOT
ATOM      1  C   UNL     1     -10.659  14.409  67.626  0.00  0.00    +0.073 A 
ATOM      2  C   UNL     1      -9.933  13.723  66.659  0.00  0.00    +0.142 A 
ATOM      3  C   UNL     1      -9.935  14.306  65.398  0.00  0.00    +0.038 A 
ATOM      4  C   UNL     1     -10.338  15.624  65.221  0.00  0.00    +0.023 A 
ATOM      5  C   UNL     1     -10.672  16.424  66.308  0.00  0.00    +0.122 A 
ATOM      6  C   UNL     1     -11.060  15.724  67.444  0.00  0.00    +0.026 A 
ENDROOT
BRANCH   1  12
ATOM      7  C   UNL     1     -13.165  13.768  71.771  0.00  0.00    +0.140 A 
ATOM      8  N   UNL     1     -12.441  13.459  70.675  0.00  0.00    -0.209 N 
ATOM      9  C   UNL     1     -12.451  12.108  70.599  0.00  0.00    +0.155 A 
ATOM     10  C   UNL     1     -11.860  11.533  69.499  0.00  0.00    +0.300 A 
ATOM     11  N   UNL     1     -10.997  12.276  68.770  0.00  0.00    -0.186 NA
ATOM     12  C   UNL     1     -11.060  13.628  68.805  0.00  0.00    +0.188 A 
ATOM     13  O   UNL     1     -12.214  10.368  69.151  0.00  0.00    -0.263 OA
ATOM     14  C   UNL     1     -12.974  11.573  71.764  0.00  0.00    +0.083 A 
ATOM     15  C   UNL     1     -13.489  10.172  71.826  0.00  0.00    +0.054 C 
ATOM     16  N   UNL     1     -11.819  14.205  69.766  0.00  0.00    -0.144 NA
ATOM     17  N   UNL     1     -13.382  12.643  72.485  0.00  0.00    -0.233 NA
BRANCH   7  18
ATOM     18  C   UNL     1     -13.737  15.099  72.130  0.00  0.00    +0.066 C 
BRANCH  18  20
ATOM     19  C   UNL     1     -12.497  15.602  74.219  0.00  0.00    +0.000 C 
ATOM     20  C   UNL     1     -12.628  15.944  72.743  0.00  0.00    +0.008 C 
ENDBRANCH  18  20
ENDBRANCH   7  18
ENDBRANCH   1  12
BRANCH   5  21
ATOM     21  S   UNL     1     -10.169  18.108  66.391  0.00  0.00    +0.063 S 
ATOM     22  O   UNL     1     -10.614  18.631  67.730  0.00  0.00    -0.153 OA
ATOM     23  O   UNL     1     -10.889  18.929  65.346  0.00  0.00    -0.153 OA
BRANCH  21  24
ATOM     24  N   UNL     1      -8.491  18.296  66.133  0.00  0.00    -0.153 NA
ATOM     25  C   UNL     1      -7.674  17.384  66.881  0.00  0.00    +0.113 C 
ATOM     26  C   UNL     1      -7.252  17.904  68.226  0.00  0.00    +0.092 C 
ATOM     27  N   UNL     1      -6.765  19.280  68.156  0.00  0.00    -0.270 NA
ATOM     28  C   UNL     1      -7.889  20.067  67.650  0.00  0.00    +0.092 C 
ATOM     29  C   UNL     1      -8.054  19.664  66.194  0.00  0.00    +0.113 C 
BRANCH  27  30
ATOM     30  C   UNL     1      -6.541  19.732  69.522  0.00  0.00    +0.072 C 
ATOM     31  C   UNL     1      -5.498  20.816  69.567  0.00  0.00    +0.019 C 
ENDBRANCH  27  30
ENDBRANCH  21  24
ENDBRANCH   5  21
BRANCH   2  32
ATOM     32  O   UNL     1      -8.908  12.868  67.076  0.00  0.00    -0.475 OA
BRANCH  32  33
ATOM     33  C   UNL     1      -7.575  13.329  67.264  0.00  0.00    +0.206 C 
ATOM     34  C   UNL     1      -7.380  14.004  68.591  0.00  0.00    +0.051 C 
ENDBRANCH  32  33
ENDBRANCH   2  32
TORSDOF 8
ENDMDL
MODEL 2
REMARK VINA RESULT:      -7.9      2.789      3.740
REMARK  Name = 
REMARK  8 active torsions:
REMARK  status: ('A' for Active; 'I' for Inactive)
REMARK    1  A    between atoms: C_2  and  C_3
REMARK    2  A    between atoms: C_3  and  C_4
REMARK    3  A    between atoms: C_12  and  C_13
REMARK    4  A    between atoms: C_15  and  S_16
REMARK    5  A    between atoms: S_16  and  N_19
REMARK    6  A    between atoms: N_22  and  C_23
REMARK    7  A    between atoms: C_29  and  O_30
REMARK    8  A    between atoms: O_30  and  C_31
REMARK                            x       y       z     vdW  Elec       q    Type
REMARK                         _______ _______ _______ _____ _____    ______ ____
ROOT
ATOM      1  C   UNL     1     -10.989  12.829  67.356  0.00  0.00    +0.073 A 
ATOM      2  C   UNL     1     -11.512  12.173  66.247  0.00  0.00    +0.142 A 
ATOM      3  C   UNL     1     -12.281  12.964  65.403  0.00  0.00    +0.038 A 
ATOM      4  C   UNL     1     -12.236  14.351  65.486  0.00  0.00    +0.023 A 
ATOM      5  C   UNL     1     -11.361  14.989  66.357  0.00  0.00    +0.122 A 
ATOM      6  C   UNL     1     -10.948  14.214  67.434  0.00  0.00    +0.026 A 
ENDROOT
BRANCH   1  12
ATOM      7  C   UNL     1     -11.908   9.828  71.100  0.00  0.00    +0.140 A 
ATOM      8  N   UNL     1     -11.213  10.455  70.128  0.00  0.00    -0.209 N 
ATOM      9  C   UNL     1     -10.013   9.832  70.077  0.00  0.00    +0.155 A 
ATOM     10  C   UNL     1      -9.142  10.219  69.086  0.00  0.00    +0.300 A 
ATOM     11  N   UNL     1      -9.347  11.409  68.477  0.00  0.00    -0.186 NA
ATOM     12  C   UNL     1     -10.578  11.973  68.477  0.00  0.00    +0.188 A 
ATOM     13  O   UNL     1      -8.240   9.413  68.712  0.00  0.00    -0.263 OA
ATOM     14  C   UNL     1      -9.874   8.983  71.162  0.00  0.00    +0.083 A 
ATOM     15  C   UNL     1      -8.871   7.877  71.174  0.00  0.00    +0.054 C 
ATOM     16  N   UNL     1     -11.516  11.457  69.306  0.00  0.00    -0.144 NA
ATOM     17  N   UNL     1     -11.069   9.031  71.796  0.00  0.00    -0.233 NA
BRANCH   7  18
ATOM     18  C   UNL     1     -13.379   9.897  71.346  0.00  0.00    +0.066 C 
BRANCH  18  20
ATOM     19  C   UNL     1     -14.578   7.747  71.659  0.00  0.00    +0.000 C 
ATOM     20  C   UNL     1     -13.744   8.813  72.353  0.00  0.00    +0.008 C 
ENDBRANCH  18  20
ENDBRANCH   7  18
ENDBRANCH   1  12
BRANCH   5  21
ATOM     21  S   UNL     1     -10.481  16.434  65.872  0.00  0.00    +0.063 S 
ATOM     22  O   UNL     1     -10.936  16.776  64.479  0.00  0.00    -0.153 OA
ATOM     23  O   UNL     1      -8.999  16.146  65.784  0.00  0.00    -0.153 OA
BRANCH  21  24
ATOM     24  N   UNL     1     -10.695  17.723  66.972  0.00  0.00    -0.153 NA
ATOM     25  C   UNL     1     -10.451  19.021  66.412  0.00  0.00    +0.113 C 
ATOM     26  C   UNL     1      -9.032  19.491  66.556  0.00  0.00    +0.092 C 
ATOM     27  N   UNL     1      -8.513  19.275  67.904  0.00  0.00    -0.270 NA
ATOM     28  C   UNL     1      -8.582  17.831  68.122  0.00  0.00    +0.092 C 
ATOM     29  C   UNL     1     -10.060  17.500  68.243  0.00  0.00    +0.113 C 
BRANCH  27  30
ATOM     30  C   UNL     1      -7.096  19.611  67.885  0.00  0.00    +0.072 C 
ATOM     31  C   UNL     1      -6.842  20.833  67.044  0.00  0.00    +0.019 C 
ENDBRANCH  27  30
ENDBRANCH  21  24
ENDBRANCH   5  21
BRANCH   2  32
ATOM     32  O   UNL     1     -10.871  11.015  65.795  0.00  0.00    -0.475 OA
BRANCH  32  33
ATOM     33  C   UNL     1      -9.746  11.071  64.924  0.00  0.00    +0.206 C 
ATOM     34  C   UNL     1     -10.109  10.786  63.496  0.00  0.00    +0.051 C 
ENDBRANCH  32  33
ENDBRANCH   2  32
TORSDOF 8
ENDMDL
MODEL 3
REMARK VINA RESULT:      -7.6      1.606      1.950
REMARK  Name = 
REMARK  8 active torsions:
REMARK  status: ('A' for Active; 'I' for Inactive)
REMARK    1  A    between atoms: C_2  and  C_3
REMARK    2  A    between atoms: C_3  and  C_4
REMARK    3  A    between atoms: C_12  and  C_13
REMARK    4  A    between atoms: C_15  and  S_16
REMARK    5  A    between atoms: S_16  and  N_19
REMARK    6  A    between atoms: N_22  and  C_23
REMARK    7  A    between atoms: C_29  and  O_30
REMARK    8  A    between atoms: O_30  and  C_31
REMARK                            x       y       z     vdW  Elec       q    Type
REMARK                         _______ _______ _______ _____ _____    ______ ____
ROOT
ATOM      1  C   UNL     1     -10.655  15.307  67.610  0.00  0.00    +0.073 A 
ATOM      2  C   UNL     1     -10.728  14.862  66.295  0.00  0.00    +0.142 A 
ATOM      3  C   UNL     1     -10.842  15.864  65.340  0.00  0.00    +0.038 A 
ATOM      4  C   UNL     1     -10.559  17.188  65.655  0.00  0.00    +0.023 A 
ATOM      5  C   UNL     1     -10.076  17.538  66.911  0.00  0.00    +0.122 A 
ATOM      6  C   UNL     1     -10.374  16.630  67.920  0.00  0.00    +0.026 A 
ENDROOT
BRANCH   1  12
ATOM      7  C   UNL     1     -13.073  13.827  71.588  0.00  0.00    +0.140 A 
ATOM      8  N   UNL     1     -12.339  13.752  70.458  0.00  0.00    -0.209 N 
ATOM      9  C   UNL     1     -12.257  12.435  70.163  0.00  0.00    +0.155 A 
ATOM     10  C   UNL     1     -11.638  12.089  68.986  0.00  0.00    +0.300 A 
ATOM     11  N   UNL     1     -10.835  12.999  68.389  0.00  0.00    -0.186 NA
ATOM     12  C   UNL     1     -10.991  14.319  68.644  0.00  0.00    +0.188 A 
ATOM     13  O   UNL     1     -11.914  10.974  68.451  0.00  0.00    -0.263 OA
ATOM     14  C   UNL     1     -12.732  11.682  71.224  0.00  0.00    +0.083 A 
ATOM     15  C   UNL     1     -13.149  10.257  71.055  0.00  0.00    +0.054 C 
ATOM     16  N   UNL     1     -11.778  14.678  69.685  0.00  0.00    -0.144 NA
ATOM     17  N   UNL     1     -13.206  12.589  72.110  0.00  0.00    -0.233 NA
BRANCH   7  18
ATOM     18  C   UNL     1     -13.732  15.039  72.159  0.00  0.00    +0.066 C 
BRANCH  18  20
ATOM     19  C   UNL     1     -12.488  15.471  74.262  0.00  0.00    +0.000 C 
ATOM     20  C   UNL     1     -12.660  15.901  72.814  0.00  0.00    +0.008 C 
ENDBRANCH  18  20
ENDBRANCH   7  18
ENDBRANCH   1  12
BRANCH   5  21
ATOM     21  S   UNL     1      -8.799  18.734  67.097  0.00  0.00    +0.063 S 
ATOM     22  O   UNL     1      -8.198  18.523  68.461  0.00  0.00    -0.153 OA
ATOM     23  O   UNL     1      -9.376  20.131  67.091  0.00  0.00    -0.153 OA
BRANCH  21  24
ATOM     24  N   UNL     1      -7.641  18.645  65.844  0.00  0.00    -0.153 NA
ATOM     25  C   UNL     1      -6.688  17.584  65.997  0.00  0.00    +0.113 C 
ATOM     26  C   UNL     1      -5.448  17.979  66.747  0.00  0.00    +0.092 C 
ATOM     27  N   UNL     1      -4.907  19.254  66.285  0.00  0.00    -0.270 NA
ATOM     28  C   UNL     1      -5.965  20.236  66.521  0.00  0.00    +0.092 C 
ATOM     29  C   UNL     1      -7.058  19.918  65.515  0.00  0.00    +0.113 C 
BRANCH  27  30
ATOM     30  C   UNL     1      -3.816  19.615  67.180  0.00  0.00    +0.072 C 
ATOM     31  C   UNL     1      -4.149  19.266  68.605  0.00  0.00    +0.019 C 
ENDBRANCH  27  30
ENDBRANCH  21  24
ENDBRANCH   5  21
BRANCH   2  32
ATOM     32  O   UNL     1     -10.201  13.604  65.986  0.00  0.00    -0.475 OA
BRANCH  32  33
ATOM     33  C   UNL     1     -10.691  12.832  64.895  0.00  0.00    +0.206 C 
ATOM     34  C   UNL     1     -12.143  12.480  65.043  0.00  0.00    +0.051 C 
ENDBRANCH  32  33
ENDBRANCH   2  32
TORSDOF 8
ENDMDL
MODEL 4
REMARK VINA RESULT:      -7.6      3.982      9.275
REMARK  Name = 
REMARK  8 active torsions:
REMARK  status: ('A' for Active; 'I' for Inactive)
REMARK    1  A    between atoms: C_2  and  C_3
REMARK    2  A    between atoms: C_3  and  C_4
REMARK    3  A    between atoms: C_12  and  C_13
REMARK    4  A    between atoms: C_15  and  S_16
REMARK    5  A    between atoms: S_16  and  N_19
REMARK    6  A    between atoms: N_22  and  C_23
REMARK    7  A    between atoms: C_29  and  O_30
REMARK    8  A    between atoms: O_30  and  C_31
REMARK                            x       y       z     vdW  Elec       q    Type
REMARK                         _______ _______ _______ _____ _____    ______ ____
ROOT
ATOM      1  C   UNL     1     -11.342  11.141  69.807  0.00  0.00    +0.073 A 
ATOM      2  C   UNL     1     -12.467  11.478  70.551  0.00  0.00    +0.142 A 
ATOM      3  C   UNL     1     -13.106  10.410  71.167  0.00  0.00    +0.038 A 
ATOM      4  C   UNL     1     -12.473   9.180  71.304  0.00  0.00    +0.023 A 
ATOM      5  C   UNL     1     -11.155   9.004  70.901  0.00  0.00    +0.122 A 
ATOM      6  C   UNL     1     -10.715   9.912  69.945  0.00  0.00    +0.026 A 
ENDROOT
BRANCH   1  12
ATOM      7  C   UNL     1     -11.740  13.374  65.480  0.00  0.00    +0.140 A 
ATOM      8  N   UNL     1     -11.361  13.158  66.756  0.00  0.00    -0.209 N 
ATOM      9  C   UNL     1     -10.762  14.302  67.158  0.00  0.00    +0.155 A 
ATOM     10  C   UNL     1     -10.369  14.381  68.473  0.00  0.00    +0.300 A 
ATOM     11  N   UNL     1     -10.247  13.233  69.179  0.00  0.00    -0.186 NA
ATOM     12  C   UNL     1     -10.920  12.122  68.798  0.00  0.00    +0.188 A 
ATOM     13  O   UNL     1     -10.229  15.521  69.005  0.00  0.00    -0.263 OA
ATOM     14  C   UNL     1     -10.560  15.136  66.072  0.00  0.00    +0.083 A 
ATOM     15  C   UNL     1     -10.307  16.600  66.239  0.00  0.00    +0.054 C 
ATOM     16  N   UNL     1     -11.498  12.116  67.573  0.00  0.00    -0.144 NA
ATOM     17  N   UNL     1     -11.159  14.508  65.034  0.00  0.00    -0.233 NA
BRANCH   7  18
ATOM     18  C   UNL     1     -12.715  12.575  64.679  0.00  0.00    +0.066 C 
BRANCH  18  20
ATOM     19  C   UNL     1     -10.832  11.256  63.746  0.00  0.00    +0.000 C 
ATOM     20  C   UNL     1     -12.026  12.130  63.396  0.00  0.00    +0.008 C 
ENDBRANCH  18  20
ENDBRANCH   7  18
ENDBRANCH   1  12
BRANCH   5  21
ATOM     21  S   UNL     1     -10.023   8.065  71.868  0.00  0.00    +0.063 S 
ATOM     22  O   UNL     1     -10.666   7.854  73.212  0.00  0.00    -0.153 OA
ATOM     23  O   UNL     1      -8.756   8.853  72.114  0.00  0.00    -0.153 OA
BRANCH  21  24
ATOM     24  N   UNL     1      -9.583   6.599  71.109  0.00  0.00    -0.153 NA
ATOM     25  C   UNL     1      -8.611   6.746  70.064  0.00  0.00    +0.113 C 
ATOM     26  C   UNL     1      -9.206   6.959  68.702  0.00  0.00    +0.092 C 
ATOM     27  N   UNL     1     -10.298   6.029  68.425  0.00  0.00    -0.270 NA
ATOM     28  C   UNL     1     -11.304   6.291  69.453  0.00  0.00    +0.092 C 
ATOM     29  C   UNL     1     -10.710   5.780  70.755  0.00  0.00    +0.113 C 
BRANCH  27  30
ATOM     30  C   UNL     1     -10.901   6.428  67.161  0.00  0.00    +0.072 C 
ATOM     31  C   UNL     1     -10.581   7.863  66.839  0.00  0.00    +0.019 C 
ENDBRANCH  27  30
ENDBRANCH  21  24
ENDBRANCH   5  21
BRANCH   2  32
ATOM     32  O   UNL     1     -12.580  12.785  71.034  0.00  0.00    -0.475 OA
BRANCH  32  33
ATOM     33  C   UNL     1     -13.454  13.116  72.107  0.00  0.00    +0.206 C 
ATOM     34  C   UNL     1     -13.780  14.581  72.155  0.00  0.00    +0.051 C 
ENDBRANCH  32  33
ENDBRANCH   2  32
TORSDOF 8
ENDMDL
MODEL 5
REMARK VINA RESULT:      -7.5      3.374      5.776
REMARK  Name = 
REMARK  8 active torsions:
REMARK  status: ('A' for Active; 'I' for Inactive)
REMARK    1  A    between atoms: C_2  and  C_3
REMARK    2  A    between atoms: C_3  and  C_4
REMARK    3  A    between atoms: C_12  and  C_13
REMARK    4  A    between atoms: C_15  and  S_16
REMARK    5  A    between atoms: S_16  and  N_19
REMARK    6  A    between atoms: N_22  and  C_23
REMARK    7  A    between atoms: C_29  and  O_30
REMARK    8  A    between atoms: O_30  and  C_31
REMARK                            x       y       z     vdW  Elec       q    Type
REMARK                         _______ _______ _______ _____ _____    ______ ____
ROOT
ATOM      1  C   UNL     1      -7.827  17.692  67.636  0.00  0.00    +0.073 A 
ATOM      2  C   UNL     1      -8.377  18.682  68.442  0.00  0.00    +0.142 A 
ATOM      3  C   UNL     1      -7.458  19.434  69.162  0.00  0.00    +0.038 A 
ATOM      4  C   UNL     1      -6.107  19.417  68.834  0.00  0.00    +0.023 A 
ATOM      5  C   UNL     1      -5.648  18.713  67.727  0.00  0.00    +0.122 A 
ATOM      6  C   UNL     1      -6.478  17.678  67.313  0.00  0.00    +0.026 A 
ENDROOT
BRANCH   1  12
ATOM      7  C   UNL     1     -11.348  14.419  68.508  0.00  0.00    +0.140 A 
ATOM      8  N   UNL     1     -10.514  15.218  67.810  0.00  0.00    -0.209 N 
ATOM      9  C   UNL     1     -10.938  15.155  66.527  0.00  0.00    +0.155 A 
ATOM     10  C   UNL     1     -10.310  15.970  65.614  0.00  0.00    +0.300 A 
ATOM     11  N   UNL     1      -9.102  16.487  65.936  0.00  0.00    -0.186 NA
ATOM     12  C   UNL     1      -8.736  16.610  67.233  0.00  0.00    +0.188 A 
ATOM     13  O   UNL     1     -10.921  16.286  64.551  0.00  0.00    -0.263 OA
ATOM     14  C   UNL     1     -11.876  14.146  66.387  0.00  0.00    +0.083 A 
ATOM     15  C   UNL     1     -12.811  14.096  65.223  0.00  0.00    +0.054 C 
ATOM     16  N   UNL     1      -9.481  15.976  68.169  0.00  0.00    -0.144 NA
ATOM     17  N   UNL     1     -12.084  13.689  67.644  0.00  0.00    -0.233 NA
BRANCH   7  18
ATOM     18  C   UNL     1     -11.533  14.380  69.989  0.00  0.00    +0.066 C 
BRANCH  18  20
ATOM     19  C   UNL     1     -11.846  16.142  71.708  0.00  0.00    +0.000 C 
ATOM     20  C   UNL     1     -12.374  15.583  70.396  0.00  0.00    +0.008 C 
ENDBRANCH  18  20
ENDBRANCH   7  18
ENDBRANCH   1  12
BRANCH   5  21
ATOM     21  S   UNL     1      -4.414  19.384  66.666  0.00  0.00    +0.063 S 
ATOM     22  O   UNL     1      -4.064  18.311  65.670  0.00  0.00    -0.153 OA
ATOM     23  O   UNL     1      -3.151  19.680  67.443  0.00  0.00    -0.153 OA
BRANCH  21  24
ATOM     24  N   UNL     1      -4.919  20.836  65.922  0.00  0.00    -0.153 NA
ATOM     25  C   UNL     1      -6.132  20.718  65.164  0.00  0.00    +0.113 C 
ATOM     26  C   UNL     1      -5.917  20.369  63.719  0.00  0.00    +0.092 C 
ATOM     27  N   UNL     1      -4.864  21.175  63.108  0.00  0.00    -0.270 NA
ATOM     28  C   UNL     1      -3.653  20.882  63.874  0.00  0.00    +0.092 C 
ATOM     29  C   UNL     1      -3.859  21.524  65.236  0.00  0.00    +0.113 C 
BRANCH  27  30
ATOM     30  C   UNL     1      -4.631  20.646  61.771  0.00  0.00    +0.072 C 
ATOM     31  C   UNL     1      -5.930  20.382  61.060  0.00  0.00    +0.019 C 
ENDBRANCH  27  30
ENDBRANCH  21  24
ENDBRANCH   5  21
BRANCH   2  32
ATOM     32  O   UNL     1      -9.645  19.176  68.118  0.00  0.00    -0.475 OA
BRANCH  32  33
ATOM     33  C   UNL     1      -9.819  20.269  67.224  0.00  0.00    +0.206 C 
ATOM     34  C   UNL     1     -10.490  19.865  65.943  0.00  0.00    +0.051 C 
ENDBRANCH  32  33
ENDBRANCH   2  32
TORSDOF 8
ENDMDL
MODEL 6
REMARK VINA RESULT:      -7.4      2.922      4.396
REMARK  Name = 
REMARK  8 active torsions:
REMARK  status: ('A' for Active; 'I' for Inactive)
REMARK    1  A    between atoms: C_2  and  C_3
REMARK    2  A    between atoms: C_3  and  C_4
REMARK    3  A    between atoms: C_12  and  C_13
REMARK    4  A    between atoms: C_15  and  S_16
REMARK    5  A    between atoms: S_16  and  N_19
REMARK    6  A    between atoms: N_22  and  C_23
REMARK    7  A    between atoms: C_29  and  O_30
REMARK    8  A    between atoms: O_30  and  C_31
REMARK                            x       y       z     vdW  Elec       q    Type
REMARK                         _______ _______ _______ _____ _____    ______ ____
ROOT
ATOM      1  C   UNL     1     -11.151  12.676  66.447  0.00  0.00    +0.073 A 
ATOM      2  C   UNL     1     -11.437  12.281  65.145  0.00  0.00    +0.142 A 
ATOM      3  C   UNL     1     -12.048  13.247  64.357  0.00  0.00    +0.038 A 
ATOM      4  C   UNL     1     -12.052  14.584  64.739  0.00  0.00    +0.023 A 
ATOM      5  C   UNL     1     -11.375  15.005  65.878  0.00  0.00    +0.122 A 
ATOM      6  C   UNL     1     -11.158  14.011  66.824  0.00  0.00    +0.026 A 
ENDROOT
BRANCH   1  12
ATOM      7  C   UNL     1      -8.413  10.101  69.568  0.00  0.00    +0.140 A 
ATOM      8  N   UNL     1      -9.518  10.582  68.961  0.00  0.00    -0.209 N 
ATOM      9  C   UNL     1     -10.560  10.160  69.712  0.00  0.00    +0.155 A 
ATOM     10  C   UNL     1     -11.812  10.605  69.362  0.00  0.00    +0.300 A 
ATOM     11  N   UNL     1     -11.993  11.105  68.118  0.00  0.00    -0.186 NA
ATOM     12  C   UNL     1     -10.943  11.593  67.418  0.00  0.00    +0.188 A 
ATOM     13  O   UNL     1     -12.725  10.623  70.239  0.00  0.00    -0.263 OA
ATOM     14  C   UNL     1     -10.127   9.230  70.642  0.00  0.00    +0.083 A 
ATOM     15  C   UNL     1     -10.932   8.893  71.855  0.00  0.00    +0.054 C 
ATOM     16  N   UNL     1      -9.695  11.335  67.878  0.00  0.00    -0.144 NA
ATOM     17  N   UNL     1      -8.781   9.197  70.500  0.00  0.00    -0.233 NA
BRANCH   7  18
ATOM     18  C   UNL     1      -7.001  10.534  69.349  0.00  0.00    +0.066 C 
BRANCH  18  20
ATOM     19  C   UNL     1      -5.920   8.429  68.601  0.00  0.00    +0.000 C 
ATOM     20  C   UNL     1      -6.452   9.779  68.145  0.00  0.00    +0.008 C 
ENDBRANCH  18  20
ENDBRANCH   7  18
ENDBRANCH   1  12
BRANCH   5  21
ATOM     21  S   UNL     1     -10.451  16.503  65.889  0.00  0.00    +0.063 S 
ATOM     22  O   UNL     1     -10.954  17.335  64.739  0.00  0.00    -0.153 OA
ATOM     23  O   UNL     1      -8.990  16.227  65.615  0.00  0.00    -0.153 OA
BRANCH  21  24
ATOM     24  N   UNL     1     -10.554  17.317  67.387  0.00  0.00    -0.153 NA
ATOM     25  C   UNL     1     -10.605  18.747  67.279  0.00  0.00    +0.113 C 
ATOM     26  C   UNL     1      -9.257  19.410  67.318  0.00  0.00    +0.092 C 
ATOM     27  N   UNL     1      -8.416  18.885  68.390  0.00  0.00    -0.270 NA
ATOM     28  C   UNL     1      -8.260  17.460  68.102  0.00  0.00    +0.092 C 
ATOM     29  C   UNL     1      -9.618  16.833  68.365  0.00  0.00    +0.113 C 
BRANCH  27  30
ATOM     30  C   UNL     1      -7.093  19.474  68.234  0.00  0.00    +0.072 C 
ATOM     31  C   UNL     1      -7.137  20.664  67.314  0.00  0.00    +0.019 C 
ENDBRANCH  27  30
ENDBRANCH  21  24
ENDBRANCH   5  21
BRANCH   2  32
ATOM     32  O   UNL     1     -10.695  11.234  64.589  0.00  0.00    -0.475 OA
BRANCH  32  33
ATOM     33  C   UNL     1     -10.141  11.319  63.280  0.00  0.00    +0.206 C 
ATOM     34  C   UNL     1      -9.405  10.073  62.884  0.00  0.00    +0.051 C 
ENDBRANCH  32  33
ENDBRANCH   2  32
TORSDOF 8
ENDMDL
MODEL 7
REMARK VINA RESULT:      -7.4      3.892      8.948
REMARK  Name = 
REMARK  8 active torsions:
REMARK  status: ('A' for Active; 'I' for Inactive)
REMARK    1  A    between atoms: C_2  and  C_3
REMARK    2  A    between atoms: C_3  and  C_4
REMARK    3  A    between atoms: C_12  and  C_13
REMARK    4  A    between atoms: C_15  and  S_16
REMARK    5  A    between atoms: S_16  and  N_19
REMARK    6  A    between atoms: N_22  and  C_23
REMARK    7  A    between atoms: C_29  and  O_30
REMARK    8  A    between atoms: O_30  and  C_31
REMARK                            x       y       z     vdW  Elec       q    Type
REMARK                         _______ _______ _______ _____ _____    ______ ____
ROOT
ATOM      1  C   UNL     1     -11.921  10.833  70.216  0.00  0.00    +0.073 A 
ATOM      2  C   UNL     1     -12.808  11.195  71.223  0.00  0.00    +0.142 A 
ATOM      3  C   UNL     1     -13.189  10.163  72.071  0.00  0.00    +0.038 A 
ATOM      4  C   UNL     1     -12.477   8.970  72.110  0.00  0.00    +0.023 A 
ATOM      5  C   UNL     1     -11.317   8.803  71.363  0.00  0.00    +0.122 A 
ATOM      6  C   UNL     1     -11.214   9.640  70.258  0.00  0.00    +0.026 A 
ENDROOT
BRANCH   1  12
ATOM      7  C   UNL     1     -10.581  14.984  68.016  0.00  0.00    +0.140 A 
ATOM      8  N   UNL     1     -11.005  13.711  68.154  0.00  0.00    -0.209 N 
ATOM      9  C   UNL     1     -11.006  13.189  66.906  0.00  0.00    +0.155 A 
ATOM     10  C   UNL     1     -11.306  11.854  66.781  0.00  0.00    +0.300 A 
ATOM     11  N   UNL     1     -11.936  11.236  67.806  0.00  0.00    -0.186 NA
ATOM     12  C   UNL     1     -11.853  11.738  69.060  0.00  0.00    +0.188 A 
ATOM     13  O   UNL     1     -10.901  11.227  65.758  0.00  0.00    -0.263 OA
ATOM     14  C   UNL     1     -10.812  14.194  65.973  0.00  0.00    +0.083 A 
ATOM     15  C   UNL     1     -10.362  13.899  64.580  0.00  0.00    +0.054 C 
ATOM     16  N   UNL     1     -11.355  12.988  69.215  0.00  0.00    -0.144 NA
ATOM     17  N   UNL     1     -10.580  15.308  66.706  0.00  0.00    -0.233 NA
BRANCH   7  18
ATOM     18  C   UNL     1     -10.091  15.895  69.093  0.00  0.00    +0.066 C 
BRANCH  18  20
ATOM     19  C   UNL     1     -10.025  18.297  68.473  0.00  0.00    +0.000 C 
ATOM     20  C   UNL     1      -9.250  16.988  68.447  0.00  0.00    +0.008 C 
ENDBRANCH  18  20
ENDBRANCH   7  18
ENDBRANCH   1  12
BRANCH   5  21
ATOM     21  S   UNL     1      -9.909   7.986  72.032  0.00  0.00    +0.063 S 
ATOM     22  O   UNL     1     -10.209   7.718  73.483  0.00  0.00    -0.153 OA
ATOM     23  O   UNL     1      -8.703   8.897  72.001  0.00  0.00    -0.153 OA
BRANCH  21  24
ATOM     24  N   UNL     1      -9.511   6.567  71.168  0.00  0.00    -0.153 NA
ATOM     25  C   UNL     1      -8.606   6.778  70.075  0.00  0.00    +0.113 C 
ATOM     26  C   UNL     1      -9.286   7.062  68.765  0.00  0.00    +0.092 C 
ATOM     27  N   UNL     1     -10.389   6.141  68.506  0.00  0.00    -0.270 NA
ATOM     28  C   UNL     1     -11.331   6.338  69.607  0.00  0.00    +0.092 C 
ATOM     29  C   UNL     1     -10.655   5.760  70.839  0.00  0.00    +0.113 C 
BRANCH  27  30
ATOM     30  C   UNL     1     -11.071   6.604  67.305  0.00  0.00    +0.072 C 
ATOM     31  C   UNL     1     -10.338   7.760  66.680  0.00  0.00    +0.019 C 
ENDBRANCH  27  30
ENDBRANCH  21  24
ENDBRANCH   5  21
BRANCH   2  32
ATOM     32  O   UNL     1     -12.852  12.534  71.622  0.00  0.00    -0.475 OA
BRANCH  32  33
ATOM     33  C   UNL     1     -13.965  13.072  72.328  0.00  0.00    +0.206 C 
ATOM     34  C   UNL     1     -14.298  14.471  71.901  0.00  0.00    +0.051 C 
ENDBRANCH  32  33
ENDBRANCH   2  32
TORSDOF 8
ENDMDL
MODEL 8
REMARK VINA RESULT:      -7.3      3.860      9.456
REMARK  Name = 
REMARK  8 active torsions:
REMARK  status: ('A' for Active; 'I' for Inactive)
REMARK    1  A    between atoms: C_2  and  C_3
REMARK    2  A    between atoms: C_3  and  C_4
REMARK    3  A    between atoms: C_12  and  C_13
REMARK    4  A    between atoms: C_15  and  S_16
REMARK    5  A    between atoms: S_16  and  N_19
REMARK    6  A    between atoms: N_22  and  C_23
REMARK    7  A    between atoms: C_29  and  O_30
REMARK    8  A    between atoms: O_30  and  C_31
REMARK                            x       y       z     vdW  Elec       q    Type
REMARK                         _______ _______ _______ _____ _____    ______ ____
ROOT
ATOM      1  C   UNL     1     -11.242  12.608  69.419  0.00  0.00    +0.073 A 
ATOM      2  C   UNL     1     -12.133  13.007  70.409  0.00  0.00    +0.142 A 
ATOM      3  C   UNL     1     -12.885  11.984  70.972  0.00  0.00    +0.038 A 
ATOM      4  C   UNL     1     -12.524  10.653  70.799  0.00  0.00    +0.023 A 
ATOM      5  C   UNL     1     -11.357  10.309  70.127  0.00  0.00    +0.122 A 
ATOM      6  C   UNL     1     -10.887  11.278  69.248  0.00  0.00    +0.026 A 
ENDROOT
BRANCH   1  12
ATOM      7  C   UNL     1     -11.369  15.062  65.197  0.00  0.00    +0.140 A 
ATOM      8  N   UNL     1     -11.092  14.790  66.489  0.00  0.00    -0.209 N 
ATOM      9  C   UNL     1     -10.584  15.934  67.002  0.00  0.00    +0.155 A 
ATOM     10  C   UNL     1     -10.311  15.955  68.349  0.00  0.00    +0.300 A 
ATOM     11  N   UNL     1     -10.196  14.776  69.002  0.00  0.00    -0.186 NA
ATOM     12  C   UNL     1     -10.781  13.661  68.504  0.00  0.00    +0.188 A 
ATOM     13  O   UNL     1     -10.270  17.069  68.950  0.00  0.00    -0.263 OA
ATOM     14  C   UNL     1     -10.328  16.837  65.984  0.00  0.00    +0.083 A 
ATOM     15  C   UNL     1     -10.159  18.297  66.249  0.00  0.00    +0.054 C 
ATOM     16  N   UNL     1     -11.249  13.699  67.235  0.00  0.00    -0.144 NA
ATOM     17  N   UNL     1     -10.804  16.243  64.865  0.00  0.00    -0.233 NA
BRANCH   7  18
ATOM     18  C   UNL     1     -12.231  14.269  64.272  0.00  0.00    +0.066 C 
BRANCH  18  20
ATOM     19  C   UNL     1     -12.433  11.936  63.452  0.00  0.00    +0.000 C 
ATOM     20  C   UNL     1     -11.454  13.035  63.835  0.00  0.00    +0.008 C 
ENDBRANCH  18  20
ENDBRANCH   7  18
ENDBRANCH   1  12
BRANCH   5  21
ATOM     21  S   UNL     1     -10.320   9.009  70.705  0.00  0.00    +0.063 S 
ATOM     22  O   UNL     1     -10.461   8.971  72.203  0.00  0.00    -0.153 OA
ATOM     23  O   UNL     1      -8.870   9.321  70.415  0.00  0.00    -0.153 OA
BRANCH  21  24
ATOM     24  N   UNL     1     -10.687   7.512  69.969  0.00  0.00    -0.153 NA
ATOM     25  C   UNL     1     -11.805   6.827  70.552  0.00  0.00    +0.113 C 
ATOM     26  C   UNL     1     -11.432   5.884  71.661  0.00  0.00    +0.092 C 
ATOM     27  N   UNL     1     -10.289   5.047  71.311  0.00  0.00    -0.270 NA
ATOM     28  C   UNL     1      -9.187   5.974  71.058  0.00  0.00    +0.092 C 
ATOM     29  C   UNL     1      -9.532   6.682  69.758  0.00  0.00    +0.113 C 
BRANCH  27  30
ATOM     30  C   UNL     1      -9.917   4.297  72.503  0.00  0.00    +0.072 C 
ATOM     31  C   UNL     1     -11.027   4.311  73.519  0.00  0.00    +0.019 C 
ENDBRANCH  27  30
ENDBRANCH  21  24
ENDBRANCH   5  21
BRANCH   2  32
ATOM     32  O   UNL     1     -11.877  14.200  71.093  0.00  0.00    -0.475 OA
BRANCH  32  33
ATOM     33  C   UNL     1     -12.914  15.126  71.402  0.00  0.00    +0.206 C 
ATOM     34  C   UNL     1     -12.630  15.915  72.646  0.00  0.00    +0.051 C 
ENDBRANCH  32  33
ENDBRANCH   2  32
TORSDOF 8
ENDMDL
MODEL 9
REMARK VINA RESULT:      -7.1      3.848      8.376
REMARK  Name = 
REMARK  8 active torsions:
REMARK  status: ('A' for Active; 'I' for Inactive)
REMARK    1  A    between atoms: C_2  and  C_3
REMARK    2  A    between atoms: C_3  and  C_4
REMARK    3  A    between atoms: C_12  and  C_13
REMARK    4  A    between atoms: C_15  and  S_16
REMARK    5  A    between atoms: S_16  and  N_19
REMARK    6  A    between atoms: N_22  and  C_23
REMARK    7  A    between atoms: C_29  and  O_30
REMARK    8  A    between atoms: O_30  and  C_31
REMARK                            x       y       z     vdW  Elec       q    Type
REMARK                         _______ _______ _______ _____ _____    ______ ____
ROOT
ATOM      1  C   UNL     1     -10.278  11.016  67.313  0.00  0.00    +0.073 A 
ATOM      2  C   UNL     1     -10.203  10.534  66.011  0.00  0.00    +0.142 A 
ATOM      3  C   UNL     1      -9.454   9.375  65.854  0.00  0.00    +0.038 A 
ATOM      4  C   UNL     1      -9.109   8.593  66.951  0.00  0.00    +0.023 A 
ATOM      5  C   UNL     1      -9.570   8.902  68.225  0.00  0.00    +0.122 A 
ATOM      6  C   UNL     1      -9.930  10.233  68.404  0.00  0.00    +0.026 A 
ENDROOT
BRANCH   1  12
ATOM      7  C   UNL     1     -12.133  14.796  69.791  0.00  0.00    +0.140 A 
ATOM      8  N   UNL     1     -11.439  14.125  68.848  0.00  0.00    -0.209 N 
ATOM      9  C   UNL     1     -10.731  15.064  68.179  0.00  0.00    +0.155 A 
ATOM     10  C   UNL     1      -9.851  14.625  67.218  0.00  0.00    +0.300 A 
ATOM     11  N   UNL     1     -10.001  13.373  66.731  0.00  0.00    -0.186 NA
ATOM     12  C   UNL     1     -10.648  12.431  67.457  0.00  0.00    +0.188 A 
ATOM     13  O   UNL     1      -8.878  15.367  66.893  0.00  0.00    -0.263 OA
ATOM     14  C   UNL     1     -11.158  16.329  68.546  0.00  0.00    +0.083 A 
ATOM     15  C   UNL     1     -10.321  17.543  68.307  0.00  0.00    +0.054 C 
ATOM     16  N   UNL     1     -11.352  12.833  68.541  0.00  0.00    -0.144 NA
ATOM     17  N   UNL     1     -12.058  16.119  69.535  0.00  0.00    -0.233 NA
BRANCH   7  18
ATOM     18  C   UNL     1     -12.810  14.223  70.992  0.00  0.00    +0.066 C 
BRANCH  18  20
ATOM     19  C   UNL     1     -13.443  15.692  72.889  0.00  0.00    +0.000 C 
ATOM     20  C   UNL     1     -13.832  15.237  71.492  0.00  0.00    +0.008 C 
ENDBRANCH  18  20
ENDBRANCH   7  18
ENDBRANCH   1  12
BRANCH   5  21
ATOM     21  S   UNL     1     -10.118   7.644  69.327  0.00  0.00    +0.063 S 
ATOM     22  O   UNL     1      -8.902   6.848  69.720  0.00  0.00    -0.153 OA
ATOM     23  O   UNL     1     -11.050   6.688  68.618  0.00  0.00    -0.153 OA
BRANCH  21  24
ATOM     24  N   UNL     1     -10.953   8.281  70.673  0.00  0.00    -0.153 NA
ATOM     25  C   UNL     1     -10.101   8.814  71.697  0.00  0.00    +0.113 C 
ATOM     26  C   UNL     1      -9.715   7.815  72.751  0.00  0.00    +0.092 C 
ATOM     27  N   UNL     1     -10.858   7.038  73.220  0.00  0.00    -0.270 NA
ATOM     28  C   UNL     1     -11.369   6.342  72.040  0.00  0.00    +0.092 C 
ATOM     29  C   UNL     1     -11.992   7.415  71.163  0.00  0.00    +0.113 C 
BRANCH  27  30
ATOM     30  C   UNL     1     -10.348   6.003  74.108  0.00  0.00    +0.072 C 
ATOM     31  C   UNL     1      -9.171   6.504  74.901  0.00  0.00    +0.019 C 
ENDBRANCH  27  30
ENDBRANCH  21  24
ENDBRANCH   5  21
BRANCH   2  32
ATOM     32  O   UNL     1     -11.211  10.890  65.110  0.00  0.00    -0.475 OA
BRANCH  32  33
ATOM     33  C   UNL     1     -10.915  11.400  63.814  0.00  0.00    +0.206 C 
ATOM     34  C   UNL     1     -11.829  12.520  63.413  0.00  0.00    +0.051 C 
ENDBRANCH  32  33
ENDBRANCH   2  32
TORSDOF 8
ENDMDL
