MODEL 1
REMARK VINA RESULT:      -7.0      0.000      0.000
REMARK  Name = 
REMARK  10 active torsions:
REMARK  status: ('A' for Active; 'I' for Inactive)
REMARK    1  A    between atoms: C_2  and  C_3
REMARK    2  A    between atoms: C_3  and  C_4
REMARK    3  A    between atoms: C_4  and  C_5
REMARK    4  A    between atoms: C_5  and  C_6
REMARK    5  A    between atoms: C_6  and  C_8
REMARK    6  A    between atoms: C_8  and  C_9
REMARK    7  A    between atoms: C_9  and  C_10
REMARK    8  A    between atoms: C_21  and  O_22
REMARK    9  A    between atoms: O_22  and  C_23
REMARK   10  A    between atoms: C_23  and  C_24
REMARK                            x       y       z     vdW  Elec       q    Type
REMARK                         _______ _______ _______ _____ _____    ______ ____
ROOT
ATOM      1  C   UNL     1      -9.721  17.681  66.473  0.00  0.00    +0.031 C 
ATOM      2  C   UNL     1      -8.370  17.614  67.476  0.00  0.00    +0.007 C 
ATOM      3  C   UNL     1      -8.913  18.874  68.488  0.00  0.00    +0.007 C 
ATOM      4  C   UNL     1      -7.434  19.277  69.039  0.00  0.00    +0.029 C 
ATOM      5  C   UNL     1      -6.651  19.903  67.996  0.00  0.00    +0.008 A 
ATOM      6  C   UNL     1      -5.646  20.765  68.430  0.00  0.00    +0.135 A 
ATOM      7  C   UNL     1      -4.475  20.871  67.689  0.00  0.00    +0.037 A 
ATOM      8  C   UNL     1      -4.290  20.194  66.498  0.00  0.00    +0.003 A 
ATOM      9  C   UNL     1      -5.323  19.357  66.093  0.00  0.00    -0.004 A 
ATOM     10  C   UNL     1      -6.317  18.986  66.995  0.00  0.00    -0.023 A 
ATOM     11  C   UNL     1      -9.002  19.899  67.208  0.00  0.00    +0.033 C 
ATOM     12  C   UNL     1      -7.544  18.478  66.381  0.00  0.00    +0.026 C 
ATOM     13  C   UNL     1     -10.438  19.047  67.214  0.00  0.00    +0.152 C 
ATOM     14  O   UNL     1     -10.851  19.618  65.853  0.00  0.00    -0.223 OA
ENDROOT
BRANCH   1  15
ATOM     15  C   UNL     1     -10.557  16.665  67.412  0.00  0.00    +0.005 C 
BRANCH  15  16
ATOM     16  C   UNL     1      -9.715  15.391  67.471  0.00  0.00    +0.033 C 
BRANCH  16  17
ATOM     17  C   UNL     1     -10.182  14.723  66.007  0.00  0.00    +0.152 C 
ATOM     18  O   UNL     1      -9.460  13.401  66.338  0.00  0.00    -0.223 OA
BRANCH  17  19
ATOM     19  C   UNL     1     -11.610  14.153  66.667  0.00  0.00    +0.033 C 
BRANCH  19  20
ATOM     20  C   UNL     1     -12.550  14.024  65.482  0.00  0.00    +0.003 C 
BRANCH  20  21
ATOM     21  C   UNL     1     -12.497  12.660  64.904  0.00  0.00    +0.000 C 
BRANCH  21  23
ATOM     22  C   UNL     1     -10.932  11.743  63.478  0.00  0.00    +0.000 C 
ATOM     23  C   UNL     1     -12.053  12.566  63.482  0.00  0.00    +0.000 C 
ENDBRANCH  21  23
ENDBRANCH  20  21
ENDBRANCH  19  20
ENDBRANCH  17  19
ENDBRANCH  16  17
ENDBRANCH  15  16
ENDBRANCH   1  15
BRANCH   6  24
ATOM     24  O   UNL     1      -5.539  21.151  69.769  0.00  0.00    -0.464 OA
BRANCH  24  25
ATOM     25  C   UNL     1      -4.219  21.131  70.305  0.00  0.00    +0.319 C 
BRANCH  25  26
ATOM     26  C   UNL     1      -4.413  21.119  71.793  0.00  0.00    +0.408 C 
ATOM     27  O   UNL     1      -3.667  20.141  72.460  0.00  0.00    -0.241 OA
ATOM     28  O   UNL     1      -4.396  22.272  72.325  0.00  0.00    -0.241 OA
ENDBRANCH  25  26
ENDBRANCH  24  25
ENDBRANCH   6  24
TORSDOF 10
ENDMDL
MODEL 2
REMARK VINA RESULT:      -7.0      5.267      7.503
REMARK  Name = 
REMARK  10 active torsions:
REMARK  status: ('A' for Active; 'I' for Inactive)
REMARK    1  A    between atoms: C_2  and  C_3
REMARK    2  A    between atoms: C_3  and  C_4
REMARK    3  A    between atoms: C_4  and  C_5
REMARK    4  A    between atoms: C_5  and  C_6
REMARK    5  A    between atoms: C_6  and  C_8
REMARK    6  A    between atoms: C_8  and  C_9
REMARK    7  A    between atoms: C_9  and  C_10
REMARK    8  A    between atoms: C_21  and  O_22
REMARK    9  A    between atoms: O_22  and  C_23
REMARK   10  A    between atoms: C_23  and  C_24
REMARK                            x       y       z     vdW  Elec       q    Type
REMARK                         _______ _______ _______ _____ _____    ______ ____
ROOT
ATOM      1  C   UNL     1     -10.655  12.898  64.543  0.00  0.00    +0.031 C 
ATOM      2  C   UNL     1     -10.298  12.850  66.188  0.00  0.00    +0.007 C 
ATOM      3  C   UNL     1     -11.921  12.616  66.653  0.00  0.00    +0.007 C 
ATOM      4  C   UNL     1     -11.733  13.198  68.163  0.00  0.00    +0.029 C 
ATOM      5  C   UNL     1     -11.520  14.628  68.140  0.00  0.00    +0.008 A 
ATOM      6  C   UNL     1     -11.891  15.314  69.294  0.00  0.00    +0.135 A 
ATOM      7  C   UNL     1     -11.171  16.440  69.677  0.00  0.00    +0.037 A 
ATOM      8  C   UNL     1     -10.132  16.945  68.918  0.00  0.00    +0.003 A 
ATOM      9  C   UNL     1      -9.805  16.242  67.766  0.00  0.00    -0.004 A 
ATOM     10  C   UNL     1     -10.278  14.945  67.580  0.00  0.00    -0.023 A 
ATOM     11  C   UNL     1     -12.366  14.004  65.894  0.00  0.00    +0.033 C 
ATOM     12  C   UNL     1     -10.240  14.470  66.197  0.00  0.00    +0.026 C 
ATOM     13  C   UNL     1     -12.356  12.819  64.717  0.00  0.00    +0.152 C 
ATOM     14  O   UNL     1     -12.558  13.847  63.598  0.00  0.00    -0.223 OA
ENDROOT
BRANCH   1  15
ATOM     15  C   UNL     1     -10.542  11.292  64.399  0.00  0.00    +0.005 C 
BRANCH  15  16
ATOM     16  C   UNL     1      -9.178  10.933  64.989  0.00  0.00    +0.033 C 
BRANCH  16  17
ATOM     17  C   UNL     1      -9.331   9.264  64.956  0.00  0.00    +0.152 C 
ATOM     18  O   UNL     1      -7.920   9.087  65.554  0.00  0.00    -0.223 OA
BRANCH  17  19
ATOM     19  C   UNL     1     -10.021   9.250  66.480  0.00  0.00    +0.033 C 
BRANCH  19  20
ATOM     20  C   UNL     1      -8.908   9.713  67.404  0.00  0.00    +0.003 C 
BRANCH  20  21
ATOM     21  C   UNL     1      -9.402   9.885  68.792  0.00  0.00    +0.000 C 
BRANCH  21  23
ATOM     22  C   UNL     1     -11.151  10.207  70.261  0.00  0.00    +0.000 C 
ATOM     23  C   UNL     1     -10.872   9.714  68.991  0.00  0.00    +0.000 C 
ENDBRANCH  21  23
ENDBRANCH  20  21
ENDBRANCH  19  20
ENDBRANCH  17  19
ENDBRANCH  16  17
ENDBRANCH  15  16
ENDBRANCH   1  15
BRANCH   6  24
ATOM     24  O   UNL     1     -12.605  14.688  70.321  0.00  0.00    -0.464 OA
BRANCH  24  25
ATOM     25  C   UNL     1     -12.693  15.424  71.537  0.00  0.00    +0.319 C 
BRANCH  25  26
ATOM     26  C   UNL     1     -14.012  15.022  72.129  0.00  0.00    +0.408 C 
ATOM     27  O   UNL     1     -15.124  15.487  71.418  0.00  0.00    -0.241 OA
ATOM     28  O   UNL     1     -14.068  13.806  72.489  0.00  0.00    -0.241 OA
ENDBRANCH  25  26
ENDBRANCH  24  25
ENDBRANCH   6  24
TORSDOF 10
ENDMDL
MODEL 3
REMARK VINA RESULT:      -7.0      5.411      7.553
REMARK  Name = 
REMARK  10 active torsions:
REMARK  status: ('A' for Active; 'I' for Inactive)
REMARK    1  A    between atoms: C_2  and  C_3
REMARK    2  A    between atoms: C_3  and  C_4
REMARK    3  A    between atoms: C_4  and  C_5
REMARK    4  A    between atoms: C_5  and  C_6
REMARK    5  A    between atoms: C_6  and  C_8
REMARK    6  A    between atoms: C_8  and  C_9
REMARK    7  A    between atoms: C_9  and  C_10
REMARK    8  A    between atoms: C_21  and  O_22
REMARK    9  A    between atoms: O_22  and  C_23
REMARK   10  A    between atoms: C_23  and  C_24
REMARK                            x       y       z     vdW  Elec       q    Type
REMARK                         _______ _______ _______ _____ _____    ______ ____
ROOT
ATOM      1  C   UNL     1     -10.663  12.828  64.190  0.00  0.00    +0.031 C 
ATOM      2  C   UNL     1     -10.243  12.749  65.819  0.00  0.00    +0.007 C 
ATOM      3  C   UNL     1     -11.827  12.385  66.331  0.00  0.00    +0.007 C 
ATOM      4  C   UNL     1     -11.624  12.926  67.854  0.00  0.00    +0.029 C 
ATOM      5  C   UNL     1     -11.512  14.367  67.877  0.00  0.00    +0.008 A 
ATOM      6  C   UNL     1     -11.886  14.984  69.068  0.00  0.00    +0.135 A 
ATOM      7  C   UNL     1     -11.233  16.145  69.467  0.00  0.00    +0.037 A 
ATOM      8  C   UNL     1     -10.260  16.748  68.692  0.00  0.00    +0.003 A 
ATOM      9  C   UNL     1      -9.928  16.110  67.504  0.00  0.00    -0.004 A 
ATOM     10  C   UNL     1     -10.317  14.791  67.286  0.00  0.00    -0.023 A 
ATOM     11  C   UNL     1     -12.395  13.763  65.640  0.00  0.00    +0.033 C 
ATOM     12  C   UNL     1     -10.297  14.367  65.886  0.00  0.00    +0.026 C 
ATOM     13  C   UNL     1     -12.346  12.624  64.420  0.00  0.00    +0.152 C 
ATOM     14  O   UNL     1     -12.661  13.673  63.347  0.00  0.00    -0.223 OA
ENDROOT
BRANCH   1  15
ATOM     15  C   UNL     1     -10.444  11.240  63.983  0.00  0.00    +0.005 C 
BRANCH  15  16
ATOM     16  C   UNL     1      -9.033  10.960  64.500  0.00  0.00    +0.033 C 
BRANCH  16  17
ATOM     17  C   UNL     1      -9.040   9.292  64.335  0.00  0.00    +0.152 C 
ATOM     18  O   UNL     1      -7.671   9.181  65.035  0.00  0.00    -0.223 OA
BRANCH  17  19
ATOM     19  C   UNL     1      -9.843   9.103  65.790  0.00  0.00    +0.033 C 
BRANCH  19  20
ATOM     20  C   UNL     1      -8.791   9.397  66.845  0.00  0.00    +0.003 C 
BRANCH  20  21
ATOM     21  C   UNL     1      -9.407   9.946  68.076  0.00  0.00    +0.000 C 
BRANCH  21  23
ATOM     22  C   UNL     1      -7.654  11.438  67.936  0.00  0.00    +0.000 C 
ATOM     23  C   UNL     1      -8.588  10.936  68.835  0.00  0.00    +0.000 C 
ENDBRANCH  21  23
ENDBRANCH  20  21
ENDBRANCH  19  20
ENDBRANCH  17  19
ENDBRANCH  16  17
ENDBRANCH  15  16
ENDBRANCH   1  15
BRANCH   6  24
ATOM     24  O   UNL     1     -12.516  14.275  70.095  0.00  0.00    -0.464 OA
BRANCH  24  25
ATOM     25  C   UNL     1     -12.601  14.956  71.343  0.00  0.00    +0.319 C 
BRANCH  25  26
ATOM     26  C   UNL     1     -14.038  14.819  71.753  0.00  0.00    +0.408 C 
ATOM     27  O   UNL     1     -14.319  13.649  72.469  0.00  0.00    -0.241 OA
ATOM     28  O   UNL     1     -14.543  15.882  72.231  0.00  0.00    -0.241 OA
ENDBRANCH  25  26
ENDBRANCH  24  25
ENDBRANCH   6  24
TORSDOF 10
ENDMDL
MODEL 4
REMARK VINA RESULT:      -6.9      2.338      3.557
REMARK  Name = 
REMARK  10 active torsions:
REMARK  status: ('A' for Active; 'I' for Inactive)
REMARK    1  A    between atoms: C_2  and  C_3
REMARK    2  A    between atoms: C_3  and  C_4
REMARK    3  A    between atoms: C_4  and  C_5
REMARK    4  A    between atoms: C_5  and  C_6
REMARK    5  A    between atoms: C_6  and  C_8
REMARK    6  A    between atoms: C_8  and  C_9
REMARK    7  A    between atoms: C_9  and  C_10
REMARK    8  A    between atoms: C_21  and  O_22
REMARK    9  A    between atoms: O_22  and  C_23
REMARK   10  A    between atoms: C_23  and  C_24
REMARK                            x       y       z     vdW  Elec       q    Type
REMARK                         _______ _______ _______ _____ _____    ______ ____
ROOT
ATOM      1  C   UNL     1      -9.725  17.858  66.809  0.00  0.00    +0.031 C 
ATOM      2  C   UNL     1      -8.382  17.779  67.823  0.00  0.00    +0.007 C 
ATOM      3  C   UNL     1      -8.780  19.213  68.655  0.00  0.00    +0.007 C 
ATOM      4  C   UNL     1      -7.262  19.523  69.159  0.00  0.00    +0.029 C 
ATOM      5  C   UNL     1      -6.422  19.917  68.050  0.00  0.00    +0.008 A 
ATOM      6  C   UNL     1      -5.328  20.715  68.373  0.00  0.00    +0.135 A 
ATOM      7  C   UNL     1      -4.156  20.594  67.635  0.00  0.00    +0.037 A 
ATOM      8  C   UNL     1      -4.054  19.750  66.545  0.00  0.00    +0.003 A 
ATOM      9  C   UNL     1      -5.173  18.983  66.246  0.00  0.00    -0.004 A 
ATOM     10  C   UNL     1      -6.196  18.845  67.181  0.00  0.00    -0.023 A 
ATOM     11  C   UNL     1      -8.765  20.064  67.249  0.00  0.00    +0.033 C 
ATOM     12  C   UNL     1      -7.475  18.396  66.630  0.00  0.00    +0.026 C 
ATOM     13  C   UNL     1     -10.285  19.380  67.356  0.00  0.00    +0.152 C 
ATOM     14  O   UNL     1     -10.642  19.807  65.928  0.00  0.00    -0.223 OA
ENDROOT
BRANCH   1  15
ATOM     15  C   UNL     1     -10.660  17.073  67.867  0.00  0.00    +0.005 C 
BRANCH  15  16
ATOM     16  C   UNL     1     -10.138  15.636  67.872  0.00  0.00    +0.033 C 
BRANCH  16  17
ATOM     17  C   UNL     1     -11.570  14.859  68.265  0.00  0.00    +0.152 C 
ATOM     18  O   UNL     1     -10.824  13.871  69.184  0.00  0.00    -0.223 OA
BRANCH  17  19
ATOM     19  C   UNL     1     -11.842  15.903  69.543  0.00  0.00    +0.033 C 
BRANCH  19  20
ATOM     20  C   UNL     1     -12.117  14.991  70.726  0.00  0.00    +0.003 C 
BRANCH  20  21
ATOM     21  C   UNL     1     -11.939  15.712  72.009  0.00  0.00    +0.000 C 
BRANCH  21  23
ATOM     22  C   UNL     1     -12.519  15.635  74.240  0.00  0.00    +0.000 C 
ATOM     23  C   UNL     1     -13.080  15.636  72.968  0.00  0.00    +0.000 C 
ENDBRANCH  21  23
ENDBRANCH  20  21
ENDBRANCH  19  20
ENDBRANCH  17  19
ENDBRANCH  16  17
ENDBRANCH  15  16
ENDBRANCH   1  15
BRANCH   6  24
ATOM     24  O   UNL     1      -5.170  21.261  69.651  0.00  0.00    -0.464 OA
BRANCH  24  25
ATOM     25  C   UNL     1      -3.944  20.945  70.301  0.00  0.00    +0.319 C 
BRANCH  25  26
ATOM     26  C   UNL     1      -4.265  21.001  71.766  0.00  0.00    +0.408 C 
ATOM     27  O   UNL     1      -3.445  20.194  72.564  0.00  0.00    -0.241 OA
ATOM     28  O   UNL     1      -4.466  22.175  72.207  0.00  0.00    -0.241 OA
ENDBRANCH  25  26
ENDBRANCH  24  25
ENDBRANCH   6  24
TORSDOF 10
ENDMDL
MODEL 5
REMARK VINA RESULT:      -6.8      1.334      2.410
REMARK  Name = 
REMARK  10 active torsions:
REMARK  status: ('A' for Active; 'I' for Inactive)
REMARK    1  A    between atoms: C_2  and  C_3
REMARK    2  A    between atoms: C_3  and  C_4
REMARK    3  A    between atoms: C_4  and  C_5
REMARK    4  A    between atoms: C_5  and  C_6
REMARK    5  A    between atoms: C_6  and  C_8
REMARK    6  A    between atoms: C_8  and  C_9
REMARK    7  A    between atoms: C_9  and  C_10
REMARK    8  A    between atoms: C_21  and  O_22
REMARK    9  A    between atoms: O_22  and  C_23
REMARK   10  A    between atoms: C_23  and  C_24
REMARK                            x       y       z     vdW  Elec       q    Type
REMARK                         _______ _______ _______ _____ _____    ______ ____
ROOT
ATOM      1  C   UNL     1      -9.844  17.808  66.320  0.00  0.00    +0.031 C 
ATOM      2  C   UNL     1      -8.213  17.577  66.674  0.00  0.00    +0.007 C 
ATOM      3  C   UNL     1      -8.445  17.666  68.360  0.00  0.00    +0.007 C 
ATOM      4  C   UNL     1      -6.912  18.093  68.704  0.00  0.00    +0.029 C 
ATOM      5  C   UNL     1      -6.643  19.443  68.260  0.00  0.00    +0.008 A 
ATOM      6  C   UNL     1      -5.632  20.115  68.944  0.00  0.00    +0.135 A 
ATOM      7  C   UNL     1      -4.844  21.033  68.261  0.00  0.00    +0.037 A 
ATOM      8  C   UNL     1      -5.063  21.354  66.935  0.00  0.00    +0.003 A 
ATOM      9  C   UNL     1      -6.091  20.674  66.294  0.00  0.00    -0.004 A 
ATOM     10  C   UNL     1      -6.631  19.524  66.864  0.00  0.00    -0.023 A 
ATOM     11  C   UNL     1      -9.107  19.163  68.217  0.00  0.00    +0.033 C 
ATOM     12  C   UNL     1      -7.947  19.143  66.350  0.00  0.00    +0.026 C 
ATOM     13  C   UNL     1     -10.348  18.084  67.932  0.00  0.00    +0.152 C 
ATOM     14  O   UNL     1     -11.297  19.202  67.486  0.00  0.00    -0.223 OA
ENDROOT
BRANCH   1  15
ATOM     15  C   UNL     1     -10.165  16.228  66.433  0.00  0.00    +0.005 C 
BRANCH  15  16
ATOM     16  C   UNL     1     -10.736  15.838  65.070  0.00  0.00    +0.033 C 
BRANCH  16  17
ATOM     17  C   UNL     1     -10.875  14.188  65.328  0.00  0.00    +0.152 C 
ATOM     18  O   UNL     1      -9.597  14.178  66.191  0.00  0.00    -0.223 OA
BRANCH  17  19
ATOM     19  C   UNL     1     -11.832  14.431  66.679  0.00  0.00    +0.033 C 
BRANCH  19  20
ATOM     20  C   UNL     1     -11.674  13.157  67.490  0.00  0.00    +0.003 C 
BRANCH  20  21
ATOM     21  C   UNL     1     -11.797  13.429  68.942  0.00  0.00    +0.000 C 
BRANCH  21  23
ATOM     22  C   UNL     1     -10.866  15.158  70.152  0.00  0.00    +0.000 C 
ATOM     23  C   UNL     1     -11.949  14.862  69.332  0.00  0.00    +0.000 C 
ENDBRANCH  21  23
ENDBRANCH  20  21
ENDBRANCH  19  20
ENDBRANCH  17  19
ENDBRANCH  16  17
ENDBRANCH  15  16
ENDBRANCH   1  15
BRANCH   6  24
ATOM     24  O   UNL     1      -5.061  19.590  70.107  0.00  0.00    -0.464 OA
BRANCH  24  25
ATOM     25  C   UNL     1      -5.463  20.219  71.320  0.00  0.00    +0.319 C 
BRANCH  25  26
ATOM     26  C   UNL     1      -4.226  20.907  71.820  0.00  0.00    +0.408 C 
ATOM     27  O   UNL     1      -4.448  22.201  72.306  0.00  0.00    -0.241 OA
ATOM     28  O   UNL     1      -3.485  20.174  72.545  0.00  0.00    -0.241 OA
ENDBRANCH  25  26
ENDBRANCH  24  25
ENDBRANCH   6  24
TORSDOF 10
ENDMDL
MODEL 6
REMARK VINA RESULT:      -6.7      4.991      8.870
REMARK  Name = 
REMARK  10 active torsions:
REMARK  status: ('A' for Active; 'I' for Inactive)
REMARK    1  A    between atoms: C_2  and  C_3
REMARK    2  A    between atoms: C_3  and  C_4
REMARK    3  A    between atoms: C_4  and  C_5
REMARK    4  A    between atoms: C_5  and  C_6
REMARK    5  A    between atoms: C_6  and  C_8
REMARK    6  A    between atoms: C_8  and  C_9
REMARK    7  A    between atoms: C_9  and  C_10
REMARK    8  A    between atoms: C_21  and  O_22
REMARK    9  A    between atoms: O_22  and  C_23
REMARK   10  A    between atoms: C_23  and  C_24
REMARK                            x       y       z     vdW  Elec       q    Type
REMARK                         _______ _______ _______ _____ _____    ______ ____
ROOT
ATOM      1  C   UNL     1     -11.675  15.689  68.451  0.00  0.00    +0.031 C 
ATOM      2  C   UNL     1     -11.753  14.019  68.243  0.00  0.00    +0.007 C 
ATOM      3  C   UNL     1     -10.059  13.827  68.202  0.00  0.00    +0.007 C 
ATOM      4  C   UNL     1     -10.084  12.419  67.384  0.00  0.00    +0.029 C 
ATOM      5  C   UNL     1     -10.502  12.628  66.015  0.00  0.00    +0.008 A 
ATOM      6  C   UNL     1     -10.053  11.683  65.095  0.00  0.00    +0.135 A 
ATOM      7  C   UNL     1     -10.856  11.358  64.008  0.00  0.00    +0.037 A 
ATOM      8  C   UNL     1     -12.065  11.984  63.769  0.00  0.00    +0.003 A 
ATOM      9  C   UNL     1     -12.469  12.931  64.701  0.00  0.00    -0.004 A 
ATOM     10  C   UNL     1     -11.850  12.995  65.948  0.00  0.00    -0.023 A 
ATOM     11  C   UNL     1      -9.946  14.864  66.932  0.00  0.00    +0.033 C 
ATOM     12  C   UNL     1     -12.041  14.255  66.665  0.00  0.00    +0.026 C 
ATOM     13  C   UNL     1      -9.975  15.818  68.302  0.00  0.00    +0.152 C 
ATOM     14  O   UNL     1     -10.105  17.103  67.477  0.00  0.00    -0.223 OA
ENDROOT
BRANCH   1  15
ATOM     15  C   UNL     1     -11.578  15.554  70.059  0.00  0.00    +0.005 C 
BRANCH  15  16
ATOM     16  C   UNL     1     -12.701  14.593  70.449  0.00  0.00    +0.033 C 
BRANCH  16  17
ATOM     17  C   UNL     1     -12.879  15.063  72.048  0.00  0.00    +0.152 C 
ATOM     18  O   UNL     1     -14.275  15.650  71.758  0.00  0.00    -0.223 OA
BRANCH  17  19
ATOM     19  C   UNL     1     -13.543  13.583  72.458  0.00  0.00    +0.033 C 
BRANCH  19  20
ATOM     20  C   UNL     1     -12.881  12.596  71.514  0.00  0.00    +0.003 C 
BRANCH  20  21
ATOM     21  C   UNL     1     -13.272  11.203  71.837  0.00  0.00    +0.000 C 
BRANCH  21  23
ATOM     22  C   UNL     1     -12.782   8.951  71.946  0.00  0.00    +0.000 C 
ATOM     23  C   UNL     1     -12.348  10.133  71.357  0.00  0.00    +0.000 C 
ENDBRANCH  21  23
ENDBRANCH  20  21
ENDBRANCH  19  20
ENDBRANCH  17  19
ENDBRANCH  16  17
ENDBRANCH  15  16
ENDBRANCH   1  15
BRANCH   6  24
ATOM     24  O   UNL     1      -9.101  10.719  65.439  0.00  0.00    -0.464 OA
BRANCH  24  25
ATOM     25  C   UNL     1      -9.469   9.372  65.159  0.00  0.00    +0.319 C 
BRANCH  25  26
ATOM     26  C   UNL     1      -9.537   8.709  66.503  0.00  0.00    +0.408 C 
ATOM     27  O   UNL     1      -8.426   8.954  67.319  0.00  0.00    -0.241 OA
ATOM     28  O   UNL     1     -10.665   8.816  67.076  0.00  0.00    -0.241 OA
ENDBRANCH  25  26
ENDBRANCH  24  25
ENDBRANCH   6  24
TORSDOF 10
ENDMDL
MODEL 7
REMARK VINA RESULT:      -6.5      1.524      2.178
REMARK  Name = 
REMARK  10 active torsions:
REMARK  status: ('A' for Active; 'I' for Inactive)
REMARK    1  A    between atoms: C_2  and  C_3
REMARK    2  A    between atoms: C_3  and  C_4
REMARK    3  A    between atoms: C_4  and  C_5
REMARK    4  A    between atoms: C_5  and  C_6
REMARK    5  A    between atoms: C_6  and  C_8
REMARK    6  A    between atoms: C_8  and  C_9
REMARK    7  A    between atoms: C_9  and  C_10
REMARK    8  A    between atoms: C_21  and  O_22
REMARK    9  A    between atoms: O_22  and  C_23
REMARK   10  A    between atoms: C_23  and  C_24
REMARK                            x       y       z     vdW  Elec       q    Type
REMARK                         _______ _______ _______ _____ _____    ______ ____
ROOT
ATOM      1  C   UNL     1      -9.856  16.525  66.673  0.00  0.00    +0.031 C 
ATOM      2  C   UNL     1      -8.199  16.751  66.878  0.00  0.00    +0.007 C 
ATOM      3  C   UNL     1      -8.276  16.641  68.577  0.00  0.00    +0.007 C 
ATOM      4  C   UNL     1      -6.899  17.467  68.847  0.00  0.00    +0.029 C 
ATOM      5  C   UNL     1      -7.067  18.867  68.523  0.00  0.00    +0.008 A 
ATOM      6  C   UNL     1      -6.224  19.749  69.194  0.00  0.00    +0.135 A 
ATOM      7  C   UNL     1      -5.799  20.906  68.551  0.00  0.00    +0.037 A 
ATOM      8  C   UNL     1      -6.233  21.248  67.283  0.00  0.00    +0.003 A 
ATOM      9  C   UNL     1      -7.086  20.349  66.655  0.00  0.00    -0.004 A 
ATOM     10  C   UNL     1      -7.220  19.052  67.145  0.00  0.00    -0.023 A 
ATOM     11  C   UNL     1      -9.344  17.888  68.636  0.00  0.00    +0.033 C 
ATOM     12  C   UNL     1      -8.419  18.346  66.695  0.00  0.00    +0.026 C 
ATOM     13  C   UNL     1     -10.253  16.520  68.337  0.00  0.00    +0.152 C 
ATOM     14  O   UNL     1     -11.518  17.346  68.078  0.00  0.00    -0.223 OA
ENDROOT
BRANCH   1  15
ATOM     15  C   UNL     1      -9.705  14.916  66.649  0.00  0.00    +0.005 C 
BRANCH  15  16
ATOM     16  C   UNL     1     -10.292  14.479  65.307  0.00  0.00    +0.033 C 
BRANCH  16  17
ATOM     17  C   UNL     1     -11.855  14.154  65.820  0.00  0.00    +0.152 C 
ATOM     18  O   UNL     1     -12.387  14.245  64.376  0.00  0.00    -0.223 OA
BRANCH  17  19
ATOM     19  C   UNL     1     -11.613  12.505  65.668  0.00  0.00    +0.033 C 
BRANCH  19  20
ATOM     20  C   UNL     1     -11.243  12.310  64.209  0.00  0.00    +0.003 C 
BRANCH  20  21
ATOM     21  C   UNL     1     -10.393  11.108  64.029  0.00  0.00    +0.000 C 
BRANCH  21  23
ATOM     22  C   UNL     1      -9.401   9.845  62.374  0.00  0.00    +0.000 C 
ATOM     23  C   UNL     1      -9.445  11.140  62.877  0.00  0.00    +0.000 C 
ENDBRANCH  21  23
ENDBRANCH  20  21
ENDBRANCH  19  20
ENDBRANCH  17  19
ENDBRANCH  16  17
ENDBRANCH  15  16
ENDBRANCH   1  15
BRANCH   6  24
ATOM     24  O   UNL     1      -5.414  19.327  70.253  0.00  0.00    -0.464 OA
BRANCH  24  25
ATOM     25  C   UNL     1      -5.644  19.984  71.495  0.00  0.00    +0.319 C 
BRANCH  25  26
ATOM     26  C   UNL     1      -4.354  20.688  71.797  0.00  0.00    +0.408 C 
ATOM     27  O   UNL     1      -4.509  22.023  72.189  0.00  0.00    -0.241 OA
ATOM     28  O   UNL     1      -3.545  20.007  72.500  0.00  0.00    -0.241 OA
ENDBRANCH  25  26
ENDBRANCH  24  25
ENDBRANCH   6  24
TORSDOF 10
ENDMDL
MODEL 8
REMARK VINA RESULT:      -6.4      5.017     10.135
REMARK  Name = 
REMARK  10 active torsions:
REMARK  status: ('A' for Active; 'I' for Inactive)
REMARK    1  A    between atoms: C_2  and  C_3
REMARK    2  A    between atoms: C_3  and  C_4
REMARK    3  A    between atoms: C_4  and  C_5
REMARK    4  A    between atoms: C_5  and  C_6
REMARK    5  A    between atoms: C_6  and  C_8
REMARK    6  A    between atoms: C_8  and  C_9
REMARK    7  A    between atoms: C_9  and  C_10
REMARK    8  A    between atoms: C_21  and  O_22
REMARK    9  A    between atoms: O_22  and  C_23
REMARK   10  A    between atoms: C_23  and  C_24
REMARK                            x       y       z     vdW  Elec       q    Type
REMARK                         _______ _______ _______ _____ _____    ______ ____
ROOT
ATOM      1  C   UNL     1     -10.987  13.406  67.010  0.00  0.00    +0.031 C 
ATOM      2  C   UNL     1     -10.302  12.761  68.407  0.00  0.00    +0.007 C 
ATOM      3  C   UNL     1     -10.008  11.237  67.700  0.00  0.00    +0.007 C 
ATOM      4  C   UNL     1      -9.966  10.420  69.108  0.00  0.00    +0.029 C 
ATOM      5  C   UNL     1     -11.284  10.346  69.700  0.00  0.00    +0.008 A 
ATOM      6  C   UNL     1     -11.504   9.266  70.551  0.00  0.00    +0.135 A 
ATOM      7  C   UNL     1     -12.358   9.420  71.637  0.00  0.00    +0.037 A 
ATOM      8  C   UNL     1     -13.048  10.594  71.873  0.00  0.00    +0.003 A 
ATOM      9  C   UNL     1     -12.812  11.641  70.992  0.00  0.00    -0.004 A 
ATOM     10  C   UNL     1     -11.713  11.603  70.138  0.00  0.00    -0.023 A 
ATOM     11  C   UNL     1     -11.604  11.064  67.347  0.00  0.00    +0.033 C 
ATOM     12  C   UNL     1     -11.792  12.509  68.993  0.00  0.00    +0.026 C 
ATOM     13  C   UNL     1     -10.952  11.959  66.097  0.00  0.00    +0.152 C 
ATOM     14  O   UNL     1     -12.336  12.251  65.506  0.00  0.00    -0.223 OA
ENDROOT
BRANCH   1  15
ATOM     15  C   UNL     1      -9.550  13.869  66.434  0.00  0.00    +0.005 C 
BRANCH  15  16
ATOM     16  C   UNL     1      -9.791  15.246  65.816  0.00  0.00    +0.033 C 
BRANCH  16  17
ATOM     17  C   UNL     1      -8.854  16.152  66.869  0.00  0.00    +0.152 C 
ATOM     18  O   UNL     1      -8.495  17.149  65.749  0.00  0.00    -0.223 OA
BRANCH  17  19
ATOM     19  C   UNL     1     -10.173  17.077  67.323  0.00  0.00    +0.033 C 
BRANCH  19  20
ATOM     20  C   UNL     1     -10.222  16.951  68.835  0.00  0.00    +0.003 C 
BRANCH  20  21
ATOM     21  C   UNL     1     -11.440  16.227  69.271  0.00  0.00    +0.000 C 
BRANCH  21  23
ATOM     22  C   UNL     1     -12.809  15.566  71.006  0.00  0.00    +0.000 C 
ATOM     23  C   UNL     1     -11.473  15.799  70.701  0.00  0.00    +0.000 C 
ENDBRANCH  21  23
ENDBRANCH  20  21
ENDBRANCH  19  20
ENDBRANCH  17  19
ENDBRANCH  16  17
ENDBRANCH  15  16
ENDBRANCH   1  15
BRANCH   6  24
ATOM     24  O   UNL     1     -10.583   8.221  70.663  0.00  0.00    -0.464 OA
BRANCH  24  25
ATOM     25  C   UNL     1     -11.057   6.943  70.249  0.00  0.00    +0.319 C 
BRANCH  25  26
ATOM     26  C   UNL     1     -10.966   6.088  71.479  0.00  0.00    +0.408 C 
ATOM     27  O   UNL     1      -9.846   6.348  72.276  0.00  0.00    -0.241 OA
ATOM     28  O   UNL     1     -12.063   5.968  72.108  0.00  0.00    -0.241 OA
ENDBRANCH  25  26
ENDBRANCH  24  25
ENDBRANCH   6  24
TORSDOF 10
ENDMDL
MODEL 9
REMARK VINA RESULT:      -6.4      2.183      3.820
REMARK  Name = 
REMARK  10 active torsions:
REMARK  status: ('A' for Active; 'I' for Inactive)
REMARK    1  A    between atoms: C_2  and  C_3
REMARK    2  A    between atoms: C_3  and  C_4
REMARK    3  A    between atoms: C_4  and  C_5
REMARK    4  A    between atoms: C_5  and  C_6
REMARK    5  A    between atoms: C_6  and  C_8
REMARK    6  A    between atoms: C_8  and  C_9
REMARK    7  A    between atoms: C_9  and  C_10
REMARK    8  A    between atoms: C_21  and  O_22
REMARK    9  A    between atoms: O_22  and  C_23
REMARK   10  A    between atoms: C_23  and  C_24
REMARK                            x       y       z     vdW  Elec       q    Type
REMARK                         _______ _______ _______ _____ _____    ______ ____
ROOT
ATOM      1  C   UNL     1     -11.725  14.536  68.649  0.00  0.00    +0.031 C 
ATOM      2  C   UNL     1     -10.286  15.099  67.978  0.00  0.00    +0.007 C 
ATOM      3  C   UNL     1      -9.611  15.521  69.485  0.00  0.00    +0.007 C 
ATOM      4  C   UNL     1      -8.565  16.616  68.884  0.00  0.00    +0.029 C 
ATOM      5  C   UNL     1      -9.266  17.789  68.411  0.00  0.00    +0.008 A 
ATOM      6  C   UNL     1      -8.528  18.970  68.399  0.00  0.00    +0.135 A 
ATOM      7  C   UNL     1      -8.779  19.919  67.415  0.00  0.00    +0.037 A 
ATOM      8  C   UNL     1      -9.782  19.762  66.476  0.00  0.00    +0.003 A 
ATOM      9  C   UNL     1     -10.505  18.577  66.533  0.00  0.00    -0.004 A 
ATOM     10  C   UNL     1     -10.026  17.500  67.273  0.00  0.00    -0.023 A 
ATOM     11  C   UNL     1     -10.877  16.518  69.803  0.00  0.00    +0.033 C 
ATOM     12  C   UNL     1     -11.031  16.491  67.611  0.00  0.00    +0.026 C 
ATOM     13  C   UNL     1     -11.370  14.990  70.261  0.00  0.00    +0.152 C 
ATOM     14  O   UNL     1     -12.812  15.459  70.488  0.00  0.00    -0.223 OA
ENDROOT
BRANCH   1  15
ATOM     15  C   UNL     1     -11.122  13.054  68.877  0.00  0.00    +0.005 C 
BRANCH  15  16
ATOM     16  C   UNL     1     -10.379  12.722  67.583  0.00  0.00    +0.033 C 
BRANCH  16  17
ATOM     17  C   UNL     1     -10.483  11.051  67.666  0.00  0.00    +0.152 C 
ATOM     18  O   UNL     1     -12.017  11.117  67.811  0.00  0.00    -0.223 OA
BRANCH  17  19
ATOM     19  C   UNL     1     -10.607  10.928  66.001  0.00  0.00    +0.033 C 
BRANCH  19  20
ATOM     20  C   UNL     1     -10.314  12.330  65.496  0.00  0.00    +0.003 C 
BRANCH  20  21
ATOM     21  C   UNL     1     -11.147  12.656  64.313  0.00  0.00    +0.000 C 
BRANCH  21  23
ATOM     22  C   UNL     1     -12.822  13.929  65.259  0.00  0.00    +0.000 C 
ATOM     23  C   UNL     1     -11.800  13.999  64.321  0.00  0.00    +0.000 C 
ENDBRANCH  21  23
ENDBRANCH  20  21
ENDBRANCH  19  20
ENDBRANCH  17  19
ENDBRANCH  16  17
ENDBRANCH  15  16
ENDBRANCH   1  15
BRANCH   6  24
ATOM     24  O   UNL     1      -7.265  19.052  68.993  0.00  0.00    -0.464 OA
BRANCH  24  25
ATOM     25  C   UNL     1      -6.483  20.178  68.609  0.00  0.00    +0.319 C 
BRANCH  25  26
ATOM     26  C   UNL     1      -5.643  20.486  69.814  0.00  0.00    +0.408 C 
ATOM     27  O   UNL     1      -6.349  20.472  71.022  0.00  0.00    -0.241 OA
ATOM     28  O   UNL     1      -4.524  19.886  69.832  0.00  0.00    -0.241 OA
ENDBRANCH  25  26
ENDBRANCH  24  25
ENDBRANCH   6  24
TORSDOF 10
ENDMDL
