MODEL 1
REMARK VINA RESULT:      -7.0      0.000      0.000
REMARK  Name = 
REMARK  0 active torsions:
REMARK  status: ('A' for Active; 'I' for Inactive)
REMARK                            x       y       z     vdW  Elec       q    Type
REMARK                         _______ _______ _______ _____ _____    ______ ____
ROOT
ATOM      1  N   UNL     1     -13.185  10.309  71.067  0.00  0.00    +0.144 NA
ATOM      2  C   UNL     1     -12.087  10.715  70.319  0.00  0.00    +0.447 C 
ATOM      3  N   UNL     1     -11.981  11.990  69.724  0.00  0.00    -0.169 N 
ATOM      4  C   UNL     1     -10.554  11.920  68.992  0.00  0.00    +0.204 C 
ATOM      5  C   UNL     1     -11.148  12.695  67.679  0.00  0.00    +0.012 A 
ATOM      6  C   UNL     1     -11.524  14.017  67.743  0.00  0.00    -0.019 A 
ATOM      7  C   UNL     1     -11.518  15.014  68.857  0.00  0.00    +0.055 C 
ATOM      8  C   UNL     1     -12.281  14.452  70.011  0.00  0.00    +0.011 A 
ATOM      9  C   UNL     1     -12.946  15.409  70.763  0.00  0.00    -0.001 A 
ATOM     10  C   UNL     1     -13.199  15.133  72.102  0.00  0.00    -0.000 A 
ATOM     11  C   UNL     1     -13.337  13.830  72.536  0.00  0.00    +0.003 A 
ATOM     12  C   UNL     1     -13.039  12.815  71.637  0.00  0.00    +0.031 A 
ATOM     13  C   UNL     1     -11.987  14.544  66.541  0.00  0.00    -0.004 A 
ATOM     14  C   UNL     1     -12.599  13.657  65.660  0.00  0.00    -0.000 A 
ATOM     15  C   UNL     1     -12.036  12.385  65.584  0.00  0.00    -0.000 A 
ATOM     16  C   UNL     1     -11.262  11.884  66.632  0.00  0.00    -0.001 A 
ATOM     17  C   UNL     1     -10.888  10.374  68.434  0.00  0.00    +0.262 C 
ATOM     18  C   UNL     1     -12.336  13.146  70.485  0.00  0.00    +0.109 A 
ATOM     19  N   UNL     1     -11.337   9.853  69.700  0.00  0.00    -0.092 NA
ENDROOT
TORSDOF 0
ENDMDL
MODEL 2
REMARK VINA RESULT:      -6.9      2.933      6.117
REMARK  Name = 
REMARK  0 active torsions:
REMARK  status: ('A' for Active; 'I' for Inactive)
REMARK                            x       y       z     vdW  Elec       q    Type
REMARK                         _______ _______ _______ _____ _____    ______ ____
ROOT
ATOM      1  N   UNL     1     -11.351  16.392  64.286  0.00  0.00    +0.144 NA
ATOM      2  C   UNL     1     -10.580  16.312  65.439  0.00  0.00    +0.447 C 
ATOM      3  N   UNL     1     -10.656  15.238  66.352  0.00  0.00    -0.169 N 
ATOM      4  C   UNL     1      -9.585  15.652  67.473  0.00  0.00    +0.204 C 
ATOM      5  C   UNL     1     -10.585  15.147  68.667  0.00  0.00    +0.012 A 
ATOM      6  C   UNL     1     -10.876  13.813  68.834  0.00  0.00    -0.019 A 
ATOM      7  C   UNL     1     -10.445  12.587  68.095  0.00  0.00    +0.055 C 
ATOM      8  C   UNL     1     -10.764  12.761  66.646  0.00  0.00    +0.011 A 
ATOM      9  C   UNL     1     -11.091  11.579  65.998  0.00  0.00    -0.001 A 
ATOM     10  C   UNL     1     -10.858  11.495  64.630  0.00  0.00    -0.000 A 
ATOM     11  C   UNL     1     -10.870  12.630  63.845  0.00  0.00    +0.003 A 
ATOM     12  C   UNL     1     -10.940  13.859  64.488  0.00  0.00    +0.031 A 
ATOM     13  C   UNL     1     -11.721  13.537  69.905  0.00  0.00    -0.004 A 
ATOM     14  C   UNL     1     -12.632  14.528  70.259  0.00  0.00    -0.000 A 
ATOM     15  C   UNL     1     -12.169  15.840  70.179  0.00  0.00    -0.000 A 
ATOM     16  C   UNL     1     -11.088  16.165  69.358  0.00  0.00    -0.001 A 
ATOM     17  C   UNL     1     -10.140  17.235  67.455  0.00  0.00    +0.262 C 
ATOM     18  C   UNL     1     -10.684  13.899  65.853  0.00  0.00    +0.109 A 
ATOM     19  N   UNL     1     -10.124  17.381  66.021  0.00  0.00    -0.092 NA
ENDROOT
TORSDOF 0
ENDMDL
MODEL 3
REMARK VINA RESULT:      -6.6      1.848      4.035
REMARK  Name = 
REMARK  0 active torsions:
REMARK  status: ('A' for Active; 'I' for Inactive)
REMARK                            x       y       z     vdW  Elec       q    Type
REMARK                         _______ _______ _______ _____ _____    ______ ____
ROOT
ATOM      1  N   UNL     1     -10.110  15.216  69.149  0.00  0.00    +0.144 NA
ATOM      2  C   UNL     1     -10.621  14.021  68.660  0.00  0.00    +0.447 C 
ATOM      3  N   UNL     1     -11.242  13.050  69.475  0.00  0.00    -0.169 N 
ATOM      4  C   UNL     1     -11.624  11.899  68.424  0.00  0.00    +0.204 C 
ATOM      5  C   UNL     1     -11.168  10.733  69.478  0.00  0.00    +0.012 A 
ATOM      6  C   UNL     1     -11.878  10.502  70.633  0.00  0.00    -0.019 A 
ATOM      7  C   UNL     1     -13.100  11.141  71.210  0.00  0.00    +0.055 C 
ATOM      8  C   UNL     1     -12.870  12.612  71.317  0.00  0.00    +0.011 A 
ATOM      9  C   UNL     1     -13.515  13.204  72.393  0.00  0.00    -0.001 A 
ATOM     10  C   UNL     1     -13.850  14.550  72.297  0.00  0.00    -0.000 A 
ATOM     11  C   UNL     1     -13.113  15.402  71.500  0.00  0.00    +0.003 A 
ATOM     12  C   UNL     1     -12.153  14.840  70.668  0.00  0.00    +0.031 A 
ATOM     13  C   UNL     1     -11.383   9.463  71.416  0.00  0.00    -0.004 A 
ATOM     14  C   UNL     1     -10.014   9.219  71.345  0.00  0.00    -0.000 A 
ATOM     15  C   UNL     1      -9.434   9.354  70.085  0.00  0.00    -0.000 A 
ATOM     16  C   UNL     1     -10.044  10.133  69.099  0.00  0.00    -0.001 A 
ATOM     17  C   UNL     1     -10.126  12.044  67.682  0.00  0.00    +0.262 C 
ATOM     18  C   UNL     1     -12.197  13.467  70.453  0.00  0.00    +0.109 A 
ATOM     19  N   UNL     1     -10.152  13.480  67.575  0.00  0.00    -0.092 NA
ENDROOT
TORSDOF 0
ENDMDL
MODEL 4
REMARK VINA RESULT:      -6.6      2.971      4.741
REMARK  Name = 
REMARK  0 active torsions:
REMARK  status: ('A' for Active; 'I' for Inactive)
REMARK                            x       y       z     vdW  Elec       q    Type
REMARK                         _______ _______ _______ _____ _____    ______ ____
ROOT
ATOM      1  N   UNL     1     -10.564  16.616  65.008  0.00  0.00    +0.144 NA
ATOM      2  C   UNL     1     -11.448  15.545  65.006  0.00  0.00    +0.447 C 
ATOM      3  N   UNL     1     -11.430  14.520  65.977  0.00  0.00    -0.169 N 
ATOM      4  C   UNL     1     -12.626  13.561  65.501  0.00  0.00    +0.204 C 
ATOM      5  C   UNL     1     -11.738  12.227  65.834  0.00  0.00    +0.012 A 
ATOM      6  C   UNL     1     -11.418  11.891  67.129  0.00  0.00    -0.019 A 
ATOM      7  C   UNL     1     -11.726  12.535  68.443  0.00  0.00    +0.055 C 
ATOM      8  C   UNL     1     -11.264  13.954  68.403  0.00  0.00    +0.011 A 
ATOM      9  C   UNL     1     -10.829  14.438  69.628  0.00  0.00    -0.001 A 
ATOM     10  C   UNL     1     -10.913  15.805  69.862  0.00  0.00    -0.000 A 
ATOM     11  C   UNL     1     -10.860  16.701  68.814  0.00  0.00    +0.003 A 
ATOM     12  C   UNL     1     -10.902  16.189  67.523  0.00  0.00    +0.031 A 
ATOM     13  C   UNL     1     -10.681  10.717  67.255  0.00  0.00    -0.004 A 
ATOM     14  C   UNL     1      -9.849  10.381  66.191  0.00  0.00    -0.000 A 
ATOM     15  C   UNL     1     -10.348  10.646  64.917  0.00  0.00    -0.000 A 
ATOM     16  C   UNL     1     -11.348  11.601  64.728  0.00  0.00    -0.001 A 
ATOM     17  C   UNL     1     -12.130  13.693  63.904  0.00  0.00    +0.262 C 
ATOM     18  C   UNL     1     -11.301  14.868  67.356  0.00  0.00    +0.109 A 
ATOM     19  N   UNL     1     -12.001  15.128  63.906  0.00  0.00    -0.092 NA
ENDROOT
TORSDOF 0
ENDMDL
MODEL 5
REMARK VINA RESULT:      -6.6      2.119      3.908
REMARK  Name = 
REMARK  0 active torsions:
REMARK  status: ('A' for Active; 'I' for Inactive)
REMARK                            x       y       z     vdW  Elec       q    Type
REMARK                         _______ _______ _______ _____ _____    ______ ____
ROOT
ATOM      1  N   UNL     1     -11.929  16.048  71.194  0.00  0.00    +0.144 NA
ATOM      2  C   UNL     1     -11.909  15.634  69.868  0.00  0.00    +0.447 C 
ATOM      3  N   UNL     1     -11.576  14.323  69.468  0.00  0.00    -0.169 N 
ATOM      4  C   UNL     1     -11.700  14.399  67.869  0.00  0.00    +0.204 C 
ATOM      5  C   UNL     1     -10.346  13.498  67.684  0.00  0.00    +0.012 A 
ATOM      6  C   UNL     1     -10.322  12.170  68.042  0.00  0.00    -0.019 A 
ATOM      7  C   UNL     1     -11.358  11.264  68.626  0.00  0.00    +0.055 C 
ATOM      8  C   UNL     1     -11.883  11.880  69.881  0.00  0.00    +0.011 A 
ATOM      9  C   UNL     1     -12.255  10.955  70.846  0.00  0.00    -0.001 A 
ATOM     10  C   UNL     1     -13.230  11.323  71.766  0.00  0.00    -0.000 A 
ATOM     11  C   UNL     1     -13.408  12.648  72.108  0.00  0.00    +0.003 A 
ATOM     12  C   UNL     1     -12.712  13.603  71.378  0.00  0.00    +0.031 A 
ATOM     13  C   UNL     1      -9.109  11.530  67.802  0.00  0.00    -0.004 A 
ATOM     14  C   UNL     1      -7.962  12.318  67.855  0.00  0.00    -0.000 A 
ATOM     15  C   UNL     1      -8.079  13.604  67.333  0.00  0.00    -0.000 A 
ATOM     16  C   UNL     1      -9.328  14.220  67.227  0.00  0.00    -0.001 A 
ATOM     17  C   UNL     1     -10.913  15.881  67.854  0.00  0.00    +0.262 C 
ATOM     18  C   UNL     1     -12.137  13.214  70.174  0.00  0.00    +0.109 A 
ATOM     19  N   UNL     1     -11.701  16.478  68.902  0.00  0.00    -0.092 NA
ENDROOT
TORSDOF 0
ENDMDL
MODEL 6
REMARK VINA RESULT:      -6.3      1.910      3.804
REMARK  Name = 
REMARK  0 active torsions:
REMARK  status: ('A' for Active; 'I' for Inactive)
REMARK                            x       y       z     vdW  Elec       q    Type
REMARK                         _______ _______ _______ _____ _____    ______ ____
ROOT
ATOM      1  N   UNL     1     -10.941  16.619  69.218  0.00  0.00    +0.144 NA
ATOM      2  C   UNL     1     -11.301  15.516  68.454  0.00  0.00    +0.447 C 
ATOM      3  N   UNL     1     -11.532  14.235  69.000  0.00  0.00    -0.169 N 
ATOM      4  C   UNL     1     -11.897  13.360  67.704  0.00  0.00    +0.204 C 
ATOM      5  C   UNL     1     -11.006  12.102  68.256  0.00  0.00    +0.012 A 
ATOM      6  C   UNL     1     -11.394  11.391  69.368  0.00  0.00    -0.019 A 
ATOM      7  C   UNL     1     -12.565  11.518  70.288  0.00  0.00    +0.055 C 
ATOM      8  C   UNL     1     -12.610  12.912  70.822  0.00  0.00    +0.011 A 
ATOM      9  C   UNL     1     -13.113  13.003  72.112  0.00  0.00    -0.001 A 
ATOM     10  C   UNL     1     -13.717  14.193  72.497  0.00  0.00    -0.000 A 
ATOM     11  C   UNL     1     -13.349  15.389  71.914  0.00  0.00    +0.003 A 
ATOM     12  C   UNL     1     -12.498  15.338  70.817  0.00  0.00    +0.031 A 
ATOM     13  C   UNL     1     -10.549  10.336  69.701  0.00  0.00    -0.004 A 
ATOM     14  C   UNL     1      -9.207  10.474  69.359  0.00  0.00    -0.000 A 
ATOM     15  C   UNL     1      -8.948  11.091  68.137  0.00  0.00    -0.000 A 
ATOM     16  C   UNL     1      -9.894  11.933  67.548  0.00  0.00    -0.001 A 
ATOM     17  C   UNL     1     -10.650  14.075  66.839  0.00  0.00    +0.262 C 
ATOM     18  C   UNL     1     -12.318  14.113  70.186  0.00  0.00    +0.109 A 
ATOM     19  N   UNL     1     -10.979  15.431  67.198  0.00  0.00    -0.092 NA
ENDROOT
TORSDOF 0
ENDMDL
MODEL 7
REMARK VINA RESULT:      -6.3      2.657      6.189
REMARK  Name = 
REMARK  0 active torsions:
REMARK  status: ('A' for Active; 'I' for Inactive)
REMARK                            x       y       z     vdW  Elec       q    Type
REMARK                         _______ _______ _______ _____ _____    ______ ____
ROOT
ATOM      1  N   UNL     1     -12.886  12.619  64.334  0.00  0.00    +0.144 NA
ATOM      2  C   UNL     1     -12.096  13.078  65.381  0.00  0.00    +0.447 C 
ATOM      3  N   UNL     1     -11.215  12.251  66.111  0.00  0.00    -0.169 N 
ATOM      4  C   UNL     1     -10.581  13.267  67.179  0.00  0.00    +0.204 C 
ATOM      5  C   UNL     1     -10.680  12.141  68.364  0.00  0.00    +0.012 A 
ATOM      6  C   UNL     1      -9.896  11.012  68.338  0.00  0.00    -0.019 A 
ATOM      7  C   UNL     1      -8.864  10.522  67.373  0.00  0.00    +0.055 C 
ATOM      8  C   UNL     1      -9.468  10.470  66.008  0.00  0.00    +0.011 A 
ATOM      9  C   UNL     1      -8.965   9.453  65.210  0.00  0.00    -0.001 A 
ATOM     10  C   UNL     1      -8.997   9.624  63.831  0.00  0.00    -0.000 A 
ATOM     11  C   UNL     1      -9.958  10.423  63.246  0.00  0.00    +0.003 A 
ATOM     12  C   UNL     1     -10.765  11.183  64.083  0.00  0.00    +0.031 A 
ATOM     13  C   UNL     1     -10.074  10.160  69.425  0.00  0.00    -0.004 A 
ATOM     14  C   UNL     1     -11.333  10.156  70.019  0.00  0.00    -0.000 A 
ATOM     15  C   UNL     1     -11.970  11.392  70.110  0.00  0.00    -0.000 A 
ATOM     16  C   UNL     1     -11.620  12.439  69.255  0.00  0.00    -0.001 A 
ATOM     17  C   UNL     1     -12.089  13.942  67.470  0.00  0.00    +0.262 C 
ATOM     18  C   UNL     1     -10.371  11.339  65.406  0.00  0.00    +0.109 A 
ATOM     19  N   UNL     1     -12.444  14.115  66.084  0.00  0.00    -0.092 NA
ENDROOT
TORSDOF 0
ENDMDL
MODEL 8
REMARK VINA RESULT:      -6.2      2.754      3.951
REMARK  Name = 
REMARK  0 active torsions:
REMARK  status: ('A' for Active; 'I' for Inactive)
REMARK                            x       y       z     vdW  Elec       q    Type
REMARK                         _______ _______ _______ _____ _____    ______ ____
ROOT
ATOM      1  N   UNL     1     -10.342   7.329  67.066  0.00  0.00    +0.144 NA
ATOM      2  C   UNL     1      -9.777   8.488  66.547  0.00  0.00    +0.447 C 
ATOM      3  N   UNL     1     -10.324   9.774  66.743  0.00  0.00    -0.169 N 
ATOM      4  C   UNL     1      -9.304  10.717  65.939  0.00  0.00    +0.204 C 
ATOM      5  C   UNL     1     -10.540  11.610  65.344  0.00  0.00    +0.012 A 
ATOM      6  C   UNL     1     -11.297  12.412  66.166  0.00  0.00    -0.019 A 
ATOM      7  C   UNL     1     -11.246  12.683  67.636  0.00  0.00    +0.055 C 
ATOM      8  C   UNL     1     -11.325  11.384  68.368  0.00  0.00    +0.011 A 
ATOM      9  C   UNL     1     -11.973  11.468  69.591  0.00  0.00    -0.001 A 
ATOM     10  C   UNL     1     -11.639  10.546  70.576  0.00  0.00    -0.000 A 
ATOM     11  C   UNL     1     -11.167   9.295  70.234  0.00  0.00    +0.003 A 
ATOM     12  C   UNL     1     -10.870   9.058  68.898  0.00  0.00    +0.031 A 
ATOM     13  C   UNL     1     -12.295  13.129  65.513  0.00  0.00    -0.004 A 
ATOM     14  C   UNL     1     -12.833  12.553  64.365  0.00  0.00    -0.000 A 
ATOM     15  C   UNL     1     -11.934  11.882  63.539  0.00  0.00    -0.000 A 
ATOM     16  C   UNL     1     -10.725  11.400  64.045  0.00  0.00    -0.001 A 
ATOM     17  C   UNL     1      -9.262   9.627  64.664  0.00  0.00    +0.262 C 
ATOM     18  C   UNL     1     -10.765  10.152  68.048  0.00  0.00    +0.109 A 
ATOM     19  N   UNL     1      -9.042   8.457  65.476  0.00  0.00    -0.092 NA
ENDROOT
TORSDOF 0
ENDMDL
MODEL 9
REMARK VINA RESULT:      -6.0      2.612      4.658
REMARK  Name = 
REMARK  0 active torsions:
REMARK  status: ('A' for Active; 'I' for Inactive)
REMARK                            x       y       z     vdW  Elec       q    Type
REMARK                         _______ _______ _______ _____ _____    ______ ____
ROOT
ATOM      1  N   UNL     1     -13.489   9.123  72.426  0.00  0.00    +0.144 NA
ATOM      2  C   UNL     1     -12.225   8.654  72.090  0.00  0.00    +0.447 C 
ATOM      3  N   UNL     1     -11.584   8.956  70.869  0.00  0.00    -0.169 N 
ATOM      4  C   UNL     1     -10.191   8.169  70.999  0.00  0.00    +0.204 C 
ATOM      5  C   UNL     1     -10.274   7.687  69.437  0.00  0.00    +0.012 A 
ATOM      6  C   UNL     1     -10.154   8.591  68.407  0.00  0.00    -0.019 A 
ATOM      7  C   UNL     1      -9.944  10.071  68.384  0.00  0.00    +0.055 C 
ATOM      8  C   UNL     1     -11.012  10.722  69.199  0.00  0.00    +0.011 A 
ATOM      9  C   UNL     1     -11.386  11.975  68.737  0.00  0.00    -0.001 A 
ATOM     10  C   UNL     1     -11.906  12.883  69.652  0.00  0.00    -0.000 A 
ATOM     11  C   UNL     1     -12.564  12.443  70.782  0.00  0.00    +0.003 A 
ATOM     12  C   UNL     1     -12.530  11.083  71.061  0.00  0.00    +0.031 A 
ATOM     13  C   UNL     1     -10.221   8.028  67.136  0.00  0.00    -0.004 A 
ATOM     14  C   UNL     1     -10.983   6.871  67.000  0.00  0.00    -0.000 A 
ATOM     15  C   UNL     1     -10.912   5.966  68.057  0.00  0.00    -0.000 A 
ATOM     16  C   UNL     1     -10.526   6.386  69.331  0.00  0.00    -0.001 A 
ATOM     17  C   UNL     1     -10.978   6.827  71.626  0.00  0.00    +0.262 C 
ATOM     18  C   UNL     1     -11.600  10.300  70.386  0.00  0.00    +0.109 A 
ATOM     19  N   UNL     1     -11.758   7.552  72.597  0.00  0.00    -0.092 NA
ENDROOT
TORSDOF 0
ENDMDL
