MODEL 1
REMARK VINA RESULT:      -3.9      0.000      0.000
REMARK  Name = 
REMARK  4 active torsions:
REMARK  status: ('A' for Active; 'I' for Inactive)
REMARK    1  A    between atoms: C_2  and  C_3
REMARK    2  A    between atoms: C_2  and  O_8
REMARK    3  A    between atoms: C_3  and  N_4
REMARK    4  A    between atoms: O_8  and  C_9
REMARK                            x       y       z     vdW  Elec       q    Type
REMARK                         _______ _______ _______ _____ _____    ______ ____
ROOT
ATOM      1  C   UNL     1     -12.516  12.787  64.929  0.00  0.00    +0.054 C 
ATOM      2  C   UNL     1     -11.968  13.993  65.913  0.00  0.00    +0.225 C 
ENDROOT
BRANCH   2   3
ATOM      3  O   UNL     1     -11.001  14.510  64.828  0.00  0.00    -0.430 OA
BRANCH   3   4
ATOM      4  C   UNL     1     -10.951  15.900  64.763  0.00  0.00    +0.441 C 
ATOM      5  O   UNL     1     -11.651  16.555  63.934  0.00  0.00    -0.223 OA
ATOM      6  N   UNL     1     -10.038  16.548  65.644  0.00  0.00    -0.048 NA
ENDBRANCH   3   4
ENDBRANCH   2   3
BRANCH   2   7
ATOM      7  C   UNL     1     -10.802  13.022  66.561  0.00  0.00    +0.153 C 
BRANCH   7   8
ATOM      8  N   UNL     1     -10.886  13.452  67.956  0.00  0.00    +0.313 N 
ATOM      9  C   UNL     1     -11.165  12.312  68.813  0.00  0.00    +0.171 C 
ATOM     10  C   UNL     1      -9.529  13.890  68.274  0.00  0.00    +0.171 C 
ATOM     11  C   UNL     1     -11.812  14.535  68.146  0.00  0.00    +0.171 C 
ENDBRANCH   7   8
ENDBRANCH   2   7
TORSDOF 4
ENDMDL
MODEL 2
REMARK VINA RESULT:      -3.8      3.070      4.365
REMARK  Name = 
REMARK  4 active torsions:
REMARK  status: ('A' for Active; 'I' for Inactive)
REMARK    1  A    between atoms: C_2  and  C_3
REMARK    2  A    between atoms: C_2  and  O_8
REMARK    3  A    between atoms: C_3  and  N_4
REMARK    4  A    between atoms: O_8  and  C_9
REMARK                            x       y       z     vdW  Elec       q    Type
REMARK                         _______ _______ _______ _____ _____    ______ ____
ROOT
ATOM      1  C   UNL     1      -7.667  15.892  66.830  0.00  0.00    +0.054 C 
ATOM      2  C   UNL     1      -9.272  16.270  66.900  0.00  0.00    +0.225 C 
ENDROOT
BRANCH   2   3
ATOM      3  O   UNL     1      -9.448  16.026  65.388  0.00  0.00    -0.430 OA
BRANCH   3   4
ATOM      4  C   UNL     1     -10.784  15.928  65.005  0.00  0.00    +0.441 C 
ATOM      5  O   UNL     1     -11.330  16.798  64.262  0.00  0.00    -0.223 OA
ATOM      6  N   UNL     1     -11.519  14.826  65.529  0.00  0.00    -0.048 NA
ENDBRANCH   3   4
ENDBRANCH   2   3
BRANCH   2   7
ATOM      7  C   UNL     1      -8.970  17.874  66.658  0.00  0.00    +0.153 C 
BRANCH   7   8
ATOM      8  N   UNL     1      -9.775  18.430  67.745  0.00  0.00    +0.313 N 
ATOM      9  C   UNL     1      -8.946  19.261  68.603  0.00  0.00    +0.171 C 
ATOM     10  C   UNL     1     -10.708  19.329  67.070  0.00  0.00    +0.171 C 
ATOM     11  C   UNL     1     -10.498  17.423  68.471  0.00  0.00    +0.171 C 
ENDBRANCH   7   8
ENDBRANCH   2   7
TORSDOF 4
ENDMDL
MODEL 3
REMARK VINA RESULT:      -3.8      2.084      3.010
REMARK  Name = 
REMARK  4 active torsions:
REMARK  status: ('A' for Active; 'I' for Inactive)
REMARK    1  A    between atoms: C_2  and  C_3
REMARK    2  A    between atoms: C_2  and  O_8
REMARK    3  A    between atoms: C_3  and  N_4
REMARK    4  A    between atoms: O_8  and  C_9
REMARK                            x       y       z     vdW  Elec       q    Type
REMARK                         _______ _______ _______ _____ _____    ______ ____
ROOT
ATOM      1  C   UNL     1     -11.624  11.663  68.181  0.00  0.00    +0.054 C 
ATOM      2  C   UNL     1     -11.797  13.016  67.253  0.00  0.00    +0.225 C 
ENDROOT
BRANCH   2   3
ATOM      3  O   UNL     1     -12.052  12.177  65.985  0.00  0.00    -0.430 OA
BRANCH   3   4
ATOM      4  C   UNL     1     -12.688  12.897  64.976  0.00  0.00    +0.441 C 
ATOM      5  O   UNL     1     -13.191  14.040  65.187  0.00  0.00    -0.223 OA
ATOM      6  N   UNL     1     -12.786  12.262  63.704  0.00  0.00    -0.048 NA
ENDBRANCH   3   4
ENDBRANCH   2   3
BRANCH   2   7
ATOM      7  C   UNL     1     -10.177  13.087  66.941  0.00  0.00    +0.153 C 
BRANCH   7   8
ATOM      8  N   UNL     1      -9.961  14.518  67.150  0.00  0.00    +0.313 N 
ATOM      9  C   UNL     1      -8.735  14.732  67.900  0.00  0.00    +0.171 C 
ATOM     10  C   UNL     1      -9.723  15.039  65.805  0.00  0.00    +0.171 C 
ATOM     11  C   UNL     1     -11.098  15.171  67.738  0.00  0.00    +0.171 C 
ENDBRANCH   7   8
ENDBRANCH   2   7
TORSDOF 4
ENDMDL
MODEL 4
REMARK VINA RESULT:      -3.8      3.027      4.148
REMARK  Name = 
REMARK  4 active torsions:
REMARK  status: ('A' for Active; 'I' for Inactive)
REMARK    1  A    between atoms: C_2  and  C_3
REMARK    2  A    between atoms: C_2  and  O_8
REMARK    3  A    between atoms: C_3  and  N_4
REMARK    4  A    between atoms: O_8  and  C_9
REMARK                            x       y       z     vdW  Elec       q    Type
REMARK                         _______ _______ _______ _____ _____    ______ ____
ROOT
ATOM      1  C   UNL     1      -7.854  15.513  66.932  0.00  0.00    +0.054 C 
ATOM      2  C   UNL     1      -9.363  16.179  66.962  0.00  0.00    +0.225 C 
ENDROOT
BRANCH   2   3
ATOM      3  O   UNL     1      -9.487  16.093  65.427  0.00  0.00    -0.430 OA
BRANCH   3   4
ATOM      4  C   UNL     1     -10.804  15.951  64.995  0.00  0.00    +0.441 C 
ATOM      5  O   UNL     1     -11.354  16.802  64.235  0.00  0.00    -0.223 OA
ATOM      6  N   UNL     1     -11.519  14.822  65.491  0.00  0.00    -0.048 NA
ENDBRANCH   3   4
ENDBRANCH   2   3
BRANCH   2   7
ATOM      7  C   UNL     1      -8.758  17.712  66.878  0.00  0.00    +0.153 C 
BRANCH   7   8
ATOM      8  N   UNL     1      -9.739  18.398  67.718  0.00  0.00    +0.313 N 
ATOM      9  C   UNL     1     -10.420  17.439  68.572  0.00  0.00    +0.171 C 
ATOM     10  C   UNL     1      -8.928  19.237  68.597  0.00  0.00    +0.171 C 
ATOM     11  C   UNL     1     -10.646  19.212  66.957  0.00  0.00    +0.171 C 
ENDBRANCH   7   8
ENDBRANCH   2   7
TORSDOF 4
ENDMDL
MODEL 5
REMARK VINA RESULT:      -3.7      5.401      6.757
REMARK  Name = 
REMARK  4 active torsions:
REMARK  status: ('A' for Active; 'I' for Inactive)
REMARK    1  A    between atoms: C_2  and  C_3
REMARK    2  A    between atoms: C_2  and  O_8
REMARK    3  A    between atoms: C_3  and  N_4
REMARK    4  A    between atoms: O_8  and  C_9
REMARK                            x       y       z     vdW  Elec       q    Type
REMARK                         _______ _______ _______ _____ _____    ______ ____
ROOT
ATOM      1  C   UNL     1     -15.099  15.067  71.494  0.00  0.00    +0.054 C 
ATOM      2  C   UNL     1     -13.523  14.715  71.837  0.00  0.00    +0.225 C 
ENDROOT
BRANCH   2   3
ATOM      3  O   UNL     1     -13.400  15.938  72.770  0.00  0.00    -0.430 OA
BRANCH   3   4
ATOM      4  C   UNL     1     -12.626  15.682  73.900  0.00  0.00    +0.441 C 
ATOM      5  O   UNL     1     -12.109  14.545  74.112  0.00  0.00    -0.223 OA
ATOM      6  N   UNL     1     -12.484  16.752  74.830  0.00  0.00    -0.048 NA
ENDBRANCH   3   4
ENDBRANCH   2   3
BRANCH   2   7
ATOM      7  C   UNL     1     -12.981  15.585  70.543  0.00  0.00    +0.153 C 
BRANCH   7   8
ATOM      8  N   UNL     1     -11.910  14.695  70.095  0.00  0.00    +0.313 N 
ATOM      9  C   UNL     1     -12.145  13.347  70.585  0.00  0.00    +0.171 C 
ATOM     10  C   UNL     1     -12.075  14.645  68.644  0.00  0.00    +0.171 C 
ATOM     11  C   UNL     1     -10.603  15.191  70.427  0.00  0.00    +0.171 C 
ENDBRANCH   7   8
ENDBRANCH   2   7
TORSDOF 4
ENDMDL
MODEL 6
REMARK VINA RESULT:      -3.7      2.337      3.139
REMARK  Name = 
REMARK  4 active torsions:
REMARK  status: ('A' for Active; 'I' for Inactive)
REMARK    1  A    between atoms: C_2  and  C_3
REMARK    2  A    between atoms: C_2  and  O_8
REMARK    3  A    between atoms: C_3  and  N_4
REMARK    4  A    between atoms: O_8  and  C_9
REMARK                            x       y       z     vdW  Elec       q    Type
REMARK                         _______ _______ _______ _____ _____    ______ ____
ROOT
ATOM      1  C   UNL     1     -11.034  13.861  67.454  0.00  0.00    +0.054 C 
ATOM      2  C   UNL     1     -10.843  15.409  66.915  0.00  0.00    +0.225 C 
ENDROOT
BRANCH   2   3
ATOM      3  O   UNL     1     -10.636  14.933  65.462  0.00  0.00    -0.430 OA
BRANCH   3   4
ATOM      4  C   UNL     1     -11.468  15.583  64.554  0.00  0.00    +0.441 C 
ATOM      5  O   UNL     1     -11.280  16.792  64.223  0.00  0.00    -0.223 OA
ATOM      6  N   UNL     1     -12.571  14.834  64.049  0.00  0.00    -0.048 NA
ENDBRANCH   3   4
ENDBRANCH   2   3
BRANCH   2   7
ATOM      7  C   UNL     1      -9.219  15.379  67.209  0.00  0.00    +0.153 C 
BRANCH   7   8
ATOM      8  N   UNL     1      -9.027  16.775  67.602  0.00  0.00    +0.313 N 
ATOM      9  C   UNL     1      -8.075  16.857  68.698  0.00  0.00    +0.171 C 
ATOM     10  C   UNL     1      -8.380  17.383  66.442  0.00  0.00    +0.171 C 
ATOM     11  C   UNL     1     -10.265  17.446  67.885  0.00  0.00    +0.171 C 
ENDBRANCH   7   8
ENDBRANCH   2   7
TORSDOF 4
ENDMDL
MODEL 7
REMARK VINA RESULT:      -3.6      1.631      2.536
REMARK  Name = 
REMARK  4 active torsions:
REMARK  status: ('A' for Active; 'I' for Inactive)
REMARK    1  A    between atoms: C_2  and  C_3
REMARK    2  A    between atoms: C_2  and  O_8
REMARK    3  A    between atoms: C_3  and  N_4
REMARK    4  A    between atoms: O_8  and  C_9
REMARK                            x       y       z     vdW  Elec       q    Type
REMARK                         _______ _______ _______ _____ _____    ______ ____
ROOT
ATOM      1  C   UNL     1     -12.070  14.261  67.286  0.00  0.00    +0.054 C 
ATOM      2  C   UNL     1     -10.823  13.833  66.293  0.00  0.00    +0.225 C 
ENDROOT
BRANCH   2   3
ATOM      3  O   UNL     1     -11.429  14.614  65.109  0.00  0.00    -0.430 OA
BRANCH   3   4
ATOM      4  C   UNL     1     -10.850  15.868  64.932  0.00  0.00    +0.441 C 
ATOM      5  O   UNL     1     -11.385  16.753  64.199  0.00  0.00    -0.223 OA
ATOM      6  N   UNL     1      -9.599  16.090  65.578  0.00  0.00    -0.048 NA
ENDBRANCH   3   4
ENDBRANCH   2   3
BRANCH   2   7
ATOM      7  C   UNL     1     -11.583  12.443  65.832  0.00  0.00    +0.153 C 
BRANCH   7   8
ATOM      8  N   UNL     1     -10.472  11.505  65.988  0.00  0.00    +0.313 N 
ATOM      9  C   UNL     1      -9.277  12.215  66.413  0.00  0.00    +0.171 C 
ATOM     10  C   UNL     1     -10.877  10.661  67.111  0.00  0.00    +0.171 C 
ATOM     11  C   UNL     1     -10.258  10.700  64.818  0.00  0.00    +0.171 C 
ENDBRANCH   7   8
ENDBRANCH   2   7
TORSDOF 4
ENDMDL
MODEL 8
REMARK VINA RESULT:      -3.5      1.719      2.494
REMARK  Name = 
REMARK  4 active torsions:
REMARK  status: ('A' for Active; 'I' for Inactive)
REMARK    1  A    between atoms: C_2  and  C_3
REMARK    2  A    between atoms: C_2  and  O_8
REMARK    3  A    between atoms: C_3  and  N_4
REMARK    4  A    between atoms: O_8  and  C_9
REMARK                            x       y       z     vdW  Elec       q    Type
REMARK                         _______ _______ _______ _____ _____    ______ ____
ROOT
ATOM      1  C   UNL     1      -8.924  15.132  66.500  0.00  0.00    +0.054 C 
ATOM      2  C   UNL     1     -10.135  14.170  65.923  0.00  0.00    +0.225 C 
ENDROOT
BRANCH   2   3
ATOM      3  O   UNL     1     -11.144  15.336  65.949  0.00  0.00    -0.430 OA
BRANCH   3   4
ATOM      4  C   UNL     1     -11.614  15.677  64.683  0.00  0.00    +0.441 C 
ATOM      5  O   UNL     1     -11.314  16.778  64.133  0.00  0.00    -0.223 OA
ATOM      6  N   UNL     1     -12.489  14.743  64.055  0.00  0.00    -0.048 NA
ENDBRANCH   3   4
ENDBRANCH   2   3
BRANCH   2   7
ATOM      7  C   UNL     1     -10.568  13.694  67.442  0.00  0.00    +0.153 C 
BRANCH   7   8
ATOM      8  N   UNL     1     -10.645  12.251  67.223  0.00  0.00    +0.313 N 
ATOM      9  C   UNL     1      -9.373  11.628  67.550  0.00  0.00    +0.171 C 
ATOM     10  C   UNL     1     -11.604  11.791  68.225  0.00  0.00    +0.171 C 
ATOM     11  C   UNL     1     -11.109  11.915  65.905  0.00  0.00    +0.171 C 
ENDBRANCH   7   8
ENDBRANCH   2   7
TORSDOF 4
ENDMDL
MODEL 9
REMARK VINA RESULT:      -3.5      4.096      5.456
REMARK  Name = 
REMARK  4 active torsions:
REMARK  status: ('A' for Active; 'I' for Inactive)
REMARK    1  A    between atoms: C_2  and  C_3
REMARK    2  A    between atoms: C_2  and  O_8
REMARK    3  A    between atoms: C_3  and  N_4
REMARK    4  A    between atoms: O_8  and  C_9
REMARK                            x       y       z     vdW  Elec       q    Type
REMARK                         _______ _______ _______ _____ _____    ______ ____
ROOT
ATOM      1  C   UNL     1     -12.103  13.733  69.743  0.00  0.00    +0.054 C 
ATOM      2  C   UNL     1     -11.311  15.166  69.947  0.00  0.00    +0.225 C 
ENDROOT
BRANCH   2   3
ATOM      3  O   UNL     1     -12.597  15.866  70.432  0.00  0.00    -0.430 OA
BRANCH   3   4
ATOM      4  C   UNL     1     -12.771  15.787  71.812  0.00  0.00    +0.441 C 
ATOM      5  O   UNL     1     -11.787  15.703  72.605  0.00  0.00    -0.223 OA
ATOM      6  N   UNL     1     -14.115  15.758  72.284  0.00  0.00    -0.048 NA
ENDBRANCH   3   4
ENDBRANCH   2   3
BRANCH   2   7
ATOM      7  C   UNL     1     -11.593  15.618  68.385  0.00  0.00    +0.153 C 
BRANCH   7   8
ATOM      8  N   UNL     1     -10.272  16.148  68.052  0.00  0.00    +0.313 N 
ATOM      9  C   UNL     1      -9.829  15.615  66.774  0.00  0.00    +0.171 C 
ATOM     10  C   UNL     1     -10.504  17.576  67.850  0.00  0.00    +0.171 C 
ATOM     11  C   UNL     1      -9.313  15.947  69.104  0.00  0.00    +0.171 C 
ENDBRANCH   7   8
ENDBRANCH   2   7
TORSDOF 4
ENDMDL
