MODEL 1
REMARK VINA RESULT:      -7.9      0.000      0.000
REMARK  Name = 
REMARK  6 active torsions:
REMARK  status: ('A' for Active; 'I' for Inactive)
REMARK    1  A    between atoms: C_7  and  C_8
REMARK    2  A    between atoms: C_20  and  N_21
REMARK    3  A    between atoms: C_23  and  C_25
REMARK    4  A    between atoms: C_25  and  C_28
REMARK    5  A    between atoms: C_30  and  C_31
REMARK    6  A    between atoms: C_36  and  C_37
REMARK                            x       y       z     vdW  Elec       q    Type
REMARK                         _______ _______ _______ _____ _____    ______ ____
ROOT
ATOM      1  N   UNL     1      -9.905  12.010  66.054  0.00  0.00    -0.255 N 
ATOM      2  C   UNL     1     -10.954  12.053  67.032  0.00  0.00    +0.232 C 
ATOM      3  O   UNL     1     -12.094  11.705  66.599  0.00  0.00    -0.274 OA
ATOM      4  C   UNL     1      -9.911  13.127  65.110  0.00  0.00    +0.120 C 
ENDROOT
BRANCH   1   6
ATOM      5  C   UNL     1      -8.829   9.856  66.066  0.00  0.00    +0.018 A 
ATOM      6  C   UNL     1      -9.697  10.723  65.459  0.00  0.00    +0.073 A 
ATOM      7  C   UNL     1      -9.961  10.534  64.109  0.00  0.00    +0.115 A 
ATOM      8  N   UNL     1      -9.215   9.684  63.363  0.00  0.00    -0.228 NA
ATOM      9  C   UNL     1      -8.138   9.060  63.902  0.00  0.00    +0.132 A 
ATOM     10  N   UNL     1      -6.946   8.832  63.143  0.00  0.00    -0.290 N 
ATOM     11  C   UNL     1      -5.847   9.789  63.198  0.00  0.00    +0.109 C 
ATOM     12  C   UNL     1      -5.949  10.611  61.920  0.00  0.00    +0.094 C 
ATOM     13  N   UNL     1      -5.825   9.743  60.762  0.00  0.00    -0.269 NA
ATOM     14  C   UNL     1      -6.006  10.571  59.571  0.00  0.00    +0.090 C 
ATOM     15  C   UNL     1      -6.921   8.776  60.741  0.00  0.00    +0.094 C 
ATOM     16  C   UNL     1      -6.953   7.934  61.997  0.00  0.00    +0.109 C 
ATOM     17  C   UNL     1      -8.151   8.933  65.285  0.00  0.00    +0.036 A 
BRANCH   5  20
ATOM     18  C   UNL     1     -10.370   7.859  67.288  0.00  0.00    +0.031 C 
ATOM     19  C   UNL     1      -9.547   8.797  68.111  0.00  0.00    -0.022 A 
ATOM     20  C   UNL     1      -8.783   9.803  67.529  0.00  0.00    -0.003 A 
ATOM     21  C   UNL     1      -7.644  10.158  68.242  0.00  0.00    -0.000 A 
ATOM     22  C   UNL     1      -7.806  10.268  69.618  0.00  0.00    -0.000 A 
ATOM     23  C   UNL     1      -8.553   9.256  70.209  0.00  0.00    -0.000 A 
ATOM     24  C   UNL     1      -9.442   8.513  69.462  0.00  0.00    -0.004 A 
ENDBRANCH   5  20
ENDBRANCH   1   6
BRANCH   2  25
ATOM     25  C   UNL     1     -10.964  13.068  68.123  0.00  0.00    +0.088 C 
ATOM     26  C   UNL     1     -11.563  14.342  67.595  0.00  0.00    +0.014 C 
ATOM     27  C   UNL     1      -9.569  13.336  68.652  0.00  0.00    +0.014 C 
BRANCH  25  28
ATOM     28  C   UNL     1     -11.786  12.615  69.286  0.00  0.00    -0.015 A 
ATOM     29  C   UNL     1     -11.741  11.304  69.748  0.00  0.00    +0.000 A 
ATOM     30  C   UNL     1     -12.428  10.899  70.880  0.00  0.00    +0.071 A 
ATOM     31  C   UNL     1     -13.150  11.889  71.534  0.00  0.00    +0.008 A 
ATOM     32  C   UNL     1     -12.824  13.231  71.392  0.00  0.00    +0.071 A 
ATOM     33  C   UNL     1     -12.127  13.565  70.239  0.00  0.00    +0.000 A 
BRANCH  32  34
ATOM     34  C   UNL     1     -13.574  14.261  72.146  0.00  0.00    +0.419 C 
ATOM     35  F   UNL     1     -13.065  14.348  73.434  0.00  0.00    -0.166 F 
ATOM     36  F   UNL     1     -14.914  13.971  72.222  0.00  0.00    -0.166 F 
ATOM     37  F   UNL     1     -13.426  15.471  71.509  0.00  0.00    -0.166 F 
ENDBRANCH  32  34
BRANCH  30  38
ATOM     38  C   UNL     1     -12.186   9.566  71.501  0.00  0.00    +0.419 C 
ATOM     39  F   UNL     1     -13.135   9.385  72.502  0.00  0.00    -0.166 F 
ATOM     40  F   UNL     1     -10.935   9.520  72.061  0.00  0.00    -0.166 F 
ATOM     41  F   UNL     1     -12.401   8.534  70.595  0.00  0.00    -0.166 F 
ENDBRANCH  30  38
ENDBRANCH  25  28
ENDBRANCH   2  25
TORSDOF 6
ENDMDL
MODEL 2
REMARK VINA RESULT:      -7.4      5.128      8.141
REMARK  Name = 
REMARK  6 active torsions:
REMARK  status: ('A' for Active; 'I' for Inactive)
REMARK    1  A    between atoms: C_7  and  C_8
REMARK    2  A    between atoms: C_20  and  N_21
REMARK    3  A    between atoms: C_23  and  C_25
REMARK    4  A    between atoms: C_25  and  C_28
REMARK    5  A    between atoms: C_30  and  C_31
REMARK    6  A    between atoms: C_36  and  C_37
REMARK                            x       y       z     vdW  Elec       q    Type
REMARK                         _______ _______ _______ _____ _____    ______ ____
ROOT
ATOM      1  N   UNL     1      -6.356  14.217  68.170  0.00  0.00    -0.255 N 
ATOM      2  C   UNL     1      -6.740  12.998  68.823  0.00  0.00    +0.232 C 
ATOM      3  O   UNL     1      -6.319  12.882  70.014  0.00  0.00    -0.274 OA
ATOM      4  C   UNL     1      -4.969  14.245  67.706  0.00  0.00    +0.120 C 
ENDROOT
BRANCH   1   6
ATOM      5  C   UNL     1      -7.703  16.212  68.203  0.00  0.00    +0.018 A 
ATOM      6  C   UNL     1      -6.790  15.411  68.833  0.00  0.00    +0.073 A 
ATOM      7  C   UNL     1      -5.994  15.987  69.814  0.00  0.00    +0.115 A 
ATOM      8  N   UNL     1      -5.948  17.331  69.977  0.00  0.00    -0.228 NA
ATOM      9  C   UNL     1      -6.618  18.150  69.129  0.00  0.00    +0.132 A 
ATOM     10  N   UNL     1      -6.074  19.408  68.717  0.00  0.00    -0.290 N 
ATOM     11  C   UNL     1      -5.307  19.506  67.480  0.00  0.00    +0.109 C 
ATOM     12  C   UNL     1      -3.843  19.538  67.902  0.00  0.00    +0.094 C 
ATOM     13  N   UNL     1      -3.600  20.686  68.758  0.00  0.00    -0.269 NA
ATOM     14  C   UNL     1      -2.205  20.622  69.191  0.00  0.00    +0.090 C 
ATOM     15  C   UNL     1      -4.398  20.580  69.978  0.00  0.00    +0.094 C 
ATOM     16  C   UNL     1      -5.876  20.485  69.676  0.00  0.00    +0.109 C 
ATOM     17  C   UNL     1      -7.692  17.573  68.465  0.00  0.00    +0.036 A 
BRANCH   5  20
ATOM     18  C   UNL     1      -9.973  15.401  69.633  0.00  0.00    +0.031 C 
ATOM     19  C   UNL     1      -9.896  15.207  68.153  0.00  0.00    -0.022 A 
ATOM     20  C   UNL     1      -8.776  15.590  67.422  0.00  0.00    -0.003 A 
ATOM     21  C   UNL     1      -9.034  15.954  66.106  0.00  0.00    -0.000 A 
ATOM     22  C   UNL     1      -9.929  15.141  65.422  0.00  0.00    -0.000 A 
ATOM     23  C   UNL     1     -11.060  14.769  66.139  0.00  0.00    -0.000 A 
ATOM     24  C   UNL     1     -11.054  14.789  67.518  0.00  0.00    -0.004 A 
ENDBRANCH   5  20
ENDBRANCH   1   6
BRANCH   2  25
ATOM     25  C   UNL     1      -6.892  11.722  68.069  0.00  0.00    +0.088 C 
ATOM     26  C   UNL     1      -6.308  10.603  68.886  0.00  0.00    +0.014 C 
ATOM     27  C   UNL     1      -6.205  11.784  66.718  0.00  0.00    +0.014 C 
BRANCH  25  28
ATOM     28  C   UNL     1      -8.328  11.406  67.808  0.00  0.00    -0.015 A 
ATOM     29  C   UNL     1      -9.267  11.364  68.833  0.00  0.00    +0.000 A 
ATOM     30  C   UNL     1     -10.615  11.163  68.588  0.00  0.00    +0.071 A 
ATOM     31  C   UNL     1     -10.972  11.026  67.253  0.00  0.00    +0.008 A 
ATOM     32  C   UNL     1     -10.175  11.538  66.238  0.00  0.00    +0.071 A 
ATOM     33  C   UNL     1      -8.836  11.723  66.555  0.00  0.00    +0.000 A 
BRANCH  32  34
ATOM     34  C   UNL     1     -10.608  11.428  64.826  0.00  0.00    +0.419 C 
ATOM     35  F   UNL     1     -10.489  10.109  64.412  0.00  0.00    -0.166 F 
ATOM     36  F   UNL     1      -9.856  12.219  63.993  0.00  0.00    -0.166 F 
ATOM     37  F   UNL     1     -11.922  11.823  64.735  0.00  0.00    -0.166 F 
ENDBRANCH  32  34
BRANCH  30  38
ATOM     38  C   UNL     1     -11.636  11.356  69.656  0.00  0.00    +0.419 C 
ATOM     39  F   UNL     1     -12.808  10.730  69.241  0.00  0.00    -0.166 F 
ATOM     40  F   UNL     1     -11.887  12.692  69.841  0.00  0.00    -0.166 F 
ATOM     41  F   UNL     1     -11.271  10.716  70.834  0.00  0.00    -0.166 F 
ENDBRANCH  30  38
ENDBRANCH  25  28
ENDBRANCH   2  25
TORSDOF 6
ENDMDL
MODEL 3
REMARK VINA RESULT:      -7.2      0.427      2.676
REMARK  Name = 
REMARK  6 active torsions:
REMARK  status: ('A' for Active; 'I' for Inactive)
REMARK    1  A    between atoms: C_7  and  C_8
REMARK    2  A    between atoms: C_20  and  N_21
REMARK    3  A    between atoms: C_23  and  C_25
REMARK    4  A    between atoms: C_25  and  C_28
REMARK    5  A    between atoms: C_30  and  C_31
REMARK    6  A    between atoms: C_36  and  C_37
REMARK                            x       y       z     vdW  Elec       q    Type
REMARK                         _______ _______ _______ _____ _____    ______ ____
ROOT
ATOM      1  N   UNL     1      -9.930  12.088  66.060  0.00  0.00    -0.255 N 
ATOM      2  C   UNL     1     -10.881  12.226  67.125  0.00  0.00    +0.232 C 
ATOM      3  O   UNL     1     -12.063  11.874  66.826  0.00  0.00    -0.274 OA
ATOM      4  C   UNL     1     -10.006  13.133  65.041  0.00  0.00    +0.120 C 
ENDROOT
BRANCH   1   6
ATOM      5  C   UNL     1      -8.949   9.892  66.181  0.00  0.00    +0.018 A 
ATOM      6  C   UNL     1      -9.799  10.757  65.546  0.00  0.00    +0.073 A 
ATOM      7  C   UNL     1     -10.119  10.492  64.221  0.00  0.00    +0.115 A 
ATOM      8  N   UNL     1      -9.437   9.562  63.510  0.00  0.00    -0.228 NA
ATOM      9  C   UNL     1      -8.371   8.926  64.054  0.00  0.00    +0.132 A 
ATOM     10  N   UNL     1      -7.217   8.594  63.274  0.00  0.00    -0.290 N 
ATOM     11  C   UNL     1      -6.077   9.502  63.229  0.00  0.00    +0.109 C 
ATOM     12  C   UNL     1      -6.188  10.243  61.902  0.00  0.00    +0.094 C 
ATOM     13  N   UNL     1      -6.143   9.296  60.802  0.00  0.00    -0.269 NA
ATOM     14  C   UNL     1      -6.330  10.052  59.565  0.00  0.00    +0.090 C 
ATOM     15  C   UNL     1      -7.280   8.380  60.881  0.00  0.00    +0.094 C 
ATOM     16  C   UNL     1      -7.303   7.625  62.191  0.00  0.00    +0.109 C 
ATOM     17  C   UNL     1      -8.340   8.890  65.442  0.00  0.00    +0.036 A 
BRANCH   5  20
ATOM     18  C   UNL     1     -10.401   7.945  67.578  0.00  0.00    +0.031 C 
ATOM     19  C   UNL     1      -9.573   8.950  68.312  0.00  0.00    -0.022 A 
ATOM     20  C   UNL     1      -8.853   9.933  67.642  0.00  0.00    -0.003 A 
ATOM     21  C   UNL     1      -7.700  10.357  68.292  0.00  0.00    -0.000 A 
ATOM     22  C   UNL     1      -7.819  10.550  69.663  0.00  0.00    -0.000 A 
ATOM     23  C   UNL     1      -8.521   9.562  70.342  0.00  0.00    -0.000 A 
ATOM     24  C   UNL     1      -9.417   8.754  69.674  0.00  0.00    -0.004 A 
ENDBRANCH   5  20
ENDBRANCH   1   6
BRANCH   2  25
ATOM     25  C   UNL     1     -10.773  13.318  68.134  0.00  0.00    +0.088 C 
ATOM     26  C   UNL     1     -11.448  14.547  67.593  0.00  0.00    +0.014 C 
ATOM     27  C   UNL     1      -9.328  13.629  68.469  0.00  0.00    +0.014 C 
BRANCH  25  28
ATOM     28  C   UNL     1     -11.442  12.947  69.417  0.00  0.00    -0.015 A 
ATOM     29  C   UNL     1     -12.159  13.875  70.165  0.00  0.00    +0.000 A 
ATOM     30  C   UNL     1     -12.857  13.519  71.306  0.00  0.00    +0.071 A 
ATOM     31  C   UNL     1     -12.812  12.173  71.646  0.00  0.00    +0.008 A 
ATOM     32  C   UNL     1     -12.540  11.198  70.695  0.00  0.00    +0.071 A 
ATOM     33  C   UNL     1     -11.845  11.627  69.572  0.00  0.00    +0.000 A 
BRANCH  32  34
ATOM     34  C   UNL     1     -12.554   9.767  71.073  0.00  0.00    +0.419 C 
ATOM     35  F   UNL     1     -11.564   9.533  72.017  0.00  0.00    -0.166 F 
ATOM     36  F   UNL     1     -12.335   8.947  69.995  0.00  0.00    -0.166 F 
ATOM     37  F   UNL     1     -13.783   9.464  71.610  0.00  0.00    -0.166 F 
ENDBRANCH  32  34
BRANCH  30  38
ATOM     38  C   UNL     1     -13.809  14.460  71.961  0.00  0.00    +0.419 C 
ATOM     39  F   UNL     1     -15.020  13.794  72.125  0.00  0.00    -0.166 F 
ATOM     40  F   UNL     1     -14.012  15.562  71.169  0.00  0.00    -0.166 F 
ATOM     41  F   UNL     1     -13.394  14.798  73.243  0.00  0.00    -0.166 F 
ENDBRANCH  30  38
ENDBRANCH  25  28
ENDBRANCH   2  25
TORSDOF 6
ENDMDL
MODEL 4
REMARK VINA RESULT:      -7.2      3.900      6.681
REMARK  Name = 
REMARK  6 active torsions:
REMARK  status: ('A' for Active; 'I' for Inactive)
REMARK    1  A    between atoms: C_7  and  C_8
REMARK    2  A    between atoms: C_20  and  N_21
REMARK    3  A    between atoms: C_23  and  C_25
REMARK    4  A    between atoms: C_25  and  C_28
REMARK    5  A    between atoms: C_30  and  C_31
REMARK    6  A    between atoms: C_36  and  C_37
REMARK                            x       y       z     vdW  Elec       q    Type
REMARK                         _______ _______ _______ _____ _____    ______ ____
ROOT
ATOM      1  N   UNL     1      -8.916  13.652  68.110  0.00  0.00    -0.255 N 
ATOM      2  C   UNL     1      -9.721  13.240  66.995  0.00  0.00    +0.232 C 
ATOM      3  O   UNL     1      -9.680  14.023  65.997  0.00  0.00    -0.274 OA
ATOM      4  C   UNL     1      -9.494  14.733  68.907  0.00  0.00    +0.120 C 
ENDROOT
BRANCH   1   6
ATOM      5  C   UNL     1      -6.626  13.003  68.471  0.00  0.00    +0.018 A 
ATOM      6  C   UNL     1      -7.522  13.803  67.815  0.00  0.00    +0.073 A 
ATOM      7  C   UNL     1      -7.052  14.995  67.281  0.00  0.00    +0.115 A 
ATOM      8  N   UNL     1      -5.822  15.467  67.597  0.00  0.00    -0.228 NA
ATOM      9  C   UNL     1      -5.054  14.824  68.511  0.00  0.00    +0.132 A 
ATOM     10  N   UNL     1      -4.225  15.542  69.431  0.00  0.00    -0.290 N 
ATOM     11  C   UNL     1      -4.724  15.877  70.760  0.00  0.00    +0.109 C 
ATOM     12  C   UNL     1      -5.125  17.346  70.695  0.00  0.00    +0.094 C 
ATOM     13  N   UNL     1      -3.971  18.159  70.352  0.00  0.00    -0.269 NA
ATOM     14  C   UNL     1      -4.430  19.541  70.229  0.00  0.00    +0.090 C 
ATOM     15  C   UNL     1      -3.472  17.789  69.028  0.00  0.00    +0.094 C 
ATOM     16  C   UNL     1      -3.093  16.327  68.959  0.00  0.00    +0.109 C 
ATOM     17  C   UNL     1      -5.344  13.479  68.696  0.00  0.00    +0.036 A 
BRANCH   5  20
ATOM     18  C   UNL     1      -6.463  11.223  66.313  0.00  0.00    +0.031 C 
ATOM     19  C   UNL     1      -6.886  10.744  67.664  0.00  0.00    -0.022 A 
ATOM     20  C   UNL     1      -6.986  11.610  68.748  0.00  0.00    -0.003 A 
ATOM     21  C   UNL     1      -6.756  11.023  69.987  0.00  0.00    -0.000 A 
ATOM     22  C   UNL     1      -7.338   9.776  70.178  0.00  0.00    -0.000 A 
ATOM     23  C   UNL     1      -7.225   8.899  69.106  0.00  0.00    -0.000 A 
ATOM     24  C   UNL     1      -7.007   9.375  67.830  0.00  0.00    -0.004 A 
ENDBRANCH   5  20
ENDBRANCH   1   6
BRANCH   2  25
ATOM     25  C   UNL     1     -11.005  12.509  67.185  0.00  0.00    +0.088 C 
ATOM     26  C   UNL     1     -11.589  12.196  65.836  0.00  0.00    +0.014 C 
ATOM     27  C   UNL     1     -11.995  13.321  67.998  0.00  0.00    +0.014 C 
BRANCH  25  28
ATOM     28  C   UNL     1     -10.802  11.222  67.915  0.00  0.00    -0.015 A 
ATOM     29  C   UNL     1     -11.181  11.065  69.243  0.00  0.00    +0.000 A 
ATOM     30  C   UNL     1     -11.080   9.850  69.899  0.00  0.00    +0.071 A 
ATOM     31  C   UNL     1     -10.594   8.793  69.140  0.00  0.00    +0.008 A 
ATOM     32  C   UNL     1     -10.679   8.803  67.754  0.00  0.00    +0.071 A 
ATOM     33  C   UNL     1     -10.788  10.055  67.163  0.00  0.00    +0.000 A 
BRANCH  32  34
ATOM     34  C   UNL     1     -10.205   7.638  66.972  0.00  0.00    +0.419 C 
ATOM     35  F   UNL     1     -11.291   6.849  66.621  0.00  0.00    -0.166 F 
ATOM     36  F   UNL     1      -9.315   6.870  67.681  0.00  0.00    -0.166 F 
ATOM     37  F   UNL     1      -9.580   8.094  65.835  0.00  0.00    -0.166 F 
ENDBRANCH  32  34
BRANCH  30  38
ATOM     38  C   UNL     1     -11.705   9.632  71.234  0.00  0.00    +0.419 C 
ATOM     39  F   UNL     1     -12.615   8.586  71.112  0.00  0.00    -0.166 F 
ATOM     40  F   UNL     1     -12.375  10.759  71.638  0.00  0.00    -0.166 F 
ATOM     41  F   UNL     1     -10.772   9.204  72.172  0.00  0.00    -0.166 F 
ENDBRANCH  30  38
ENDBRANCH  25  28
ENDBRANCH   2  25
TORSDOF 6
ENDMDL
MODEL 5
REMARK VINA RESULT:      -7.1      3.008      5.784
REMARK  Name = 
REMARK  6 active torsions:
REMARK  status: ('A' for Active; 'I' for Inactive)
REMARK    1  A    between atoms: C_7  and  C_8
REMARK    2  A    between atoms: C_20  and  N_21
REMARK    3  A    between atoms: C_23  and  C_25
REMARK    4  A    between atoms: C_25  and  C_28
REMARK    5  A    between atoms: C_30  and  C_31
REMARK    6  A    between atoms: C_36  and  C_37
REMARK                            x       y       z     vdW  Elec       q    Type
REMARK                         _______ _______ _______ _____ _____    ______ ____
ROOT
ATOM      1  N   UNL     1      -8.878  13.221  68.210  0.00  0.00    -0.255 N 
ATOM      2  C   UNL     1      -9.804  13.178  67.115  0.00  0.00    +0.232 C 
ATOM      3  O   UNL     1      -9.386  13.723  66.049  0.00  0.00    -0.274 OA
ATOM      4  C   UNL     1      -8.793  14.517  68.881  0.00  0.00    +0.120 C 
ENDROOT
BRANCH   1   6
ATOM      5  C   UNL     1      -7.502  11.246  68.136  0.00  0.00    +0.018 A 
ATOM      6  C   UNL     1      -7.615  12.597  67.947  0.00  0.00    +0.073 A 
ATOM      7  C   UNL     1      -6.450  13.352  67.975  0.00  0.00    +0.115 A 
ATOM      8  N   UNL     1      -5.282  12.821  68.410  0.00  0.00    -0.228 NA
ATOM      9  C   UNL     1      -5.243  11.559  68.905  0.00  0.00    +0.132 A 
ATOM     10  N   UNL     1      -4.399  11.213  70.008  0.00  0.00    -0.290 N 
ATOM     11  C   UNL     1      -4.921  11.243  71.369  0.00  0.00    +0.109 C 
ATOM     12  C   UNL     1      -4.405  12.539  71.982  0.00  0.00    +0.094 C 
ATOM     13  N   UNL     1      -2.953  12.544  71.981  0.00  0.00    -0.269 NA
ATOM     14  C   UNL     1      -2.518  13.836  72.507  0.00  0.00    +0.090 C 
ATOM     15  C   UNL     1      -2.452  12.487  70.609  0.00  0.00    +0.094 C 
ATOM     16  C   UNL     1      -2.949  11.259  69.880  0.00  0.00    +0.109 C 
ATOM     17  C   UNL     1      -6.268  10.721  68.487  0.00  0.00    +0.036 A 
BRANCH   5  20
ATOM     18  C   UNL     1      -7.661  10.442  65.456  0.00  0.00    +0.031 C 
ATOM     19  C   UNL     1      -8.681   9.987  66.449  0.00  0.00    -0.022 A 
ATOM     20  C   UNL     1      -8.631  10.381  67.782  0.00  0.00    -0.003 A 
ATOM     21  C   UNL     1      -9.169   9.469  68.681  0.00  0.00    -0.000 A 
ATOM     22  C   UNL     1     -10.362   8.873  68.292  0.00  0.00    -0.000 A 
ATOM     23  C   UNL     1     -10.413   8.459  66.967  0.00  0.00    -0.000 A 
ATOM     24  C   UNL     1      -9.577   9.020  66.024  0.00  0.00    -0.004 A 
ENDBRANCH   5  20
ENDBRANCH   1   6
BRANCH   2  25
ATOM     25  C   UNL     1     -11.277  13.242  67.333  0.00  0.00    +0.088 C 
ATOM     26  C   UNL     1     -11.927  12.109  66.589  0.00  0.00    +0.014 C 
ATOM     27  C   UNL     1     -11.855  14.564  66.865  0.00  0.00    +0.014 C 
BRANCH  25  28
ATOM     28  C   UNL     1     -11.624  13.109  68.780  0.00  0.00    -0.015 A 
ATOM     29  C   UNL     1     -12.136  14.175  69.511  0.00  0.00    +0.000 A 
ATOM     30  C   UNL     1     -12.545  14.035  70.827  0.00  0.00    +0.071 A 
ATOM     31  C   UNL     1     -12.430  12.759  71.363  0.00  0.00    +0.008 A 
ATOM     32  C   UNL     1     -12.398  11.635  70.547  0.00  0.00    +0.071 A 
ATOM     33  C   UNL     1     -11.988  11.850  69.238  0.00  0.00    +0.000 A 
BRANCH  32  34
ATOM     34  C   UNL     1     -12.332  10.284  71.147  0.00  0.00    +0.419 C 
ATOM     35  F   UNL     1     -11.007   9.957  71.396  0.00  0.00    -0.166 F 
ATOM     36  F   UNL     1     -12.872   9.327  70.324  0.00  0.00    -0.166 F 
ATOM     37  F   UNL     1     -13.036  10.290  72.329  0.00  0.00    -0.166 F 
ENDBRANCH  32  34
BRANCH  30  38
ATOM     38  C   UNL     1     -13.308  15.110  71.522  0.00  0.00    +0.419 C 
ATOM     39  F   UNL     1     -13.526  14.697  72.833  0.00  0.00    -0.166 F 
ATOM     40  F   UNL     1     -14.520  15.308  70.911  0.00  0.00    -0.166 F 
ATOM     41  F   UNL     1     -12.566  16.281  71.621  0.00  0.00    -0.166 F 
ENDBRANCH  30  38
ENDBRANCH  25  28
ENDBRANCH   2  25
TORSDOF 6
ENDMDL
MODEL 6
REMARK VINA RESULT:      -7.0      3.662      6.935
REMARK  Name = 
REMARK  6 active torsions:
REMARK  status: ('A' for Active; 'I' for Inactive)
REMARK    1  A    between atoms: C_7  and  C_8
REMARK    2  A    between atoms: C_20  and  N_21
REMARK    3  A    between atoms: C_23  and  C_25
REMARK    4  A    between atoms: C_25  and  C_28
REMARK    5  A    between atoms: C_30  and  C_31
REMARK    6  A    between atoms: C_36  and  C_37
REMARK                            x       y       z     vdW  Elec       q    Type
REMARK                         _______ _______ _______ _____ _____    ______ ____
ROOT
ATOM      1  N   UNL     1      -9.706  13.006  68.031  0.00  0.00    -0.255 N 
ATOM      2  C   UNL     1     -10.595  12.061  68.644  0.00  0.00    +0.232 C 
ATOM      3  O   UNL     1     -11.193  12.493  69.676  0.00  0.00    -0.274 OA
ATOM      4  C   UNL     1      -8.430  13.176  68.724  0.00  0.00    +0.120 C 
ENDROOT
BRANCH   1   6
ATOM      5  C   UNL     1     -10.434  14.481  66.272  0.00  0.00    +0.018 A 
ATOM      6  C   UNL     1     -10.329  14.227  67.613  0.00  0.00    +0.073 A 
ATOM      7  C   UNL     1     -10.384  15.309  68.481  0.00  0.00    +0.115 A 
ATOM      8  N   UNL     1     -10.300  16.580  68.021  0.00  0.00    -0.228 NA
ATOM      9  C   UNL     1     -10.079  16.821  66.705  0.00  0.00    +0.132 A 
ATOM     10  N   UNL     1      -9.253  17.908  66.271  0.00  0.00    -0.290 N 
ATOM     11  C   UNL     1      -7.837  17.690  66.003  0.00  0.00    +0.109 C 
ATOM     12  C   UNL     1      -7.096  18.224  67.222  0.00  0.00    +0.094 C 
ATOM     13  N   UNL     1      -7.382  19.638  67.395  0.00  0.00    -0.269 NA
ATOM     14  C   UNL     1      -6.710  20.075  68.617  0.00  0.00    +0.090 C 
ATOM     15  C   UNL     1      -8.810  19.835  67.637  0.00  0.00    +0.094 C 
ATOM     16  C   UNL     1      -9.653  19.288  66.507  0.00  0.00    +0.109 C 
ATOM     17  C   UNL     1     -10.442  15.798  65.840  0.00  0.00    +0.036 A 
BRANCH   5  20
ATOM     18  C   UNL     1     -13.128  14.072  65.619  0.00  0.00    +0.031 C 
ATOM     19  C   UNL     1     -12.063  13.197  65.041  0.00  0.00    -0.022 A 
ATOM     20  C   UNL     1     -10.720  13.372  65.358  0.00  0.00    -0.003 A 
ATOM     21  C   UNL     1      -9.830  12.993  64.361  0.00  0.00    -0.000 A 
ATOM     22  C   UNL     1     -10.127  11.800  63.712  0.00  0.00    -0.000 A 
ATOM     23  C   UNL     1     -11.464  11.626  63.375  0.00  0.00    -0.000 A 
ATOM     24  C   UNL     1     -12.452  12.317  64.044  0.00  0.00    -0.004 A 
ENDBRANCH   5  20
ENDBRANCH   1   6
BRANCH   2  25
ATOM     25  C   UNL     1     -10.312  10.598  68.632  0.00  0.00    +0.088 C 
ATOM     26  C   UNL     1      -8.848  10.390  68.361  0.00  0.00    +0.014 C 
ATOM     27  C   UNL     1     -11.136   9.878  67.582  0.00  0.00    +0.014 C 
BRANCH  25  28
ATOM     28  C   UNL     1     -10.638   9.965  69.944  0.00  0.00    -0.015 A 
ATOM     29  C   UNL     1     -11.948   9.689  70.319  0.00  0.00    +0.000 A 
ATOM     30  C   UNL     1     -12.252   9.020  71.493  0.00  0.00    +0.071 A 
ATOM     31  C   UNL     1     -11.165   8.625  72.262  0.00  0.00    +0.008 A 
ATOM     32  C   UNL     1      -9.908   8.452  71.697  0.00  0.00    +0.071 A 
ATOM     33  C   UNL     1      -9.675   9.144  70.517  0.00  0.00    +0.000 A 
BRANCH  32  34
ATOM     34  C   UNL     1      -8.780   7.976  72.529  0.00  0.00    +0.419 C 
ATOM     35  F   UNL     1      -7.653   8.737  72.252  0.00  0.00    -0.166 F 
ATOM     36  F   UNL     1      -8.485   6.656  72.292  0.00  0.00    -0.166 F 
ATOM     37  F   UNL     1      -9.117   8.116  73.855  0.00  0.00    -0.166 F 
ENDBRANCH  32  34
BRANCH  30  38
ATOM     38  C   UNL     1     -13.628   8.520  71.769  0.00  0.00    +0.419 C 
ATOM     39  F   UNL     1     -13.591   7.129  71.731  0.00  0.00    -0.166 F 
ATOM     40  F   UNL     1     -14.501   8.967  70.809  0.00  0.00    -0.166 F 
ATOM     41  F   UNL     1     -14.042   8.845  73.055  0.00  0.00    -0.166 F 
ENDBRANCH  30  38
ENDBRANCH  25  28
ENDBRANCH   2  25
TORSDOF 6
ENDMDL
MODEL 7
REMARK VINA RESULT:      -7.0      5.227      8.210
REMARK  Name = 
REMARK  6 active torsions:
REMARK  status: ('A' for Active; 'I' for Inactive)
REMARK    1  A    between atoms: C_7  and  C_8
REMARK    2  A    between atoms: C_20  and  N_21
REMARK    3  A    between atoms: C_23  and  C_25
REMARK    4  A    between atoms: C_25  and  C_28
REMARK    5  A    between atoms: C_30  and  C_31
REMARK    6  A    between atoms: C_36  and  C_37
REMARK                            x       y       z     vdW  Elec       q    Type
REMARK                         _______ _______ _______ _____ _____    ______ ____
ROOT
ATOM      1  N   UNL     1      -6.341  14.437  68.282  0.00  0.00    -0.255 N 
ATOM      2  C   UNL     1      -6.797  13.278  68.992  0.00  0.00    +0.232 C 
ATOM      3  O   UNL     1      -6.409  13.212  70.199  0.00  0.00    -0.274 OA
ATOM      4  C   UNL     1      -4.945  14.375  67.852  0.00  0.00    +0.120 C 
ENDROOT
BRANCH   1   6
ATOM      5  C   UNL     1      -7.619  16.476  68.182  0.00  0.00    +0.018 A 
ATOM      6  C   UNL     1      -6.733  15.687  68.864  0.00  0.00    +0.073 A 
ATOM      7  C   UNL     1      -5.917  16.298  69.806  0.00  0.00    +0.115 A 
ATOM      8  N   UNL     1      -5.825  17.648  69.881  0.00  0.00    -0.228 NA
ATOM      9  C   UNL     1      -6.467  18.431  68.980  0.00  0.00    +0.132 A 
ATOM     10  N   UNL     1      -5.881  19.641  68.487  0.00  0.00    -0.290 N 
ATOM     11  C   UNL     1      -5.112  19.631  67.248  0.00  0.00    +0.109 C 
ATOM     12  C   UNL     1      -3.647  19.640  67.669  0.00  0.00    +0.094 C 
ATOM     13  N   UNL     1      -3.364  20.833  68.448  0.00  0.00    -0.269 NA
ATOM     14  C   UNL     1      -1.972  20.750  68.886  0.00  0.00    +0.090 C 
ATOM     15  C   UNL     1      -4.164  20.835  69.671  0.00  0.00    +0.094 C 
ATOM     16  C   UNL     1      -5.645  20.771  69.374  0.00  0.00    +0.109 C 
ATOM     17  C   UNL     1      -7.561  17.850  68.354  0.00  0.00    +0.036 A 
BRANCH   5  20
ATOM     18  C   UNL     1      -9.789  15.568  69.706  0.00  0.00    +0.031 C 
ATOM     19  C   UNL     1      -9.783  15.409  68.219  0.00  0.00    -0.022 A 
ATOM     20  C   UNL     1      -8.714  15.841  67.442  0.00  0.00    -0.003 A 
ATOM     21  C   UNL     1      -9.049  16.227  66.150  0.00  0.00    -0.000 A 
ATOM     22  C   UNL     1      -9.955  15.405  65.493  0.00  0.00    -0.000 A 
ATOM     23  C   UNL     1     -11.037  14.985  66.258  0.00  0.00    -0.000 A 
ATOM     24  C   UNL     1     -10.960  14.973  67.635  0.00  0.00    -0.004 A 
ENDBRANCH   5  20
ENDBRANCH   1   6
BRANCH   2  25
ATOM     25  C   UNL     1      -6.992  11.968  68.309  0.00  0.00    +0.088 C 
ATOM     26  C   UNL     1      -6.516  10.870  69.219  0.00  0.00    +0.014 C 
ATOM     27  C   UNL     1      -6.241  11.906  66.993  0.00  0.00    +0.014 C 
BRANCH  25  28
ATOM     28  C   UNL     1      -8.431  11.721  67.996  0.00  0.00    -0.015 A 
ATOM     29  C   UNL     1      -8.934  11.860  66.707  0.00  0.00    +0.000 A 
ATOM     30  C   UNL     1     -10.245  11.546  66.391  0.00  0.00    +0.071 A 
ATOM     31  C   UNL     1     -11.020  11.065  67.438  0.00  0.00    +0.008 A 
ATOM     32  C   UNL     1     -10.438  10.474  68.552  0.00  0.00    +0.071 A 
ATOM     33  C   UNL     1      -9.119  10.827  68.804  0.00  0.00    +0.000 A 
BRANCH  32  34
ATOM     34  C   UNL     1     -11.290   9.919  69.628  0.00  0.00    +0.419 C 
ATOM     35  F   UNL     1     -10.791  10.318  70.860  0.00  0.00    -0.166 F 
ATOM     36  F   UNL     1     -11.332   8.547  69.596  0.00  0.00    -0.166 F 
ATOM     37  F   UNL     1     -12.569  10.398  69.471  0.00  0.00    -0.166 F 
ENDBRANCH  32  34
BRANCH  30  38
ATOM     38  C   UNL     1     -10.707  11.468  64.976  0.00  0.00    +0.419 C 
ATOM     39  F   UNL     1      -9.900  12.312  64.219  0.00  0.00    -0.166 F 
ATOM     40  F   UNL     1     -12.009  11.890  64.874  0.00  0.00    -0.166 F 
ATOM     41  F   UNL     1     -10.517  10.198  64.445  0.00  0.00    -0.166 F 
ENDBRANCH  30  38
ENDBRANCH  25  28
ENDBRANCH   2  25
TORSDOF 6
ENDMDL
MODEL 8
REMARK VINA RESULT:      -7.0      3.225      5.531
REMARK  Name = 
REMARK  6 active torsions:
REMARK  status: ('A' for Active; 'I' for Inactive)
REMARK    1  A    between atoms: C_7  and  C_8
REMARK    2  A    between atoms: C_20  and  N_21
REMARK    3  A    between atoms: C_23  and  C_25
REMARK    4  A    between atoms: C_25  and  C_28
REMARK    5  A    between atoms: C_30  and  C_31
REMARK    6  A    between atoms: C_36  and  C_37
REMARK                            x       y       z     vdW  Elec       q    Type
REMARK                         _______ _______ _______ _____ _____    ______ ____
ROOT
ATOM      1  N   UNL     1      -7.952  12.428  67.458  0.00  0.00    -0.255 N 
ATOM      2  C   UNL     1      -6.926  13.429  67.408  0.00  0.00    +0.232 C 
ATOM      3  O   UNL     1      -5.746  12.971  67.321  0.00  0.00    -0.274 OA
ATOM      4  C   UNL     1      -8.090  11.767  68.755  0.00  0.00    +0.120 C 
ENDROOT
BRANCH   1   6
ATOM      5  C   UNL     1      -9.194  11.217  65.789  0.00  0.00    +0.018 A 
ATOM      6  C   UNL     1      -7.980  11.546  66.329  0.00  0.00    +0.073 A 
ATOM      7  C   UNL     1      -6.915  10.688  66.094  0.00  0.00    +0.115 A 
ATOM      8  N   UNL     1      -7.112   9.458  65.560  0.00  0.00    -0.228 NA
ATOM      9  C   UNL     1      -8.367   9.006  65.320  0.00  0.00    +0.132 A 
ATOM     10  N   UNL     1      -8.721   7.634  65.522  0.00  0.00    -0.290 N 
ATOM     11  C   UNL     1      -9.299   7.204  66.790  0.00  0.00    +0.109 C 
ATOM     12  C   UNL     1      -8.163   6.542  67.560  0.00  0.00    +0.094 C 
ATOM     13  N   UNL     1      -7.652   5.408  66.810  0.00  0.00    -0.269 NA
ATOM     14  C   UNL     1      -6.520   4.863  67.558  0.00  0.00    +0.090 C 
ATOM     15  C   UNL     1      -7.101   5.858  65.533  0.00  0.00    +0.094 C 
ATOM     16  C   UNL     1      -8.134   6.584  64.701  0.00  0.00    +0.109 C 
ATOM     17  C   UNL     1      -9.336   9.988  65.164  0.00  0.00    +0.036 A 
BRANCH   5  20
ATOM     18  C   UNL     1     -11.279  10.983  67.647  0.00  0.00    +0.031 C 
ATOM     19  C   UNL     1     -11.261  12.106  66.660  0.00  0.00    -0.022 A 
ATOM     20  C   UNL     1     -10.243  12.238  65.721  0.00  0.00    -0.003 A 
ATOM     21  C   UNL     1      -9.975  13.544  65.330  0.00  0.00    -0.000 A 
ATOM     22  C   UNL     1     -11.088  14.344  65.103  0.00  0.00    -0.000 A 
ATOM     23  C   UNL     1     -12.101  14.232  66.048  0.00  0.00    -0.000 A 
ATOM     24  C   UNL     1     -12.205  13.104  66.834  0.00  0.00    -0.004 A 
ENDBRANCH   5  20
ENDBRANCH   1   6
BRANCH   2  25
ATOM     25  C   UNL     1      -7.059  14.724  68.134  0.00  0.00    +0.088 C 
ATOM     26  C   UNL     1      -6.177  15.745  67.471  0.00  0.00    +0.014 C 
ATOM     27  C   UNL     1      -6.679  14.588  69.596  0.00  0.00    +0.014 C 
BRANCH  25  28
ATOM     28  C   UNL     1      -8.464  15.230  68.100  0.00  0.00    -0.015 A 
ATOM     29  C   UNL     1      -9.408  14.836  69.042  0.00  0.00    +0.000 A 
ATOM     30  C   UNL     1     -10.685  15.370  69.072  0.00  0.00    +0.071 A 
ATOM     31  C   UNL     1     -10.958  16.337  68.113  0.00  0.00    +0.008 A 
ATOM     32  C   UNL     1      -9.939  17.069  67.518  0.00  0.00    +0.071 A 
ATOM     33  C   UNL     1      -8.682  16.478  67.533  0.00  0.00    +0.000 A 
BRANCH  32  34
ATOM     34  C   UNL     1     -10.261  18.133  66.541  0.00  0.00    +0.419 C 
ATOM     35  F   UNL     1      -9.087  18.738  66.117  0.00  0.00    -0.166 F 
ATOM     36  F   UNL     1     -11.081  19.095  67.077  0.00  0.00    -0.166 F 
ATOM     37  F   UNL     1     -10.902  17.565  65.464  0.00  0.00    -0.166 F 
ENDBRANCH  32  34
BRANCH  30  38
ATOM     38  C   UNL     1     -11.604  15.124  70.219  0.00  0.00    +0.419 C 
ATOM     39  F   UNL     1     -12.007  13.793  70.163  0.00  0.00    -0.166 F 
ATOM     40  F   UNL     1     -12.712  15.927  70.124  0.00  0.00    -0.166 F 
ATOM     41  F   UNL     1     -10.950  15.263  71.437  0.00  0.00    -0.166 F 
ENDBRANCH  30  38
ENDBRANCH  25  28
ENDBRANCH   2  25
TORSDOF 6
ENDMDL
MODEL 9
REMARK VINA RESULT:      -6.9      2.551      4.096
REMARK  Name = 
REMARK  6 active torsions:
REMARK  status: ('A' for Active; 'I' for Inactive)
REMARK    1  A    between atoms: C_7  and  C_8
REMARK    2  A    between atoms: C_20  and  N_21
REMARK    3  A    between atoms: C_23  and  C_25
REMARK    4  A    between atoms: C_25  and  C_28
REMARK    5  A    between atoms: C_30  and  C_31
REMARK    6  A    between atoms: C_36  and  C_37
REMARK                            x       y       z     vdW  Elec       q    Type
REMARK                         _______ _______ _______ _____ _____    ______ ____
ROOT
ATOM      1  N   UNL     1     -10.059  11.917  65.141  0.00  0.00    -0.255 N 
ATOM      2  C   UNL     1     -11.065  12.604  65.899  0.00  0.00    +0.232 C 
ATOM      3  O   UNL     1     -12.051  11.883  66.243  0.00  0.00    -0.274 OA
ATOM      4  C   UNL     1     -10.407  11.688  63.740  0.00  0.00    +0.120 C 
ENDROOT
BRANCH   1   6
ATOM      5  C   UNL     1      -8.279  10.955  66.447  0.00  0.00    +0.018 A 
ATOM      6  C   UNL     1      -9.477  10.789  65.807  0.00  0.00    +0.073 A 
ATOM      7  C   UNL     1      -9.833   9.502  65.427  0.00  0.00    +0.115 A 
ATOM      8  N   UNL     1      -8.936   8.488  65.467  0.00  0.00    -0.228 NA
ATOM      9  C   UNL     1      -7.644   8.726  65.803  0.00  0.00    +0.132 A 
ATOM     10  N   UNL     1      -6.565   8.028  65.171  0.00  0.00    -0.290 N 
ATOM     11  C   UNL     1      -5.896   8.609  64.012  0.00  0.00    +0.109 C 
ATOM     12  C   UNL     1      -6.462   7.883  62.799  0.00  0.00    +0.094 C 
ATOM     13  N   UNL     1      -6.187   6.460  62.900  0.00  0.00    -0.269 NA
ATOM     14  C   UNL     1      -6.817   5.809  61.753  0.00  0.00    +0.090 C 
ATOM     15  C   UNL     1      -6.846   5.905  64.081  0.00  0.00    +0.094 C 
ATOM     16  C   UNL     1      -6.398   6.594  65.350  0.00  0.00    +0.109 C 
ATOM     17  C   UNL     1      -7.423   9.871  66.556  0.00  0.00    +0.036 A 
BRANCH   5  20
ATOM     18  C   UNL     1      -9.638  11.319  68.871  0.00  0.00    +0.031 C 
ATOM     19  C   UNL     1      -8.697  12.363  68.362  0.00  0.00    -0.022 A 
ATOM     20  C   UNL     1      -8.020  12.211  67.157  0.00  0.00    -0.003 A 
ATOM     21  C   UNL     1      -6.787  12.849  67.096  0.00  0.00    -0.000 A 
ATOM     22  C   UNL     1      -6.746  14.130  67.633  0.00  0.00    -0.000 A 
ATOM     23  C   UNL     1      -7.404  14.285  68.847  0.00  0.00    -0.000 A 
ATOM     24  C   UNL     1      -8.398  13.405  69.223  0.00  0.00    -0.004 A 
ENDBRANCH   5  20
ENDBRANCH   1   6
BRANCH   2  25
ATOM     25  C   UNL     1     -11.373  14.044  65.667  0.00  0.00    +0.088 C 
ATOM     26  C   UNL     1     -12.741  14.154  65.053  0.00  0.00    +0.014 C 
ATOM     27  C   UNL     1     -10.348  14.695  64.759  0.00  0.00    +0.014 C 
BRANCH  25  28
ATOM     28  C   UNL     1     -11.372  14.818  66.944  0.00  0.00    -0.015 A 
ATOM     29  C   UNL     1     -11.888  14.289  68.122  0.00  0.00    +0.000 A 
ATOM     30  C   UNL     1     -11.808  14.964  69.328  0.00  0.00    +0.071 A 
ATOM     31  C   UNL     1     -11.164  16.194  69.291  0.00  0.00    +0.008 A 
ATOM     32  C   UNL     1     -10.250  16.498  68.291  0.00  0.00    +0.071 A 
ATOM     33  C   UNL     1     -10.382  15.777  67.111  0.00  0.00    +0.000 A 
BRANCH  32  34
ATOM     34  C   UNL     1      -9.536  17.794  68.307  0.00  0.00    +0.419 C 
ATOM     35  F   UNL     1      -8.201  17.578  68.618  0.00  0.00    -0.166 F 
ATOM     36  F   UNL     1     -10.066  18.663  69.228  0.00  0.00    -0.166 F 
ATOM     37  F   UNL     1      -9.631  18.367  67.060  0.00  0.00    -0.166 F 
ENDBRANCH  32  34
BRANCH  30  38
ATOM     38  C   UNL     1     -12.143  14.295  70.617  0.00  0.00    +0.419 C 
ATOM     39  F   UNL     1     -11.323  14.835  71.603  0.00  0.00    -0.166 F 
ATOM     40  F   UNL     1     -11.905  12.946  70.531  0.00  0.00    -0.166 F 
ATOM     41  F   UNL     1     -13.443  14.580  71.018  0.00  0.00    -0.166 F 
ENDBRANCH  30  38
ENDBRANCH  25  28
ENDBRANCH   2  25
TORSDOF 6
ENDMDL
