MODEL 1
REMARK VINA RESULT:      -6.8      0.000      0.000
REMARK  Name = 
REMARK  7 active torsions:
REMARK  status: ('A' for Active; 'I' for Inactive)
REMARK    1  A    between atoms: C_2  and  N_4
REMARK    2  A    between atoms: N_4  and  C_6
REMARK    3  A    between atoms: N_4  and  C_25
REMARK    4  A    between atoms: C_6  and  C_7
REMARK    5  A    between atoms: C_7  and  O_8
REMARK    6  A    between atoms: O_8  and  C_9
REMARK    7  A    between atoms: C_9  and  C_11
REMARK                            x       y       z     vdW  Elec       q    Type
REMARK                         _______ _______ _______ _____ _____    ______ ____
ROOT
ATOM      1  C   UNL     1     -11.259  15.310  68.883  0.00  0.00    +0.149 C 
ATOM      2  C   UNL     1     -11.236  14.311  67.787  0.00  0.00    +0.027 A 
ATOM      3  C   UNL     1     -11.488  12.966  68.028  0.00  0.00    +0.142 A 
ATOM      4  C   UNL     1     -11.700  12.127  66.942  0.00  0.00    +0.037 A 
ATOM      5  C   UNL     1     -12.119  12.616  65.713  0.00  0.00    +0.003 A 
ATOM      6  C   UNL     1     -12.069  13.994  65.539  0.00  0.00    -0.000 A 
ATOM      7  O   UNL     1     -11.689  12.552  69.344  0.00  0.00    -0.454 OA
ATOM      8  C   UNL     1     -12.090  13.437  70.349  0.00  0.00    +0.142 A 
ATOM      9  C   UNL     1     -12.895  13.024  71.404  0.00  0.00    +0.037 A 
ATOM     10  C   UNL     1     -13.739  13.883  72.077  0.00  0.00    +0.003 A 
ATOM     11  C   UNL     1     -13.820  15.175  71.576  0.00  0.00    -0.000 A 
ATOM     12  C   UNL     1     -12.765  15.654  70.811  0.00  0.00    -0.000 A 
ATOM     13  C   UNL     1     -11.447  14.775  66.494  0.00  0.00    -0.000 A 
ATOM     14  C   UNL     1     -11.957  14.792  70.094  0.00  0.00    +0.027 A 
ENDROOT
BRANCH   1  15
ATOM     15  C   UNL     1      -9.886  15.770  69.252  0.00  0.00    +0.325 C 
ATOM     16  O   UNL     1      -8.990  14.872  69.222  0.00  0.00    -0.249 OA
BRANCH  15  17
ATOM     17  O   UNL     1      -9.454  17.071  69.108  0.00  0.00    -0.442 OA
BRANCH  17  18
ATOM     18  C   UNL     1      -8.150  17.428  68.658  0.00  0.00    +0.269 C 
BRANCH  18  19
ATOM     19  C   UNL     1      -8.098  18.821  68.093  0.00  0.00    +0.156 C 
BRANCH  19  20
ATOM     20  N   UNL     1      -8.188  18.862  66.658  0.00  0.00    +0.296 N 
ATOM     21  C   UNL     1      -8.098  17.493  66.171  0.00  0.00    +0.170 C 
BRANCH  20  23
ATOM     22  C   UNL     1      -6.255  18.922  65.131  0.00  0.00    +0.061 C 
ATOM     23  C   UNL     1      -7.184  19.682  66.032  0.00  0.00    +0.059 C 
ATOM     24  C   UNL     1      -6.470  20.585  66.995  0.00  0.00    +0.061 C 
ENDBRANCH  20  23
BRANCH  20  25
ATOM     25  C   UNL     1      -9.479  19.462  66.327  0.00  0.00    +0.059 C 
ATOM     26  C   UNL     1     -10.014  20.302  67.468  0.00  0.00    +0.061 C 
ATOM     27  C   UNL     1     -10.439  18.336  65.986  0.00  0.00    +0.061 C 
ENDBRANCH  20  25
ENDBRANCH  19  20
ENDBRANCH  18  19
ENDBRANCH  17  18
ENDBRANCH  15  17
ENDBRANCH   1  15
TORSDOF 7
ENDMDL
MODEL 2
REMARK VINA RESULT:      -6.8      1.811      2.962
REMARK  Name = 
REMARK  7 active torsions:
REMARK  status: ('A' for Active; 'I' for Inactive)
REMARK    1  A    between atoms: C_2  and  N_4
REMARK    2  A    between atoms: N_4  and  C_6
REMARK    3  A    between atoms: N_4  and  C_25
REMARK    4  A    between atoms: C_6  and  C_7
REMARK    5  A    between atoms: C_7  and  O_8
REMARK    6  A    between atoms: O_8  and  C_9
REMARK    7  A    between atoms: C_9  and  C_11
REMARK                            x       y       z     vdW  Elec       q    Type
REMARK                         _______ _______ _______ _____ _____    ______ ____
ROOT
ATOM      1  C   UNL     1     -11.692  13.291  68.490  0.00  0.00    +0.149 C 
ATOM      2  C   UNL     1     -11.414  13.014  67.059  0.00  0.00    +0.027 A 
ATOM      3  C   UNL     1     -10.617  11.944  66.671  0.00  0.00    +0.142 A 
ATOM      4  C   UNL     1     -10.597  11.586  65.330  0.00  0.00    +0.037 A 
ATOM      5  C   UNL     1     -11.634  11.920  64.470  0.00  0.00    +0.003 A 
ATOM      6  C   UNL     1     -12.562  12.842  64.938  0.00  0.00    -0.000 A 
ATOM      7  O   UNL     1     -10.013  11.170  67.661  0.00  0.00    -0.454 OA
ATOM      8  C   UNL     1     -10.502  11.123  68.970  0.00  0.00    +0.142 A 
ATOM      9  C   UNL     1     -10.396   9.975  69.746  0.00  0.00    +0.037 A 
ATOM     10  C   UNL     1     -11.282   9.677  70.761  0.00  0.00    +0.003 A 
ATOM     11  C   UNL     1     -12.358  10.542  70.903  0.00  0.00    -0.000 A 
ATOM     12  C   UNL     1     -12.238  11.833  70.408  0.00  0.00    -0.000 A 
ATOM     13  C   UNL     1     -12.317  13.506  66.125  0.00  0.00    -0.000 A 
ATOM     14  C   UNL     1     -11.390  12.115  69.354  0.00  0.00    +0.027 A 
ENDROOT
BRANCH   1  15
ATOM     15  C   UNL     1     -10.944  14.486  68.985  0.00  0.00    +0.325 C 
ATOM     16  O   UNL     1      -9.680  14.380  68.958  0.00  0.00    -0.249 OA
BRANCH  15  17
ATOM     17  O   UNL     1     -11.453  15.767  68.962  0.00  0.00    -0.442 OA
BRANCH  17  18
ATOM     18  C   UNL     1     -10.646  16.938  68.867  0.00  0.00    +0.269 C 
BRANCH  18  19
ATOM     19  C   UNL     1     -10.447  17.385  67.445  0.00  0.00    +0.156 C 
BRANCH  19  20
ATOM     20  N   UNL     1      -9.107  17.827  67.165  0.00  0.00    +0.296 N 
ATOM     21  C   UNL     1      -8.378  17.850  68.424  0.00  0.00    +0.170 C 
BRANCH  20  23
ATOM     22  C   UNL     1      -8.205  20.117  67.264  0.00  0.00    +0.061 C 
ATOM     23  C   UNL     1      -9.038  19.113  66.522  0.00  0.00    +0.059 C 
ATOM     24  C   UNL     1     -10.380  19.645  66.111  0.00  0.00    +0.061 C 
ENDBRANCH  20  23
BRANCH  20  25
ATOM     25  C   UNL     1      -8.527  16.865  66.229  0.00  0.00    +0.059 C 
ATOM     26  C   UNL     1      -9.555  15.866  65.744  0.00  0.00    +0.061 C 
ATOM     27  C   UNL     1      -7.381  16.164  66.939  0.00  0.00    +0.061 C 
ENDBRANCH  20  25
ENDBRANCH  19  20
ENDBRANCH  18  19
ENDBRANCH  17  18
ENDBRANCH  15  17
ENDBRANCH   1  15
TORSDOF 7
ENDMDL
MODEL 3
REMARK VINA RESULT:      -6.8      1.057      2.296
REMARK  Name = 
REMARK  7 active torsions:
REMARK  status: ('A' for Active; 'I' for Inactive)
REMARK    1  A    between atoms: C_2  and  N_4
REMARK    2  A    between atoms: N_4  and  C_6
REMARK    3  A    between atoms: N_4  and  C_25
REMARK    4  A    between atoms: C_6  and  C_7
REMARK    5  A    between atoms: C_7  and  O_8
REMARK    6  A    between atoms: O_8  and  C_9
REMARK    7  A    between atoms: C_9  and  C_11
REMARK                            x       y       z     vdW  Elec       q    Type
REMARK                         _______ _______ _______ _____ _____    ______ ____
ROOT
ATOM      1  C   UNL     1     -10.520  15.333  67.856  0.00  0.00    +0.149 C 
ATOM      2  C   UNL     1     -10.880  14.413  66.750  0.00  0.00    +0.027 A 
ATOM      3  C   UNL     1     -11.411  13.153  67.001  0.00  0.00    +0.142 A 
ATOM      4  C   UNL     1     -11.958  12.443  65.941  0.00  0.00    +0.037 A 
ATOM      5  C   UNL     1     -12.405  13.077  64.791  0.00  0.00    +0.003 A 
ATOM      6  C   UNL     1     -12.050  14.412  64.635  0.00  0.00    -0.000 A 
ATOM      7  O   UNL     1     -11.532  12.734  68.325  0.00  0.00    -0.454 OA
ATOM      8  C   UNL     1     -11.575  13.637  69.391  0.00  0.00    +0.142 A 
ATOM      9  C   UNL     1     -12.310  13.372  70.540  0.00  0.00    +0.037 A 
ATOM     10  C   UNL     1     -12.829  14.370  71.339  0.00  0.00    +0.003 A 
ATOM     11  C   UNL     1     -12.664  15.668  70.875  0.00  0.00    -0.000 A 
ATOM     12  C   UNL     1     -11.634  15.925  69.981  0.00  0.00    -0.000 A 
ATOM     13  C   UNL     1     -11.140  14.977  65.507  0.00  0.00    -0.000 A 
ATOM     14  C   UNL     1     -11.157  14.934  69.144  0.00  0.00    +0.027 A 
ENDROOT
BRANCH   1  15
ATOM     15  C   UNL     1      -9.040  15.440  68.039  0.00  0.00    +0.325 C 
ATOM     16  O   UNL     1      -8.585  14.891  69.088  0.00  0.00    -0.249 OA
BRANCH  15  17
ATOM     17  O   UNL     1      -8.154  15.597  66.995  0.00  0.00    -0.442 OA
BRANCH  17  18
ATOM     18  C   UNL     1      -7.175  16.632  66.935  0.00  0.00    +0.269 C 
BRANCH  18  19
ATOM     19  C   UNL     1      -7.668  17.848  66.200  0.00  0.00    +0.156 C 
BRANCH  19  20
ATOM     20  N   UNL     1      -7.913  18.976  67.057  0.00  0.00    +0.296 N 
ATOM     21  C   UNL     1      -7.244  18.723  68.324  0.00  0.00    +0.170 C 
BRANCH  20  23
ATOM     22  C   UNL     1      -9.771  18.969  68.676  0.00  0.00    +0.061 C 
ATOM     23  C   UNL     1      -9.310  19.251  67.276  0.00  0.00    +0.059 C 
ATOM     24  C   UNL     1     -10.204  18.658  66.227  0.00  0.00    +0.061 C 
ENDBRANCH  20  23
BRANCH  20  25
ATOM     25  C   UNL     1      -7.360  20.151  66.386  0.00  0.00    +0.059 C 
ATOM     26  C   UNL     1      -6.583  19.772  65.143  0.00  0.00    +0.061 C 
ATOM     27  C   UNL     1      -6.471  20.876  67.382  0.00  0.00    +0.061 C 
ENDBRANCH  20  25
ENDBRANCH  19  20
ENDBRANCH  18  19
ENDBRANCH  17  18
ENDBRANCH  15  17
ENDBRANCH   1  15
TORSDOF 7
ENDMDL
MODEL 4
REMARK VINA RESULT:      -6.7      0.959      1.770
REMARK  Name = 
REMARK  7 active torsions:
REMARK  status: ('A' for Active; 'I' for Inactive)
REMARK    1  A    between atoms: C_2  and  N_4
REMARK    2  A    between atoms: N_4  and  C_6
REMARK    3  A    between atoms: N_4  and  C_25
REMARK    4  A    between atoms: C_6  and  C_7
REMARK    5  A    between atoms: C_7  and  O_8
REMARK    6  A    between atoms: O_8  and  C_9
REMARK    7  A    between atoms: C_9  and  C_11
REMARK                            x       y       z     vdW  Elec       q    Type
REMARK                         _______ _______ _______ _____ _____    ______ ____
ROOT
ATOM      1  C   UNL     1     -11.662  15.373  69.072  0.00  0.00    +0.149 C 
ATOM      2  C   UNL     1     -11.466  14.378  67.990  0.00  0.00    +0.027 A 
ATOM      3  C   UNL     1     -11.502  13.013  68.247  0.00  0.00    +0.142 A 
ATOM      4  C   UNL     1     -11.563  12.138  67.170  0.00  0.00    +0.037 A 
ATOM      5  C   UNL     1     -12.039  12.539  65.931  0.00  0.00    +0.003 A 
ATOM      6  C   UNL     1     -12.207  13.906  65.737  0.00  0.00    -0.000 A 
ATOM      7  O   UNL     1     -11.652  12.588  69.566  0.00  0.00    -0.454 OA
ATOM      8  C   UNL     1     -12.202  13.409  70.555  0.00  0.00    +0.142 A 
ATOM      9  C   UNL     1     -12.944  12.885  71.606  0.00  0.00    +0.037 A 
ATOM     10  C   UNL     1     -13.923  13.607  72.258  0.00  0.00    +0.003 A 
ATOM     11  C   UNL     1     -14.203  14.862  71.738  0.00  0.00    -0.000 A 
ATOM     12  C   UNL     1     -13.228  15.496  70.979  0.00  0.00    -0.000 A 
ATOM     13  C   UNL     1     -11.730  14.787  66.688  0.00  0.00    -0.000 A 
ATOM     14  C   UNL     1     -12.284  14.765  70.283  0.00  0.00    +0.027 A 
ENDROOT
BRANCH   1  15
ATOM     15  C   UNL     1     -10.385  16.051  69.449  0.00  0.00    +0.325 C 
ATOM     16  O   UNL     1      -9.360  15.303  69.462  0.00  0.00    -0.249 OA
BRANCH  15  17
ATOM     17  O   UNL     1     -10.157  17.399  69.273  0.00  0.00    -0.442 OA
BRANCH  17  18
ATOM     18  C   UNL     1      -9.662  17.968  68.064  0.00  0.00    +0.269 C 
BRANCH  18  19
ATOM     19  C   UNL     1      -8.315  18.614  68.241  0.00  0.00    +0.156 C 
BRANCH  19  20
ATOM     20  N   UNL     1      -7.312  18.106  67.345  0.00  0.00    +0.296 N 
ATOM     21  C   UNL     1      -7.997  17.454  66.238  0.00  0.00    +0.170 C 
BRANCH  20  23
ATOM     22  C   UNL     1      -6.466  15.793  67.435  0.00  0.00    +0.061 C 
ATOM     23  C   UNL     1      -6.383  17.196  67.963  0.00  0.00    +0.059 C 
ATOM     24  C   UNL     1      -6.390  17.266  69.461  0.00  0.00    +0.061 C 
ENDBRANCH  20  23
BRANCH  20  25
ATOM     25  C   UNL     1      -6.527  19.251  66.887  0.00  0.00    +0.059 C 
ATOM     26  C   UNL     1      -6.802  20.486  67.718  0.00  0.00    +0.061 C 
ATOM     27  C   UNL     1      -6.870  19.492  65.427  0.00  0.00    +0.061 C 
ENDBRANCH  20  25
ENDBRANCH  19  20
ENDBRANCH  18  19
ENDBRANCH  17  18
ENDBRANCH  15  17
ENDBRANCH   1  15
TORSDOF 7
ENDMDL
MODEL 5
REMARK VINA RESULT:      -6.6      2.408      4.831
REMARK  Name = 
REMARK  7 active torsions:
REMARK  status: ('A' for Active; 'I' for Inactive)
REMARK    1  A    between atoms: C_2  and  N_4
REMARK    2  A    between atoms: N_4  and  C_6
REMARK    3  A    between atoms: N_4  and  C_25
REMARK    4  A    between atoms: C_6  and  C_7
REMARK    5  A    between atoms: C_7  and  O_8
REMARK    6  A    between atoms: O_8  and  C_9
REMARK    7  A    between atoms: C_9  and  C_11
REMARK                            x       y       z     vdW  Elec       q    Type
REMARK                         _______ _______ _______ _____ _____    ______ ____
ROOT
ATOM      1  C   UNL     1     -11.433  12.343  69.791  0.00  0.00    +0.149 C 
ATOM      2  C   UNL     1     -12.182  13.302  70.640  0.00  0.00    +0.027 A 
ATOM      3  C   UNL     1     -13.150  12.870  71.538  0.00  0.00    +0.142 A 
ATOM      4  C   UNL     1     -13.634  13.774  72.474  0.00  0.00    +0.037 A 
ATOM      5  C   UNL     1     -12.907  14.894  72.851  0.00  0.00    +0.003 A 
ATOM      6  C   UNL     1     -11.802  15.213  72.072  0.00  0.00    -0.000 A 
ATOM      7  O   UNL     1     -13.464  11.512  71.576  0.00  0.00    -0.454 OA
ATOM      8  C   UNL     1     -12.584  10.531  71.110  0.00  0.00    +0.142 A 
ATOM      9  C   UNL     1     -12.531   9.268  71.685  0.00  0.00    +0.037 A 
ATOM     10  C   UNL     1     -11.393   8.488  71.667  0.00  0.00    +0.003 A 
ATOM     11  C   UNL     1     -10.259   9.078  71.127  0.00  0.00    -0.000 A 
ATOM     12  C   UNL     1     -10.422  10.135  70.241  0.00  0.00    -0.000 A 
ATOM     13  C   UNL     1     -11.591  14.536  70.886  0.00  0.00    -0.000 A 
ATOM     14  C   UNL     1     -11.539  10.947  70.302  0.00  0.00    +0.027 A 
ENDROOT
BRANCH   1  15
ATOM     15  C   UNL     1     -11.875  12.393  68.364  0.00  0.00    +0.325 C 
ATOM     16  O   UNL     1     -12.218  11.277  67.867  0.00  0.00    -0.249 OA
BRANCH  15  17
ATOM     17  O   UNL     1     -12.405  13.518  67.770  0.00  0.00    -0.442 OA
BRANCH  17  18
ATOM     18  C   UNL     1     -11.688  14.345  66.858  0.00  0.00    +0.269 C 
BRANCH  18  19
ATOM     19  C   UNL     1     -11.041  15.522  67.534  0.00  0.00    +0.156 C 
BRANCH  19  20
ATOM     20  N   UNL     1      -9.610  15.550  67.394  0.00  0.00    +0.296 N 
ATOM     21  C   UNL     1      -9.294  15.185  66.022  0.00  0.00    +0.170 C 
BRANCH  20  23
ATOM     22  C   UNL     1      -8.065  15.419  69.310  0.00  0.00    +0.061 C 
ATOM     23  C   UNL     1      -8.916  14.686  68.314  0.00  0.00    +0.059 C 
ATOM     24  C   UNL     1      -8.196  13.555  67.639  0.00  0.00    +0.061 C 
ENDBRANCH  20  23
BRANCH  20  25
ATOM     25  C   UNL     1      -9.176  16.912  67.699  0.00  0.00    +0.059 C 
ATOM     26  C   UNL     1     -10.335  17.783  68.136  0.00  0.00    +0.061 C 
ATOM     27  C   UNL     1      -8.514  17.475  66.453  0.00  0.00    +0.061 C 
ENDBRANCH  20  25
ENDBRANCH  19  20
ENDBRANCH  18  19
ENDBRANCH  17  18
ENDBRANCH  15  17
ENDBRANCH   1  15
TORSDOF 7
ENDMDL
MODEL 6
REMARK VINA RESULT:      -6.5      4.153      8.634
REMARK  Name = 
REMARK  7 active torsions:
REMARK  status: ('A' for Active; 'I' for Inactive)
REMARK    1  A    between atoms: C_2  and  N_4
REMARK    2  A    between atoms: N_4  and  C_6
REMARK    3  A    between atoms: N_4  and  C_25
REMARK    4  A    between atoms: C_6  and  C_7
REMARK    5  A    between atoms: C_7  and  O_8
REMARK    6  A    between atoms: O_8  and  C_9
REMARK    7  A    between atoms: C_9  and  C_11
REMARK                            x       y       z     vdW  Elec       q    Type
REMARK                         _______ _______ _______ _____ _____    ______ ____
ROOT
ATOM      1  C   UNL     1     -11.239  12.388  68.301  0.00  0.00    +0.149 C 
ATOM      2  C   UNL     1     -11.466  13.435  69.327  0.00  0.00    +0.027 A 
ATOM      3  C   UNL     1     -11.389  14.786  69.011  0.00  0.00    +0.142 A 
ATOM      4  C   UNL     1     -11.853  15.709  69.939  0.00  0.00    +0.037 A 
ATOM      5  C   UNL     1     -12.772  15.362  70.918  0.00  0.00    +0.003 A 
ATOM      6  C   UNL     1     -13.012  14.004  71.096  0.00  0.00    -0.000 A 
ATOM      7  O   UNL     1     -11.017  15.147  67.718  0.00  0.00    -0.454 OA
ATOM      8  C   UNL     1     -11.151  14.274  66.634  0.00  0.00    +0.142 A 
ATOM      9  C   UNL     1     -11.428  14.740  65.354  0.00  0.00    +0.037 A 
ATOM     10  C   UNL     1     -12.087  13.978  64.411  0.00  0.00    +0.003 A 
ATOM     11  C   UNL     1     -12.556  12.745  64.843  0.00  0.00    -0.000 A 
ATOM     12  C   UNL     1     -11.953  12.159  65.947  0.00  0.00    -0.000 A 
ATOM     13  C   UNL     1     -12.214  13.084  70.445  0.00  0.00    -0.000 A 
ATOM     14  C   UNL     1     -11.343  12.932  66.917  0.00  0.00    +0.027 A 
ENDROOT
BRANCH   1  15
ATOM     15  C   UNL     1      -9.920  11.707  68.477  0.00  0.00    +0.325 C 
ATOM     16  O   UNL     1      -8.904  12.451  68.323  0.00  0.00    -0.249 OA
BRANCH  15  17
ATOM     17  O   UNL     1      -9.743  10.578  69.248  0.00  0.00    -0.442 OA
BRANCH  17  18
ATOM     18  C   UNL     1     -10.802   9.704  69.630  0.00  0.00    +0.269 C 
BRANCH  18  19
ATOM     19  C   UNL     1     -10.943   9.588  71.122  0.00  0.00    +0.156 C 
BRANCH  19  20
ATOM     20  N   UNL     1     -11.532   8.347  71.548  0.00  0.00    +0.296 N 
ATOM     21  C   UNL     1     -11.488   7.428  70.422  0.00  0.00    +0.170 C 
BRANCH  20  23
ATOM     22  C   UNL     1     -13.840   7.490  71.437  0.00  0.00    +0.061 C 
ATOM     23  C   UNL     1     -12.881   8.478  72.035  0.00  0.00    +0.059 C 
ATOM     24  C   UNL     1     -13.389   9.889  72.007  0.00  0.00    +0.061 C 
ENDBRANCH  20  23
BRANCH  20  25
ATOM     25  C   UNL     1     -10.733   7.857  72.670  0.00  0.00    +0.059 C 
ATOM     26  C   UNL     1      -9.302   8.344  72.592  0.00  0.00    +0.061 C 
ATOM     27  C   UNL     1     -10.792   6.339  72.649  0.00  0.00    +0.061 C 
ENDBRANCH  20  25
ENDBRANCH  19  20
ENDBRANCH  18  19
ENDBRANCH  17  18
ENDBRANCH  15  17
ENDBRANCH   1  15
TORSDOF 7
ENDMDL
MODEL 7
REMARK VINA RESULT:      -6.5      1.719      2.517
REMARK  Name = 
REMARK  7 active torsions:
REMARK  status: ('A' for Active; 'I' for Inactive)
REMARK    1  A    between atoms: C_2  and  N_4
REMARK    2  A    between atoms: N_4  and  C_6
REMARK    3  A    between atoms: N_4  and  C_25
REMARK    4  A    between atoms: C_6  and  C_7
REMARK    5  A    between atoms: C_7  and  O_8
REMARK    6  A    between atoms: O_8  and  C_9
REMARK    7  A    between atoms: C_9  and  C_11
REMARK                            x       y       z     vdW  Elec       q    Type
REMARK                         _______ _______ _______ _____ _____    ______ ____
ROOT
ATOM      1  C   UNL     1     -11.546  13.448  68.639  0.00  0.00    +0.149 C 
ATOM      2  C   UNL     1     -11.428  13.160  67.188  0.00  0.00    +0.027 A 
ATOM      3  C   UNL     1     -10.921  11.950  66.730  0.00  0.00    +0.142 A 
ATOM      4  C   UNL     1     -11.066  11.639  65.384  0.00  0.00    +0.037 A 
ATOM      5  C   UNL     1     -12.051  12.225  64.602  0.00  0.00    +0.003 A 
ATOM      6  C   UNL     1     -12.714  13.318  65.147  0.00  0.00    -0.000 A 
ATOM      7  O   UNL     1     -10.449  11.029  67.664  0.00  0.00    -0.454 OA
ATOM      8  C   UNL     1     -10.854  11.053  69.002  0.00  0.00    +0.142 A 
ATOM      9  C   UNL     1     -10.963   9.887  69.750  0.00  0.00    +0.037 A 
ATOM     10  C   UNL     1     -11.830   9.766  70.817  0.00  0.00    +0.003 A 
ATOM     11  C   UNL     1     -12.670  10.847  71.046  0.00  0.00    -0.000 A 
ATOM     12  C   UNL     1     -12.290  12.092  70.566  0.00  0.00    -0.000 A 
ATOM     13  C   UNL     1     -12.251  13.873  66.325  0.00  0.00    -0.000 A 
ATOM     14  C   UNL     1     -11.467  12.207  69.461  0.00  0.00    +0.027 A 
ENDROOT
BRANCH   1  15
ATOM     15  C   UNL     1     -10.516  14.426  69.102  0.00  0.00    +0.325 C 
ATOM     16  O   UNL     1      -9.338  14.206  68.689  0.00  0.00    -0.249 OA
BRANCH  15  17
ATOM     17  O   UNL     1     -10.807  15.725  69.461  0.00  0.00    -0.442 OA
BRANCH  17  18
ATOM     18  C   UNL     1     -11.129  16.752  68.527  0.00  0.00    +0.269 C 
BRANCH  18  19
ATOM     19  C   UNL     1     -10.051  17.796  68.424  0.00  0.00    +0.156 C 
BRANCH  19  20
ATOM     20  N   UNL     1      -9.425  17.850  67.130  0.00  0.00    +0.296 N 
ATOM     21  C   UNL     1     -10.237  17.063  66.214  0.00  0.00    +0.170 C 
BRANCH  20  23
ATOM     22  C   UNL     1      -7.431  17.328  68.480  0.00  0.00    +0.061 C 
ATOM     23  C   UNL     1      -8.064  17.382  67.120  0.00  0.00    +0.059 C 
ATOM     24  C   UNL     1      -7.208  18.066  66.095  0.00  0.00    +0.061 C 
ENDBRANCH  20  23
BRANCH  20  25
ATOM     25  C   UNL     1      -9.383  19.256  66.734  0.00  0.00    +0.059 C 
ATOM     26  C   UNL     1      -9.467  20.178  67.932  0.00  0.00    +0.061 C 
ATOM     27  C   UNL     1     -10.537  19.501  65.778  0.00  0.00    +0.061 C 
ENDBRANCH  20  25
ENDBRANCH  19  20
ENDBRANCH  18  19
ENDBRANCH  17  18
ENDBRANCH  15  17
ENDBRANCH   1  15
TORSDOF 7
ENDMDL
MODEL 8
REMARK VINA RESULT:      -6.5      4.180      8.494
REMARK  Name = 
REMARK  7 active torsions:
REMARK  status: ('A' for Active; 'I' for Inactive)
REMARK    1  A    between atoms: C_2  and  N_4
REMARK    2  A    between atoms: N_4  and  C_6
REMARK    3  A    between atoms: N_4  and  C_25
REMARK    4  A    between atoms: C_6  and  C_7
REMARK    5  A    between atoms: C_7  and  O_8
REMARK    6  A    between atoms: O_8  and  C_9
REMARK    7  A    between atoms: C_9  and  C_11
REMARK                            x       y       z     vdW  Elec       q    Type
REMARK                         _______ _______ _______ _____ _____    ______ ____
ROOT
ATOM      1  C   UNL     1     -10.416  12.133  67.497  0.00  0.00    +0.149 C 
ATOM      2  C   UNL     1     -11.175  11.969  66.233  0.00  0.00    +0.027 A 
ATOM      3  C   UNL     1     -12.098  12.921  65.815  0.00  0.00    +0.142 A 
ATOM      4  C   UNL     1     -12.587  12.842  64.518  0.00  0.00    +0.037 A 
ATOM      5  C   UNL     1     -11.893  12.182  63.514  0.00  0.00    +0.003 A 
ATOM      6  C   UNL     1     -10.824  11.387  63.912  0.00  0.00    -0.000 A 
ATOM      7  O   UNL     1     -12.358  14.006  66.649  0.00  0.00    -0.454 OA
ATOM      8  C   UNL     1     -11.456  14.424  67.632  0.00  0.00    +0.142 A 
ATOM      9  C   UNL     1     -11.337  15.761  67.991  0.00  0.00    +0.037 A 
ATOM     10  C   UNL     1     -10.171  16.295  68.500  0.00  0.00    +0.003 A 
ATOM     11  C   UNL     1      -9.077  15.441  68.540  0.00  0.00    -0.000 A 
ATOM     12  C   UNL     1      -9.307  14.072  68.552  0.00  0.00    -0.000 A 
ATOM     13  C   UNL     1     -10.625  11.146  65.258  0.00  0.00    -0.000 A 
ATOM     14  C   UNL     1     -10.452  13.539  67.991  0.00  0.00    +0.027 A 
ENDROOT
BRANCH   1  15
ATOM     15  C   UNL     1     -10.902  11.211  68.567  0.00  0.00    +0.325 C 
ATOM     16  O   UNL     1     -12.146  10.961  68.539  0.00  0.00    -0.249 OA
BRANCH  15  17
ATOM     17  O   UNL     1     -10.103  10.275  69.188  0.00  0.00    -0.442 OA
BRANCH  17  18
ATOM     18  C   UNL     1     -10.589   9.045  69.720  0.00  0.00    +0.269 C 
BRANCH  18  19
ATOM     19  C   UNL     1     -10.783   9.100  71.210  0.00  0.00    +0.156 C 
BRANCH  19  20
ATOM     20  N   UNL     1     -11.655   8.073  71.713  0.00  0.00    +0.296 N 
ATOM     21  C   UNL     1     -11.800   7.067  70.672  0.00  0.00    +0.170 C 
BRANCH  20  23
ATOM     22  C   UNL     1     -14.094   7.739  71.603  0.00  0.00    +0.061 C 
ATOM     23  C   UNL     1     -12.948   8.555  72.125  0.00  0.00    +0.059 C 
ATOM     24  C   UNL     1     -13.127  10.030  71.916  0.00  0.00    +0.061 C 
ENDBRANCH  20  23
BRANCH  20  25
ATOM     25  C   UNL     1     -11.020   7.519  72.907  0.00  0.00    +0.059 C 
ATOM     26  C   UNL     1      -9.597   8.010  73.063  0.00  0.00    +0.061 C 
ATOM     27  C   UNL     1     -11.062   6.005  72.791  0.00  0.00    +0.061 C 
ENDBRANCH  20  25
ENDBRANCH  19  20
ENDBRANCH  18  19
ENDBRANCH  17  18
ENDBRANCH  15  17
ENDBRANCH   1  15
TORSDOF 7
ENDMDL
MODEL 9
REMARK VINA RESULT:      -6.4      1.835      3.212
REMARK  Name = 
REMARK  7 active torsions:
REMARK  status: ('A' for Active; 'I' for Inactive)
REMARK    1  A    between atoms: C_2  and  N_4
REMARK    2  A    between atoms: N_4  and  C_6
REMARK    3  A    between atoms: N_4  and  C_25
REMARK    4  A    between atoms: C_6  and  C_7
REMARK    5  A    between atoms: C_7  and  O_8
REMARK    6  A    between atoms: O_8  and  C_9
REMARK    7  A    between atoms: C_9  and  C_11
REMARK                            x       y       z     vdW  Elec       q    Type
REMARK                         _______ _______ _______ _____ _____    ______ ____
ROOT
ATOM      1  C   UNL     1     -11.763  13.622  68.025  0.00  0.00    +0.149 C 
ATOM      2  C   UNL     1     -11.460  13.458  66.582  0.00  0.00    +0.027 A 
ATOM      3  C   UNL     1     -10.513  12.541  66.142  0.00  0.00    +0.142 A 
ATOM      4  C   UNL     1     -10.452  12.253  64.785  0.00  0.00    +0.037 A 
ATOM      5  C   UNL     1     -11.536  12.464  63.945  0.00  0.00    +0.003 A 
ATOM      6  C   UNL     1     -12.589  13.210  64.459  0.00  0.00    -0.000 A 
ATOM      7  O   UNL     1      -9.789  11.824  67.093  0.00  0.00    -0.454 OA
ATOM      8  C   UNL     1     -10.252  11.641  68.399  0.00  0.00    +0.142 A 
ATOM      9  C   UNL     1      -9.964  10.489  69.119  0.00  0.00    +0.037 A 
ATOM     10  C   UNL     1     -10.784  10.012  70.121  0.00  0.00    +0.003 A 
ATOM     11  C   UNL     1     -11.978  10.694  70.307  0.00  0.00    -0.000 A 
ATOM     12  C   UNL     1     -12.062  12.011  69.874  0.00  0.00    -0.000 A 
ATOM     13  C   UNL     1     -12.437  13.848  65.674  0.00  0.00    -0.000 A 
ATOM     14  C   UNL     1     -11.276  12.467  68.832  0.00  0.00    +0.027 A 
ENDROOT
BRANCH   1  15
ATOM     15  C   UNL     1     -11.201  14.893  68.575  0.00  0.00    +0.325 C 
ATOM     16  O   UNL     1     -12.062  15.745  68.951  0.00  0.00    -0.249 OA
BRANCH  15  17
ATOM     17  O   UNL     1      -9.953  14.987  69.152  0.00  0.00    -0.442 OA
BRANCH  17  18
ATOM     18  C   UNL     1      -9.154  16.166  69.125  0.00  0.00    +0.269 C 
BRANCH  18  19
ATOM     19  C   UNL     1      -8.821  16.604  67.725  0.00  0.00    +0.156 C 
BRANCH  19  20
ATOM     20  N   UNL     1      -9.035  18.007  67.497  0.00  0.00    +0.296 N 
ATOM     21  C   UNL     1      -9.735  18.542  68.655  0.00  0.00    +0.170 C 
BRANCH  20  23
ATOM     22  C   UNL     1     -10.562  19.571  66.358  0.00  0.00    +0.061 C 
ATOM     23  C   UNL     1      -9.769  18.298  66.292  0.00  0.00    +0.059 C 
ATOM     24  C   UNL     1     -10.562  17.131  65.783  0.00  0.00    +0.061 C 
ENDBRANCH  20  23
BRANCH  20  25
ATOM     25  C   UNL     1      -7.719  18.621  67.337  0.00  0.00    +0.059 C 
ATOM     26  C   UNL     1      -6.709  17.641  66.779  0.00  0.00    +0.061 C 
ATOM     27  C   UNL     1      -7.281  19.135  68.698  0.00  0.00    +0.061 C 
ENDBRANCH  20  25
ENDBRANCH  19  20
ENDBRANCH  18  19
ENDBRANCH  17  18
ENDBRANCH  15  17
ENDBRANCH   1  15
TORSDOF 7
ENDMDL
