MODEL 1
REMARK VINA RESULT:      -7.0      0.000      0.000
REMARK  Name = 
REMARK  12 active torsions:
REMARK  status: ('A' for Active; 'I' for Inactive)
REMARK    1  A    between atoms: C_2  and  C_3
REMARK    2  A    between atoms: C_3  and  C_4
REMARK    3  A    between atoms: C_4  and  C_5
REMARK    4  A    between atoms: C_5  and  O_7
REMARK    5  A    between atoms: O_7  and  C_8
REMARK    6  A    between atoms: C_8  and  C_9
REMARK    7  A    between atoms: C_9  and  C_11
REMARK    8  A    between atoms: C_22  and  O_23
REMARK    9  A    between atoms: O_23  and  C_24
REMARK   10  A    between atoms: C_26  and  N_27
REMARK   11  A    between atoms: C_28  and  C_30
REMARK   12  A    between atoms: C_43  and  O_44
REMARK                            x       y       z     vdW  Elec       q    Type
REMARK                         _______ _______ _______ _____ _____    ______ ____
ROOT
ATOM      1  C   UNL     1      -5.730  16.247  69.618  0.00  0.00    +0.188 C 
ATOM      2  C   UNL     1      -6.428  17.482  69.445  0.00  0.00    +0.072 C 
ATOM      3  C   UNL     1      -7.236  17.589  67.985  0.00  0.00    +0.146 C 
ATOM      4  C   UNL     1      -5.964  17.021  67.074  0.00  0.00    +0.043 A 
ATOM      5  C   UNL     1      -4.755  17.099  67.721  0.00  0.00    +0.021 A 
ATOM      6  C   UNL     1      -3.668  17.827  67.338  0.00  0.00    +0.195 A 
ATOM      7  C   UNL     1      -3.789  18.655  66.237  0.00  0.00    +0.084 A 
ATOM      8  C   UNL     1      -3.015  19.902  66.141  0.00  0.00    +0.199 C 
ATOM      9  O   UNL     1      -2.184  20.192  67.045  0.00  0.00    -0.286 OA
ATOM     10  C   UNL     1      -3.298  20.859  65.074  0.00  0.00    +0.045 A 
ATOM     11  C   UNL     1      -4.083  20.395  64.028  0.00  0.00    +0.076 A 
ATOM     12  C   UNL     1      -4.248  21.217  62.921  0.00  0.00    +0.142 A 
ATOM     13  C   UNL     1      -3.564  22.420  62.792  0.00  0.00    +0.037 A 
ATOM     14  C   UNL     1      -2.917  22.892  63.923  0.00  0.00    +0.003 A 
ATOM     15  C   UNL     1      -4.847  19.146  64.143  0.00  0.00    +0.202 C 
ATOM     16  O   UNL     1      -5.858  19.053  63.391  0.00  0.00    -0.286 OA
ATOM     17  C   UNL     1      -2.753  22.114  65.033  0.00  0.00    +0.003 A 
ATOM     18  C   UNL     1      -4.847  18.384  65.376  0.00  0.00    +0.084 A 
ATOM     19  O   UNL     1      -2.590  17.986  68.214  0.00  0.00    -0.287 OA
ATOM     20  C   UNL     1      -5.968  17.724  65.869  0.00  0.00    +0.197 A 
ATOM     21  O   UNL     1      -7.096  17.775  65.092  0.00  0.00    -0.287 OA
ATOM     22  C   UNL     1      -4.576  15.943  68.663  0.00  0.00    +0.067 C 
ATOM     23  O   UNL     1      -6.475  15.095  69.794  0.00  0.00    -0.218 OA
ENDROOT
BRANCH   1  24
ATOM     24  C   UNL     1      -4.978  16.462  70.905  0.00  0.00    +0.222 C 
ATOM     25  O   UNL     1      -4.604  15.531  71.617  0.00  0.00    -0.290 OA
BRANCH  24  26
ATOM     26  C   UNL     1      -4.965  17.757  71.650  0.00  0.00    +0.275 C 
BRANCH  26  27
ATOM     27  O   UNL     1      -4.079  18.707  71.127  0.00  0.00    -0.440 OA
BRANCH  27  28
ATOM     28  C   UNL     1      -4.182  20.076  71.392  0.00  0.00    +0.317 C 
ATOM     29  O   UNL     1      -3.722  20.506  72.473  0.00  0.00    -0.250 OA
BRANCH  28  30
ATOM     30  C   UNL     1      -5.152  20.840  70.567  0.00  0.00    +0.110 C 
BRANCH  30  31
ATOM     31  C   UNL     1      -4.753  20.801  69.122  0.00  0.00    +0.012 C 
BRANCH  31  33
ATOM     32  C   UNL     1      -6.107  21.147  67.743  0.00  0.00    +0.000 C 
ATOM     33  C   UNL     1      -5.930  20.998  68.196  0.00  0.00    +0.001 C 
ENDBRANCH  31  33
ENDBRANCH  30  31
ENDBRANCH  28  30
ENDBRANCH  27  28
ENDBRANCH  26  27
ENDBRANCH  24  26
ENDBRANCH   1  24
BRANCH  12  34
ATOM     34  O   UNL     1      -5.296  20.965  62.048  0.00  0.00    -0.471 OA
ATOM     35  C   UNL     1      -5.092  20.771  60.660  0.00  0.00    +0.252 C 
ENDBRANCH  12  34
BRANCH   3  36
ATOM     36  O   UNL     1      -7.950  16.201  68.101  0.00  0.00    -0.328 OA
BRANCH  36  37
ATOM     37  C   UNL     1      -9.256  17.114  68.211  0.00  0.00    +0.237 C 
ATOM     38  O   UNL     1      -9.789  16.394  69.469  0.00  0.00    -0.330 OA
ATOM     39  C   UNL     1     -10.616  15.144  69.232  0.00  0.00    +0.150 C 
ATOM     40  C   UNL     1     -11.584  15.678  67.992  0.00  0.00    +0.035 C 
ATOM     41  C   UNL     1      -9.347  14.286  68.386  0.00  0.00    +0.199 C 
ATOM     42  O   UNL     1     -10.240  13.070  68.177  0.00  0.00    -0.219 OA
ATOM     43  C   UNL     1      -9.459  14.885  66.763  0.00  0.00    +0.133 C 
ATOM     44  C   UNL     1     -10.162  16.308  67.052  0.00  0.00    +0.086 C 
BRANCH  43  45
ATOM     45  N   UNL     1     -10.835  14.149  66.408  0.00  0.00    -0.197 NA
ATOM     46  C   UNL     1     -11.047  13.787  65.102  0.00  0.00    +0.337 C 
ATOM     47  O   UNL     1     -10.092  13.488  64.362  0.00  0.00    -0.264 OA
BRANCH  46  48
ATOM     48  C   UNL     1     -12.429  13.445  64.650  0.00  0.00    +0.471 C 
ATOM     49  F   UNL     1     -12.753  12.124  64.948  0.00  0.00    -0.162 F 
ATOM     50  F   UNL     1     -12.574  13.586  63.282  0.00  0.00    -0.162 F 
ATOM     51  F   UNL     1     -13.393  14.180  65.306  0.00  0.00    -0.162 F 
ENDBRANCH  46  48
ENDBRANCH  43  45
ENDBRANCH  36  37
ENDBRANCH   3  36
TORSDOF 12
ENDMDL
MODEL 2
REMARK VINA RESULT:      -6.7      3.806      8.095
REMARK  Name = 
REMARK  12 active torsions:
REMARK  status: ('A' for Active; 'I' for Inactive)
REMARK    1  A    between atoms: C_2  and  C_3
REMARK    2  A    between atoms: C_3  and  C_4
REMARK    3  A    between atoms: C_4  and  C_5
REMARK    4  A    between atoms: C_5  and  O_7
REMARK    5  A    between atoms: O_7  and  C_8
REMARK    6  A    between atoms: C_8  and  C_9
REMARK    7  A    between atoms: C_9  and  C_11
REMARK    8  A    between atoms: C_22  and  O_23
REMARK    9  A    between atoms: O_23  and  C_24
REMARK   10  A    between atoms: C_26  and  N_27
REMARK   11  A    between atoms: C_28  and  C_30
REMARK   12  A    between atoms: C_43  and  O_44
REMARK                            x       y       z     vdW  Elec       q    Type
REMARK                         _______ _______ _______ _____ _____    ______ ____
ROOT
ATOM      1  C   UNL     1     -11.366  13.892  66.977  0.00  0.00    +0.188 C 
ATOM      2  C   UNL     1     -10.108  13.685  66.330  0.00  0.00    +0.072 C 
ATOM      3  C   UNL     1      -8.859  13.364  67.393  0.00  0.00    +0.146 C 
ATOM      4  C   UNL     1      -9.252  14.587  68.452  0.00  0.00    +0.043 A 
ATOM      5  C   UNL     1     -10.064  15.545  67.897  0.00  0.00    +0.021 A 
ATOM      6  C   UNL     1      -9.771  16.865  67.725  0.00  0.00    +0.195 A 
ATOM      7  C   UNL     1      -8.500  17.302  68.050  0.00  0.00    +0.084 A 
ATOM      8  C   UNL     1      -7.879  18.424  67.328  0.00  0.00    +0.199 C 
ATOM      9  O   UNL     1      -8.535  19.036  66.441  0.00  0.00    -0.286 OA
ATOM     10  C   UNL     1      -6.470  18.744  67.546  0.00  0.00    +0.045 A 
ATOM     11  C   UNL     1      -5.873  18.155  68.652  0.00  0.00    +0.076 A 
ATOM     12  C   UNL     1      -4.585  18.552  68.986  0.00  0.00    +0.142 A 
ATOM     13  C   UNL     1      -3.939  19.586  68.318  0.00  0.00    +0.037 A 
ATOM     14  C   UNL     1      -4.523  20.028  67.142  0.00  0.00    +0.003 A 
ATOM     15  C   UNL     1      -6.511  17.039  69.361  0.00  0.00    +0.202 C 
ATOM     16  O   UNL     1      -5.729  16.284  70.005  0.00  0.00    -0.286 OA
ATOM     17  C   UNL     1      -5.781  19.643  66.778  0.00  0.00    +0.003 A 
ATOM     18  C   UNL     1      -7.762  16.477  68.892  0.00  0.00    +0.084 A 
ATOM     19  O   UNL     1     -10.605  17.670  66.942  0.00  0.00    -0.287 OA
ATOM     20  C   UNL     1      -8.057  15.119  68.935  0.00  0.00    +0.197 A 
ATOM     21  O   UNL     1      -7.111  14.308  69.509  0.00  0.00    -0.287 OA
ATOM     22  C   UNL     1     -11.499  15.101  67.902  0.00  0.00    +0.067 C 
ATOM     23  O   UNL     1     -11.978  12.806  67.576  0.00  0.00    -0.218 OA
ENDROOT
BRANCH   1  24
ATOM     24  C   UNL     1     -12.265  14.309  65.842  0.00  0.00    +0.222 C 
ATOM     25  O   UNL     1     -13.466  14.044  65.817  0.00  0.00    -0.290 OA
BRANCH  24  26
ATOM     26  C   UNL     1     -11.765  14.696  64.489  0.00  0.00    +0.275 C 
BRANCH  26  27
ATOM     27  O   UNL     1     -12.338  13.967  63.439  0.00  0.00    -0.440 OA
BRANCH  27  28
ATOM     28  C   UNL     1     -12.114  12.600  63.247  0.00  0.00    +0.317 C 
ATOM     29  O   UNL     1     -13.070  11.813  63.425  0.00  0.00    -0.250 OA
BRANCH  28  30
ATOM     30  C   UNL     1     -10.697  12.157  63.225  0.00  0.00    +0.110 C 
BRANCH  30  31
ATOM     31  C   UNL     1     -10.550  10.843  63.933  0.00  0.00    +0.012 C 
BRANCH  31  33
ATOM     32  C   UNL     1      -8.981   9.944  63.166  0.00  0.00    +0.000 C 
ATOM     33  C   UNL     1      -9.460   9.986  63.333  0.00  0.00    +0.001 C 
ENDBRANCH  31  33
ENDBRANCH  30  31
ENDBRANCH  28  30
ENDBRANCH  27  28
ENDBRANCH  26  27
ENDBRANCH  24  26
ENDBRANCH   1  24
BRANCH  12  34
ATOM     34  O   UNL     1      -3.831  17.746  69.826  0.00  0.00    -0.471 OA
ATOM     35  C   UNL     1      -2.438  17.560  69.645  0.00  0.00    +0.252 C 
ENDBRANCH  12  34
BRANCH   3  36
ATOM     36  O   UNL     1      -9.616  12.248  68.188  0.00  0.00    -0.328 OA
BRANCH  36  37
ATOM     37  C   UNL     1      -8.140  11.664  68.368  0.00  0.00    +0.237 C 
ATOM     38  O   UNL     1      -8.121  10.983  66.981  0.00  0.00    -0.330 OA
ATOM     39  C   UNL     1      -8.722   9.592  66.905  0.00  0.00    +0.150 C 
ATOM     40  C   UNL     1      -8.058   8.923  68.273  0.00  0.00    +0.035 C 
ATOM     41  C   UNL     1     -10.309  10.086  67.450  0.00  0.00    +0.199 C 
ATOM     42  O   UNL     1     -10.839   8.662  67.357  0.00  0.00    -0.219 OA
ATOM     43  C   UNL     1     -10.157  10.120  69.177  0.00  0.00    +0.133 C 
ATOM     44  C   UNL     1      -8.563  10.335  69.300  0.00  0.00    +0.086 C 
BRANCH  43  45
ATOM     45  N   UNL     1     -10.072   8.534  69.368  0.00  0.00    -0.197 NA
ATOM     46  C   UNL     1     -10.726   7.984  70.441  0.00  0.00    +0.337 C 
ATOM     47  O   UNL     1     -11.762   8.507  70.891  0.00  0.00    -0.264 OA
BRANCH  46  48
ATOM     48  C   UNL     1     -10.384   6.596  70.877  0.00  0.00    +0.471 C 
ATOM     49  F   UNL     1     -11.045   5.642  70.107  0.00  0.00    -0.162 F 
ATOM     50  F   UNL     1     -10.750   6.363  72.190  0.00  0.00    -0.162 F 
ATOM     51  F   UNL     1      -9.050   6.302  70.698  0.00  0.00    -0.162 F 
ENDBRANCH  46  48
ENDBRANCH  43  45
ENDBRANCH  36  37
ENDBRANCH   3  36
TORSDOF 12
ENDMDL
MODEL 3
REMARK VINA RESULT:      -6.4      7.081     10.822
REMARK  Name = 
REMARK  12 active torsions:
REMARK  status: ('A' for Active; 'I' for Inactive)
REMARK    1  A    between atoms: C_2  and  C_3
REMARK    2  A    between atoms: C_3  and  C_4
REMARK    3  A    between atoms: C_4  and  C_5
REMARK    4  A    between atoms: C_5  and  O_7
REMARK    5  A    between atoms: O_7  and  C_8
REMARK    6  A    between atoms: C_8  and  C_9
REMARK    7  A    between atoms: C_9  and  C_11
REMARK    8  A    between atoms: C_22  and  O_23
REMARK    9  A    between atoms: O_23  and  C_24
REMARK   10  A    between atoms: C_26  and  N_27
REMARK   11  A    between atoms: C_28  and  C_30
REMARK   12  A    between atoms: C_43  and  O_44
REMARK                            x       y       z     vdW  Elec       q    Type
REMARK                         _______ _______ _______ _____ _____    ______ ____
ROOT
ATOM      1  C   UNL     1      -8.671   9.844  63.855  0.00  0.00    +0.188 C 
ATOM      2  C   UNL     1      -7.916  10.219  65.010  0.00  0.00    +0.072 C 
ATOM      3  C   UNL     1      -8.556   9.636  66.440  0.00  0.00    +0.146 C 
ATOM      4  C   UNL     1     -10.124  10.067  66.083  0.00  0.00    +0.043 A 
ATOM      5  C   UNL     1     -10.215  11.012  65.090  0.00  0.00    +0.021 A 
ATOM      6  C   UNL     1     -10.735  12.267  65.201  0.00  0.00    +0.195 A 
ATOM      7  C   UNL     1     -11.143  12.700  66.449  0.00  0.00    +0.084 A 
ATOM      8  C   UNL     1     -11.067  14.123  66.817  0.00  0.00    +0.199 C 
ATOM      9  O   UNL     1     -10.683  14.969  65.964  0.00  0.00    -0.286 OA
ATOM     10  C   UNL     1     -11.311  14.535  68.198  0.00  0.00    +0.045 A 
ATOM     11  C   UNL     1     -11.898  13.588  69.024  0.00  0.00    +0.076 A 
ATOM     12  C   UNL     1     -12.291  13.986  70.296  0.00  0.00    +0.142 A 
ATOM     13  C   UNL     1     -12.213  15.311  70.707  0.00  0.00    +0.037 A 
ATOM     14  C   UNL     1     -11.489  16.172  69.898  0.00  0.00    +0.003 A 
ATOM     15  C   UNL     1     -11.967  12.173  68.637  0.00  0.00    +0.202 C 
ATOM     16  O   UNL     1     -12.060  11.350  69.592  0.00  0.00    -0.286 OA
ATOM     17  C   UNL     1     -11.075  15.805  68.649  0.00  0.00    +0.003 A 
ATOM     18  C   UNL     1     -11.371  11.711  67.399  0.00  0.00    +0.084 A 
ATOM     19  O   UNL     1     -10.553  13.192  64.168  0.00  0.00    -0.287 OA
ATOM     20  C   UNL     1     -10.721  10.487  67.271  0.00  0.00    +0.197 A 
ATOM     21  O   UNL     1     -10.713   9.682  68.382  0.00  0.00    -0.287 OA
ATOM     22  C   UNL     1     -10.097  10.377  63.734  0.00  0.00    +0.067 C 
ATOM     23  O   UNL     1      -8.660   8.515  63.472  0.00  0.00    -0.218 OA
ENDROOT
BRANCH   1  24
ATOM     24  C   UNL     1      -7.992  10.607  62.747  0.00  0.00    +0.222 C 
ATOM     25  O   UNL     1      -8.597  11.392  62.018  0.00  0.00    -0.290 OA
BRANCH  24  26
ATOM     26  C   UNL     1      -6.680  10.213  62.153  0.00  0.00    +0.275 C 
BRANCH  26  27
ATOM     27  O   UNL     1      -5.615  11.046  62.521  0.00  0.00    -0.440 OA
BRANCH  27  28
ATOM     28  C   UNL     1      -4.941  11.870  61.615  0.00  0.00    +0.317 C 
ATOM     29  O   UNL     1      -3.894  12.438  61.997  0.00  0.00    -0.250 OA
BRANCH  28  30
ATOM     30  C   UNL     1      -5.707  12.309  60.421  0.00  0.00    +0.110 C 
BRANCH  30  31
ATOM     31  C   UNL     1      -4.837  13.124  59.512  0.00  0.00    +0.012 C 
BRANCH  31  33
ATOM     32  C   UNL     1      -5.339  15.018  59.373  0.00  0.00    +0.000 C 
ATOM     33  C   UNL     1      -5.147  14.600  59.592  0.00  0.00    +0.001 C 
ENDBRANCH  31  33
ENDBRANCH  30  31
ENDBRANCH  28  30
ENDBRANCH  27  28
ENDBRANCH  26  27
ENDBRANCH  24  26
ENDBRANCH   1  24
BRANCH  12  34
ATOM     34  O   UNL     1     -12.526  13.016  71.259  0.00  0.00    -0.471 OA
ATOM     35  C   UNL     1     -13.577  13.127  72.202  0.00  0.00    +0.252 C 
ENDBRANCH  12  34
BRANCH   3  36
ATOM     36  O   UNL     1      -8.709   8.157  65.949  0.00  0.00    -0.328 OA
BRANCH  36  37
ATOM     37  C   UNL     1      -7.339   7.969  66.751  0.00  0.00    +0.237 C 
ATOM     38  O   UNL     1      -6.831   6.832  65.837  0.00  0.00    -0.330 OA
ATOM     39  C   UNL     1      -7.292   5.429  66.185  0.00  0.00    +0.150 C 
ATOM     40  C   UNL     1      -7.071   5.461  67.832  0.00  0.00    +0.035 C 
ATOM     41  C   UNL     1      -8.997   5.788  66.020  0.00  0.00    +0.199 C 
ATOM     42  O   UNL     1      -9.384   4.362  66.387  0.00  0.00    -0.219 OA
ATOM     43  C   UNL     1      -9.416   6.499  67.544  0.00  0.00    +0.133 C 
ATOM     44  C   UNL     1      -7.964   7.036  67.996  0.00  0.00    +0.086 C 
BRANCH  43  45
ATOM     45  N   UNL     1      -9.305   5.146  68.394  0.00  0.00    -0.197 NA
ATOM     46  C   UNL     1      -9.993   5.078  69.578  0.00  0.00    +0.337 C 
ATOM     47  O   UNL     1     -11.059   5.703  69.732  0.00  0.00    -0.264 OA
BRANCH  46  48
ATOM     48  C   UNL     1      -9.641   4.020  70.572  0.00  0.00    +0.471 C 
ATOM     49  F   UNL     1     -10.506   4.036  71.664  0.00  0.00    -0.162 F 
ATOM     50  F   UNL     1      -8.366   4.191  71.078  0.00  0.00    -0.162 F 
ATOM     51  F   UNL     1      -9.779   2.749  70.057  0.00  0.00    -0.162 F 
ENDBRANCH  46  48
ENDBRANCH  43  45
ENDBRANCH  36  37
ENDBRANCH   3  36
TORSDOF 12
ENDMDL
MODEL 4
REMARK VINA RESULT:      -6.4      4.425      8.385
REMARK  Name = 
REMARK  12 active torsions:
REMARK  status: ('A' for Active; 'I' for Inactive)
REMARK    1  A    between atoms: C_2  and  C_3
REMARK    2  A    between atoms: C_3  and  C_4
REMARK    3  A    between atoms: C_4  and  C_5
REMARK    4  A    between atoms: C_5  and  O_7
REMARK    5  A    between atoms: O_7  and  C_8
REMARK    6  A    between atoms: C_8  and  C_9
REMARK    7  A    between atoms: C_9  and  C_11
REMARK    8  A    between atoms: C_22  and  O_23
REMARK    9  A    between atoms: O_23  and  C_24
REMARK   10  A    between atoms: C_26  and  N_27
REMARK   11  A    between atoms: C_28  and  C_30
REMARK   12  A    between atoms: C_43  and  O_44
REMARK                            x       y       z     vdW  Elec       q    Type
REMARK                         _______ _______ _______ _____ _____    ______ ____
ROOT
ATOM      1  C   UNL     1     -10.125  13.070  67.825  0.00  0.00    +0.188 C 
ATOM      2  C   UNL     1      -9.065  13.318  66.899  0.00  0.00    +0.072 C 
ATOM      3  C   UNL     1      -7.574  13.505  67.631  0.00  0.00    +0.146 C 
ATOM      4  C   UNL     1      -8.125  14.529  68.823  0.00  0.00    +0.043 A 
ATOM      5  C   UNL     1      -9.333  15.109  68.524  0.00  0.00    +0.021 A 
ATOM      6  C   UNL     1      -9.586  16.439  68.370  0.00  0.00    +0.195 A 
ATOM      7  C   UNL     1      -8.520  17.319  68.425  0.00  0.00    +0.084 A 
ATOM      8  C   UNL     1      -8.532  18.570  67.650  0.00  0.00    +0.199 C 
ATOM      9  O   UNL     1      -9.552  18.875  66.973  0.00  0.00    -0.286 OA
ATOM     10  C   UNL     1      -7.324  19.388  67.563  0.00  0.00    +0.045 A 
ATOM     11  C   UNL     1      -6.316  19.089  68.468  0.00  0.00    +0.076 A 
ATOM     12  C   UNL     1      -5.219  19.938  68.526  0.00  0.00    +0.142 A 
ATOM     13  C   UNL     1      -5.164  21.117  67.793  0.00  0.00    +0.037 A 
ATOM     14  C   UNL     1      -6.124  21.283  66.807  0.00  0.00    +0.003 A 
ATOM     15  C   UNL     1      -6.324  17.837  69.235  0.00  0.00    +0.202 C 
ATOM     16  O   UNL     1      -5.196  17.437  69.639  0.00  0.00    -0.286 OA
ATOM     17  C   UNL     1      -7.206  20.456  66.714  0.00  0.00    +0.003 A 
ATOM     18  C   UNL     1      -7.360  16.844  69.027  0.00  0.00    +0.084 A 
ATOM     19  O   UNL     1     -10.811  16.862  67.845  0.00  0.00    -0.287 OA
ATOM     20  C   UNL     1      -7.126  15.473  69.055  0.00  0.00    +0.197 A 
ATOM     21  O   UNL     1      -5.845  15.080  69.350  0.00  0.00    -0.287 OA
ATOM     22  C   UNL     1     -10.467  14.172  68.826  0.00  0.00    +0.067 C 
ATOM     23  O   UNL     1     -10.147  11.852  68.480  0.00  0.00    -0.218 OA
ENDROOT
BRANCH   1  24
ATOM     24  C   UNL     1     -11.351  13.098  66.949  0.00  0.00    +0.222 C 
ATOM     25  O   UNL     1     -12.195  12.203  66.963  0.00  0.00    -0.290 OA
BRANCH  24  26
ATOM     26  C   UNL     1     -11.475  13.944  65.725  0.00  0.00    +0.275 C 
BRANCH  26  27
ATOM     27  O   UNL     1     -12.412  13.471  64.798  0.00  0.00    -0.440 OA
BRANCH  27  28
ATOM     28  C   UNL     1     -12.076  12.633  63.730  0.00  0.00    +0.317 C 
ATOM     29  O   UNL     1     -12.980  11.940  63.214  0.00  0.00    -0.250 OA
BRANCH  28  30
ATOM     30  C   UNL     1     -10.631  12.345  63.543  0.00  0.00    +0.110 C 
BRANCH  30  31
ATOM     31  C   UNL     1     -10.391  10.865  63.535  0.00  0.00    +0.012 C 
BRANCH  31  33
ATOM     32  C   UNL     1      -9.959   9.977  65.233  0.00  0.00    +0.000 C 
ATOM     33  C   UNL     1      -9.951  10.348  64.884  0.00  0.00    +0.001 C 
ENDBRANCH  31  33
ENDBRANCH  30  31
ENDBRANCH  28  30
ENDBRANCH  27  28
ENDBRANCH  26  27
ENDBRANCH  24  26
ENDBRANCH   1  24
BRANCH  12  34
ATOM     34  O   UNL     1      -4.052  19.486  69.123  0.00  0.00    -0.471 OA
ATOM     35  C   UNL     1      -2.769  19.822  68.626  0.00  0.00    +0.252 C 
ENDBRANCH  12  34
BRANCH   3  36
ATOM     36  O   UNL     1      -7.670  12.212  68.509  0.00  0.00    -0.328 OA
BRANCH  36  37
ATOM     37  C   UNL     1      -6.420  11.765  67.619  0.00  0.00    +0.237 C 
ATOM     38  O   UNL     1      -6.850  10.282  67.562  0.00  0.00    -0.330 OA
ATOM     39  C   UNL     1      -6.409   9.407  68.720  0.00  0.00    +0.150 C 
ATOM     40  C   UNL     1      -4.831   9.908  68.867  0.00  0.00    +0.035 C 
ATOM     41  C   UNL     1      -7.228  10.355  69.942  0.00  0.00    +0.199 C 
ATOM     42  O   UNL     1      -6.740   9.436  71.053  0.00  0.00    -0.219 OA
ATOM     43  C   UNL     1      -6.122  11.650  70.265  0.00  0.00    +0.133 C 
ATOM     44  C   UNL     1      -5.310  11.661  68.872  0.00  0.00    +0.086 C 
BRANCH  43  45
ATOM     45  N   UNL     1      -5.034  10.754  71.023  0.00  0.00    -0.197 NA
ATOM     46  C   UNL     1      -4.368  11.318  72.082  0.00  0.00    +0.337 C 
ATOM     47  O   UNL     1      -4.917  12.180  72.792  0.00  0.00    -0.264 OA
BRANCH  46  48
ATOM     48  C   UNL     1      -3.110  10.684  72.580  0.00  0.00    +0.471 C 
ATOM     49  F   UNL     1      -2.778  11.139  73.854  0.00  0.00    -0.162 F 
ATOM     50  F   UNL     1      -2.030  10.973  71.766  0.00  0.00    -0.162 F 
ATOM     51  F   UNL     1      -3.234   9.320  72.735  0.00  0.00    -0.162 F 
ENDBRANCH  46  48
ENDBRANCH  43  45
ENDBRANCH  36  37
ENDBRANCH   3  36
TORSDOF 12
ENDMDL
MODEL 5
REMARK VINA RESULT:      -6.3      7.607     11.393
REMARK  Name = 
REMARK  12 active torsions:
REMARK  status: ('A' for Active; 'I' for Inactive)
REMARK    1  A    between atoms: C_2  and  C_3
REMARK    2  A    between atoms: C_3  and  C_4
REMARK    3  A    between atoms: C_4  and  C_5
REMARK    4  A    between atoms: C_5  and  O_7
REMARK    5  A    between atoms: O_7  and  C_8
REMARK    6  A    between atoms: C_8  and  C_9
REMARK    7  A    between atoms: C_9  and  C_11
REMARK    8  A    between atoms: C_22  and  O_23
REMARK    9  A    between atoms: O_23  and  C_24
REMARK   10  A    between atoms: C_26  and  N_27
REMARK   11  A    between atoms: C_28  and  C_30
REMARK   12  A    between atoms: C_43  and  O_44
REMARK                            x       y       z     vdW  Elec       q    Type
REMARK                         _______ _______ _______ _____ _____    ______ ____
ROOT
ATOM      1  C   UNL     1      -8.683   9.906  63.889  0.00  0.00    +0.188 C 
ATOM      2  C   UNL     1      -7.931  10.268  65.050  0.00  0.00    +0.072 C 
ATOM      3  C   UNL     1      -8.587   9.687  66.473  0.00  0.00    +0.146 C 
ATOM      4  C   UNL     1     -10.147  10.138  66.108  0.00  0.00    +0.043 A 
ATOM      5  C   UNL     1     -10.220  11.087  65.119  0.00  0.00    +0.021 A 
ATOM      6  C   UNL     1     -10.726  12.348  65.231  0.00  0.00    +0.195 A 
ATOM      7  C   UNL     1     -11.136  12.781  66.479  0.00  0.00    +0.084 A 
ATOM      8  C   UNL     1     -11.045  14.201  66.854  0.00  0.00    +0.199 C 
ATOM      9  O   UNL     1     -10.646  15.046  66.006  0.00  0.00    -0.286 OA
ATOM     10  C   UNL     1     -11.294  14.611  68.234  0.00  0.00    +0.045 A 
ATOM     11  C   UNL     1     -11.897  13.668  69.053  0.00  0.00    +0.076 A 
ATOM     12  C   UNL     1     -12.293  14.065  70.324  0.00  0.00    +0.142 A 
ATOM     13  C   UNL     1     -12.202  15.388  70.741  0.00  0.00    +0.037 A 
ATOM     14  C   UNL     1     -11.462  16.243  69.940  0.00  0.00    +0.003 A 
ATOM     15  C   UNL     1     -11.980  12.256  68.660  0.00  0.00    +0.202 C 
ATOM     16  O   UNL     1     -12.089  11.430  69.610  0.00  0.00    -0.286 OA
ATOM     17  C   UNL     1     -11.045  15.877  68.692  0.00  0.00    +0.003 A 
ATOM     18  C   UNL     1     -11.382  11.791  67.424  0.00  0.00    +0.084 A 
ATOM     19  O   UNL     1     -10.527  13.275  64.203  0.00  0.00    -0.287 OA
ATOM     20  C   UNL     1     -10.747  10.560  67.295  0.00  0.00    +0.197 A 
ATOM     21  O   UNL     1     -10.755   9.751  68.402  0.00  0.00    -0.287 OA
ATOM     22  C   UNL     1     -10.102  10.457  63.761  0.00  0.00    +0.067 C 
ATOM     23  O   UNL     1      -8.685   8.579  63.501  0.00  0.00    -0.218 OA
ENDROOT
BRANCH   1  24
ATOM     24  C   UNL     1      -7.988  10.665  62.788  0.00  0.00    +0.222 C 
ATOM     25  O   UNL     1      -8.596  11.383  61.994  0.00  0.00    -0.290 OA
BRANCH  24  26
ATOM     26  C   UNL     1      -6.623  10.330  62.284  0.00  0.00    +0.275 C 
BRANCH  26  27
ATOM     27  O   UNL     1      -6.497  10.396  60.891  0.00  0.00    -0.440 OA
BRANCH  27  28
ATOM     28  C   UNL     1      -6.135   9.299  60.103  0.00  0.00    +0.317 C 
ATOM     29  O   UNL     1      -5.385   9.496  59.122  0.00  0.00    -0.250 OA
BRANCH  28  30
ATOM     30  C   UNL     1      -6.959   8.073  60.256  0.00  0.00    +0.110 C 
BRANCH  30  31
ATOM     31  C   UNL     1      -8.142   8.121  59.335  0.00  0.00    +0.012 C 
BRANCH  31  33
ATOM     32  C   UNL     1      -9.910   8.476  60.113  0.00  0.00    +0.000 C 
ATOM     33  C   UNL     1      -9.408   8.532  60.048  0.00  0.00    +0.001 C 
ENDBRANCH  31  33
ENDBRANCH  30  31
ENDBRANCH  28  30
ENDBRANCH  27  28
ENDBRANCH  26  27
ENDBRANCH  24  26
ENDBRANCH   1  24
BRANCH  12  34
ATOM     34  O   UNL     1     -12.545  13.095  71.282  0.00  0.00    -0.471 OA
ATOM     35  C   UNL     1     -13.598  13.216  72.221  0.00  0.00    +0.252 C 
ENDBRANCH  12  34
BRANCH   3  36
ATOM     36  O   UNL     1      -8.754   8.212  65.975  0.00  0.00    -0.328 OA
BRANCH  36  37
ATOM     37  C   UNL     1      -7.400   8.000  66.798  0.00  0.00    +0.237 C 
ATOM     38  O   UNL     1      -6.909   6.838  65.907  0.00  0.00    -0.330 OA
ATOM     39  C   UNL     1      -7.411   5.452  66.269  0.00  0.00    +0.150 C 
ATOM     40  C   UNL     1      -7.210   5.502  67.918  0.00  0.00    +0.035 C 
ATOM     41  C   UNL     1      -9.103   5.852  66.075  0.00  0.00    +0.199 C 
ATOM     42  O   UNL     1      -9.531   4.442  66.457  0.00  0.00    -0.219 OA
ATOM     43  C   UNL     1      -9.524   6.595  67.584  0.00  0.00    +0.133 C 
ATOM     44  C   UNL     1      -8.064   7.101  68.048  0.00  0.00    +0.086 C 
BRANCH  43  45
ATOM     45  N   UNL     1      -9.459   5.252  68.454  0.00  0.00    -0.197 NA
ATOM     46  C   UNL     1     -10.130   5.233  69.650  0.00  0.00    +0.337 C 
ATOM     47  O   UNL     1     -11.165   5.906  69.809  0.00  0.00    -0.264 OA
BRANCH  46  48
ATOM     48  C   UNL     1      -9.809   4.176  70.656  0.00  0.00    +0.471 C 
ATOM     49  F   UNL     1      -8.541   4.358  71.201  0.00  0.00    -0.162 F 
ATOM     50  F   UNL     1      -9.818   2.911  70.095  0.00  0.00    -0.162 F 
ATOM     51  F   UNL     1     -10.650   4.216  71.747  0.00  0.00    -0.162 F 
ENDBRANCH  46  48
ENDBRANCH  43  45
ENDBRANCH  36  37
ENDBRANCH   3  36
TORSDOF 12
ENDMDL
MODEL 6
REMARK VINA RESULT:      -6.2      4.492     10.107
REMARK  Name = 
REMARK  12 active torsions:
REMARK  status: ('A' for Active; 'I' for Inactive)
REMARK    1  A    between atoms: C_2  and  C_3
REMARK    2  A    between atoms: C_3  and  C_4
REMARK    3  A    between atoms: C_4  and  C_5
REMARK    4  A    between atoms: C_5  and  O_7
REMARK    5  A    between atoms: O_7  and  C_8
REMARK    6  A    between atoms: C_8  and  C_9
REMARK    7  A    between atoms: C_9  and  C_11
REMARK    8  A    between atoms: C_22  and  O_23
REMARK    9  A    between atoms: O_23  and  C_24
REMARK   10  A    between atoms: C_26  and  N_27
REMARK   11  A    between atoms: C_28  and  C_30
REMARK   12  A    between atoms: C_43  and  O_44
REMARK                            x       y       z     vdW  Elec       q    Type
REMARK                         _______ _______ _______ _____ _____    ______ ____
ROOT
ATOM      1  C   UNL     1     -10.546  14.082  66.692  0.00  0.00    +0.188 C 
ATOM      2  C   UNL     1     -10.580  14.250  68.111  0.00  0.00    +0.072 C 
ATOM      3  C   UNL     1      -9.134  14.792  68.752  0.00  0.00    +0.146 C 
ATOM      4  C   UNL     1      -8.187  13.728  67.890  0.00  0.00    +0.043 A 
ATOM      5  C   UNL     1      -8.887  12.656  67.394  0.00  0.00    +0.021 A 
ATOM      6  C   UNL     1      -8.696  11.342  67.699  0.00  0.00    +0.195 A 
ATOM      7  C   UNL     1      -7.767  11.024  68.673  0.00  0.00    +0.084 A 
ATOM      8  C   UNL     1      -7.943   9.837  69.526  0.00  0.00    +0.199 C 
ATOM      9  O   UNL     1      -8.920   9.064  69.326  0.00  0.00    -0.286 OA
ATOM     10  C   UNL     1      -7.065   9.625  70.674  0.00  0.00    +0.045 A 
ATOM     11  C   UNL     1      -5.918  10.405  70.720  0.00  0.00    +0.076 A 
ATOM     12  C   UNL     1      -4.981  10.129  71.707  0.00  0.00    +0.142 A 
ATOM     13  C   UNL     1      -5.111   9.039  72.559  0.00  0.00    +0.037 A 
ATOM     14  C   UNL     1      -6.337   8.393  72.560  0.00  0.00    +0.003 A 
ATOM     15  C   UNL     1      -5.761  11.584  69.859  0.00  0.00    +0.202 C 
ATOM     16  O   UNL     1      -4.963  12.467  70.283  0.00  0.00    -0.286 OA
ATOM     17  C   UNL     1      -7.286   8.654  71.613  0.00  0.00    +0.003 A 
ATOM     18  C   UNL     1      -6.827  12.004  68.971  0.00  0.00    +0.084 A 
ATOM     19  O   UNL     1      -9.632  10.386  67.290  0.00  0.00    -0.287 OA
ATOM     20  C   UNL     1      -7.138  13.337  68.723  0.00  0.00    +0.197 A 
ATOM     21  O   UNL     1      -6.337  14.272  69.327  0.00  0.00    -0.287 OA
ATOM     22  C   UNL     1      -9.601  13.024  66.124  0.00  0.00    +0.067 C 
ATOM     23  O   UNL     1     -10.469  15.215  65.903  0.00  0.00    -0.218 OA
ENDROOT
BRANCH   1  24
ATOM     24  C   UNL     1     -11.881  13.452  66.394  0.00  0.00    +0.222 C 
ATOM     25  O   UNL     1     -12.172  12.313  66.760  0.00  0.00    -0.290 OA
BRANCH  24  26
ATOM     26  C   UNL     1     -12.803  13.931  65.322  0.00  0.00    +0.275 C 
BRANCH  26  27
ATOM     27  O   UNL     1     -12.292  13.787  64.025  0.00  0.00    -0.440 OA
BRANCH  27  28
ATOM     28  C   UNL     1     -12.167  12.550  63.386  0.00  0.00    +0.317 C 
ATOM     29  O   UNL     1     -13.175  11.812  63.322  0.00  0.00    -0.250 OA
BRANCH  28  30
ATOM     30  C   UNL     1     -10.785  12.048  63.177  0.00  0.00    +0.110 C 
BRANCH  30  31
ATOM     31  C   UNL     1     -10.596  10.733  63.873  0.00  0.00    +0.012 C 
BRANCH  31  33
ATOM     32  C   UNL     1      -8.722  10.148  63.886  0.00  0.00    +0.000 C 
ATOM     33  C   UNL     1      -9.196  10.191  63.707  0.00  0.00    +0.001 C 
ENDBRANCH  31  33
ENDBRANCH  30  31
ENDBRANCH  28  30
ENDBRANCH  27  28
ENDBRANCH  26  27
ENDBRANCH  24  26
ENDBRANCH   1  24
BRANCH  12  34
ATOM     34  O   UNL     1      -4.032  11.091  72.019  0.00  0.00    -0.471 OA
ATOM     35  C   UNL     1      -3.672  11.392  73.356  0.00  0.00    +0.252 C 
ENDBRANCH  12  34
BRANCH   3  36
ATOM     36  O   UNL     1      -8.955  15.977  67.744  0.00  0.00    -0.328 OA
BRANCH  36  37
ATOM     37  C   UNL     1      -9.284  16.855  69.039  0.00  0.00    +0.237 C 
ATOM     38  O   UNL     1     -10.321  17.739  68.313  0.00  0.00    -0.330 OA
ATOM     39  C   UNL     1      -9.777  18.943  67.567  0.00  0.00    +0.150 C 
ATOM     40  C   UNL     1      -8.706  19.515  68.702  0.00  0.00    +0.035 C 
ATOM     41  C   UNL     1      -8.748  18.007  66.505  0.00  0.00    +0.199 C 
ATOM     42  O   UNL     1      -8.240  19.263  65.809  0.00  0.00    -0.219 OA
ATOM     43  C   UNL     1      -7.326  17.726  67.455  0.00  0.00    +0.133 C 
ATOM     44  C   UNL     1      -7.957  17.875  68.932  0.00  0.00    +0.086 C 
BRANCH  43  45
ATOM     45  N   UNL     1      -6.794  19.235  67.408  0.00  0.00    -0.197 NA
ATOM     46  C   UNL     1      -5.522  19.479  67.862  0.00  0.00    +0.337 C 
ATOM     47  O   UNL     1      -4.635  18.611  67.763  0.00  0.00    -0.264 OA
BRANCH  46  48
ATOM     48  C   UNL     1      -5.114  20.878  68.186  0.00  0.00    +0.471 C 
ATOM     49  F   UNL     1      -5.447  21.218  69.495  0.00  0.00    -0.162 F 
ATOM     50  F   UNL     1      -5.741  21.801  67.369  0.00  0.00    -0.162 F 
ATOM     51  F   UNL     1      -3.747  21.052  68.134  0.00  0.00    -0.162 F 
ENDBRANCH  46  48
ENDBRANCH  43  45
ENDBRANCH  36  37
ENDBRANCH   3  36
TORSDOF 12
ENDMDL
MODEL 7
REMARK VINA RESULT:      -6.2      6.088     11.194
REMARK  Name = 
REMARK  12 active torsions:
REMARK  status: ('A' for Active; 'I' for Inactive)
REMARK    1  A    between atoms: C_2  and  C_3
REMARK    2  A    between atoms: C_3  and  C_4
REMARK    3  A    between atoms: C_4  and  C_5
REMARK    4  A    between atoms: C_5  and  O_7
REMARK    5  A    between atoms: O_7  and  C_8
REMARK    6  A    between atoms: C_8  and  C_9
REMARK    7  A    between atoms: C_9  and  C_11
REMARK    8  A    between atoms: C_22  and  O_23
REMARK    9  A    between atoms: O_23  and  C_24
REMARK   10  A    between atoms: C_26  and  N_27
REMARK   11  A    between atoms: C_28  and  C_30
REMARK   12  A    between atoms: C_43  and  O_44
REMARK                            x       y       z     vdW  Elec       q    Type
REMARK                         _______ _______ _______ _____ _____    ______ ____
ROOT
ATOM      1  C   UNL     1      -9.980   8.069  67.725  0.00  0.00    +0.188 C 
ATOM      2  C   UNL     1     -10.397   8.753  68.909  0.00  0.00    +0.072 C 
ATOM      3  C   UNL     1      -9.638  10.226  69.127  0.00  0.00    +0.146 C 
ATOM      4  C   UNL     1      -8.112   9.654  68.785  0.00  0.00    +0.043 A 
ATOM      5  C   UNL     1      -8.009   8.289  68.885  0.00  0.00    +0.021 A 
ATOM      6  C   UNL     1      -7.215   7.589  69.743  0.00  0.00    +0.195 A 
ATOM      7  C   UNL     1      -6.491   8.293  70.688  0.00  0.00    +0.084 A 
ATOM      8  C   UNL     1      -6.182   7.700  71.999  0.00  0.00    +0.199 C 
ATOM      9  O   UNL     1      -6.527   6.512  72.244  0.00  0.00    -0.286 OA
ATOM     10  C   UNL     1      -5.592   8.523  73.053  0.00  0.00    +0.045 A 
ATOM     11  C   UNL     1      -5.079   9.750  72.656  0.00  0.00    +0.076 A 
ATOM     12  C   UNL     1      -4.373  10.494  73.592  0.00  0.00    +0.142 A 
ATOM     13  C   UNL     1      -4.078   9.996  74.856  0.00  0.00    +0.037 A 
ATOM     14  C   UNL     1      -4.737   8.838  75.237  0.00  0.00    +0.003 A 
ATOM     15  C   UNL     1      -5.398  10.323  71.343  0.00  0.00    +0.202 C 
ATOM     16  O   UNL     1      -5.306  11.581  71.259  0.00  0.00    -0.286 OA
ATOM     17  C   UNL     1      -5.453   8.093  74.345  0.00  0.00    +0.003 A 
ATOM     18  C   UNL     1      -6.307   9.648  70.437  0.00  0.00    +0.084 A 
ATOM     19  O   UNL     1      -7.385   6.208  69.884  0.00  0.00    -0.287 OA
ATOM     20  C   UNL     1      -7.221  10.317  69.629  0.00  0.00    +0.197 A 
ATOM     21  O   UNL     1      -7.192  11.687  69.680  0.00  0.00    -0.287 OA
ATOM     22  C   UNL     1      -8.521   7.621  67.640  0.00  0.00    +0.067 C 
ATOM     23  O   UNL     1     -10.355   8.593  66.502  0.00  0.00    -0.218 OA
ENDROOT
BRANCH   1  24
ATOM     24  C   UNL     1     -10.674   6.737  67.843  0.00  0.00    +0.222 C 
ATOM     25  O   UNL     1     -11.072   6.108  66.862  0.00  0.00    -0.290 OA
BRANCH  24  26
ATOM     26  C   UNL     1     -11.310   6.242  69.101  0.00  0.00    +0.275 C 
BRANCH  26  27
ATOM     27  O   UNL     1     -10.559   5.272  69.776  0.00  0.00    -0.440 OA
BRANCH  27  28
ATOM     28  C   UNL     1     -10.505   5.180  71.170  0.00  0.00    +0.317 C 
ATOM     29  O   UNL     1     -10.004   4.152  71.677  0.00  0.00    -0.250 OA
BRANCH  28  30
ATOM     30  C   UNL     1     -11.377   6.112  71.930  0.00  0.00    +0.110 C 
BRANCH  30  31
ATOM     31  C   UNL     1     -10.590   6.808  73.000  0.00  0.00    +0.012 C 
BRANCH  31  33
ATOM     32  C   UNL     1      -9.581   8.438  72.575  0.00  0.00    +0.000 C 
ATOM     33  C   UNL     1      -9.890   8.044  72.486  0.00  0.00    +0.001 C 
ENDBRANCH  31  33
ENDBRANCH  30  31
ENDBRANCH  28  30
ENDBRANCH  27  28
ENDBRANCH  26  27
ENDBRANCH  24  26
ENDBRANCH   1  24
BRANCH  12  34
ATOM     34  O   UNL     1      -4.176  11.848  73.362  0.00  0.00    -0.471 OA
ATOM     35  C   UNL     1      -4.402  12.825  74.363  0.00  0.00    +0.252 C 
ENDBRANCH  12  34
BRANCH   3  36
ATOM     36  O   UNL     1      -9.911  10.756  67.680  0.00  0.00    -0.328 OA
BRANCH  36  37
ATOM     37  C   UNL     1     -11.031  11.615  68.428  0.00  0.00    +0.237 C 
ATOM     38  O   UNL     1     -12.040  11.523  67.262  0.00  0.00    -0.330 OA
ATOM     39  C   UNL     1     -11.898  12.562  66.165  0.00  0.00    +0.150 C 
ATOM     40  C   UNL     1     -11.678  13.922  67.092  0.00  0.00    +0.035 C 
ATOM     41  C   UNL     1     -10.259  12.113  65.746  0.00  0.00    +0.199 C 
ATOM     42  O   UNL     1     -10.188  13.185  64.667  0.00  0.00    -0.219 OA
ATOM     43  C   UNL     1      -9.293  12.954  66.915  0.00  0.00    +0.133 C 
ATOM     44  C   UNL     1     -10.385  13.125  68.090  0.00  0.00    +0.086 C 
BRANCH  43  45
ATOM     45  N   UNL     1      -9.543  14.417  66.315  0.00  0.00    -0.197 NA
ATOM     46  C   UNL     1      -8.709  15.426  66.725  0.00  0.00    +0.337 C 
ATOM     47  O   UNL     1      -7.529  15.188  67.039  0.00  0.00    -0.264 OA
BRANCH  46  48
ATOM     48  C   UNL     1      -9.111  16.847  66.500  0.00  0.00    +0.471 C 
ATOM     49  F   UNL     1      -9.359  17.505  67.702  0.00  0.00    -0.162 F 
ATOM     50  F   UNL     1     -10.271  16.944  65.753  0.00  0.00    -0.162 F 
ATOM     51  F   UNL     1      -8.108  17.590  65.915  0.00  0.00    -0.162 F 
ENDBRANCH  46  48
ENDBRANCH  43  45
ENDBRANCH  36  37
ENDBRANCH   3  36
TORSDOF 12
ENDMDL
MODEL 8
REMARK VINA RESULT:      -6.1      5.611     10.473
REMARK  Name = 
REMARK  12 active torsions:
REMARK  status: ('A' for Active; 'I' for Inactive)
REMARK    1  A    between atoms: C_2  and  C_3
REMARK    2  A    between atoms: C_3  and  C_4
REMARK    3  A    between atoms: C_4  and  C_5
REMARK    4  A    between atoms: C_5  and  O_7
REMARK    5  A    between atoms: O_7  and  C_8
REMARK    6  A    between atoms: C_8  and  C_9
REMARK    7  A    between atoms: C_9  and  C_11
REMARK    8  A    between atoms: C_22  and  O_23
REMARK    9  A    between atoms: O_23  and  C_24
REMARK   10  A    between atoms: C_26  and  N_27
REMARK   11  A    between atoms: C_28  and  C_30
REMARK   12  A    between atoms: C_43  and  O_44
REMARK                            x       y       z     vdW  Elec       q    Type
REMARK                         _______ _______ _______ _____ _____    ______ ____
ROOT
ATOM      1  C   UNL     1     -10.802  11.267  69.004  0.00  0.00    +0.188 C 
ATOM      2  C   UNL     1      -9.388  11.359  68.811  0.00  0.00    +0.072 C 
ATOM      3  C   UNL     1      -8.961  12.054  67.351  0.00  0.00    +0.146 C 
ATOM      4  C   UNL     1     -10.041  11.165  66.447  0.00  0.00    +0.043 A 
ATOM      5  C   UNL     1     -10.488  10.037  67.090  0.00  0.00    +0.021 A 
ATOM      6  C   UNL     1     -10.312   8.745  66.692  0.00  0.00    +0.195 A 
ATOM      7  C   UNL     1      -9.531   8.504  65.577  0.00  0.00    +0.084 A 
ATOM      8  C   UNL     1      -8.747   7.264  65.457  0.00  0.00    +0.199 C 
ATOM      9  O   UNL     1      -8.834   6.381  66.355  0.00  0.00    -0.286 OA
ATOM     10  C   UNL     1      -7.779   7.113  64.374  0.00  0.00    +0.045 A 
ATOM     11  C   UNL     1      -7.870   8.032  63.339  0.00  0.00    +0.076 A 
ATOM     12  C   UNL     1      -7.075   7.833  62.218  0.00  0.00    +0.142 A 
ATOM     13  C   UNL     1      -6.292   6.695  62.066  0.00  0.00    +0.037 A 
ATOM     14  C   UNL     1      -6.132   5.895  63.186  0.00  0.00    +0.003 A 
ATOM     15  C   UNL     1      -8.660   9.262  63.477  0.00  0.00    +0.202 C 
ATOM     16  O   UNL     1      -8.314  10.220  62.729  0.00  0.00    -0.286 OA
ATOM     17  C   UNL     1      -6.887   6.076  64.310  0.00  0.00    +0.003 A 
ATOM     18  C   UNL     1      -9.326   9.582  64.724  0.00  0.00    +0.084 A 
ATOM     19  O   UNL     1     -10.625   7.697  67.563  0.00  0.00    -0.287 OA
ATOM     20  C   UNL     1      -9.425  10.874  65.231  0.00  0.00    +0.197 A 
ATOM     21  O   UNL     1      -8.899  11.875  64.455  0.00  0.00    -0.287 OA
ATOM     22  C   UNL     1     -11.592  10.370  68.053  0.00  0.00    +0.067 C 
ATOM     23  O   UNL     1     -11.511  12.437  69.203  0.00  0.00    -0.218 OA
ENDROOT
BRANCH   1  24
ATOM     24  C   UNL     1     -10.916  10.483  70.286  0.00  0.00    +0.222 C 
ATOM     25  O   UNL     1     -10.137   9.576  70.579  0.00  0.00    -0.290 OA
BRANCH  24  26
ATOM     26  C   UNL     1     -12.159  10.421  71.111  0.00  0.00    +0.275 C 
BRANCH  26  27
ATOM     27  O   UNL     1     -12.297   9.237  71.846  0.00  0.00    -0.440 OA
BRANCH  27  28
ATOM     28  C   UNL     1     -13.493   8.517  71.919  0.00  0.00    +0.317 C 
ATOM     29  O   UNL     1     -14.408   8.960  72.647  0.00  0.00    -0.250 OA
BRANCH  28  30
ATOM     30  C   UNL     1     -13.450   7.110  71.443  0.00  0.00    +0.110 C 
BRANCH  30  31
ATOM     31  C   UNL     1     -12.031   6.676  71.226  0.00  0.00    +0.012 C 
BRANCH  31  33
ATOM     32  C   UNL     1     -11.119   5.646  72.628  0.00  0.00    +0.000 C 
ATOM     33  C   UNL     1     -11.514   5.819  72.358  0.00  0.00    +0.001 C 
ENDBRANCH  31  33
ENDBRANCH  30  31
ENDBRANCH  28  30
ENDBRANCH  27  28
ENDBRANCH  26  27
ENDBRANCH  24  26
ENDBRANCH   1  24
BRANCH  12  34
ATOM     34  O   UNL     1      -6.859   8.894  61.351  0.00  0.00    -0.471 OA
ATOM     35  C   UNL     1      -6.760   8.717  59.949  0.00  0.00    +0.252 C 
ENDBRANCH  12  34
BRANCH   3  36
ATOM     36  O   UNL     1      -9.899  13.300  67.494  0.00  0.00    -0.328 OA
BRANCH  36  37
ATOM     37  C   UNL     1      -8.507  14.068  67.655  0.00  0.00    +0.237 C 
ATOM     38  O   UNL     1      -8.748  14.424  69.139  0.00  0.00    -0.330 OA
ATOM     39  C   UNL     1      -9.541  15.688  69.409  0.00  0.00    +0.150 C 
ATOM     40  C   UNL     1      -8.818  16.712  68.319  0.00  0.00    +0.035 C 
ATOM     41  C   UNL     1     -10.968  15.155  68.548  0.00  0.00    +0.199 C 
ATOM     42  O   UNL     1     -11.698  16.456  68.852  0.00  0.00    -0.219 OA
ATOM     43  C   UNL     1     -10.607  15.521  66.892  0.00  0.00    +0.133 C 
ATOM     44  C   UNL     1      -8.996  15.515  66.963  0.00  0.00    +0.086 C 
BRANCH  43  45
ATOM     45  N   UNL     1     -10.722  17.110  67.044  0.00  0.00    -0.197 NA
ATOM     46  C   UNL     1     -10.632  17.868  65.904  0.00  0.00    +0.337 C 
ATOM     47  O   UNL     1     -11.024  17.421  64.810  0.00  0.00    -0.264 OA
BRANCH  46  48
ATOM     48  C   UNL     1     -10.362  19.333  66.016  0.00  0.00    +0.471 C 
ATOM     49  F   UNL     1      -9.009  19.618  65.845  0.00  0.00    -0.162 F 
ATOM     50  F   UNL     1     -10.713  19.829  67.258  0.00  0.00    -0.162 F 
ATOM     51  F   UNL     1     -10.983  20.060  65.024  0.00  0.00    -0.162 F 
ENDBRANCH  46  48
ENDBRANCH  43  45
ENDBRANCH  36  37
ENDBRANCH   3  36
TORSDOF 12
ENDMDL
MODEL 9
REMARK VINA RESULT:      -6.1      4.519      9.528
REMARK  Name = 
REMARK  12 active torsions:
REMARK  status: ('A' for Active; 'I' for Inactive)
REMARK    1  A    between atoms: C_2  and  C_3
REMARK    2  A    between atoms: C_3  and  C_4
REMARK    3  A    between atoms: C_4  and  C_5
REMARK    4  A    between atoms: C_5  and  O_7
REMARK    5  A    between atoms: O_7  and  C_8
REMARK    6  A    between atoms: C_8  and  C_9
REMARK    7  A    between atoms: C_9  and  C_11
REMARK    8  A    between atoms: C_22  and  O_23
REMARK    9  A    between atoms: O_23  and  C_24
REMARK   10  A    between atoms: C_26  and  N_27
REMARK   11  A    between atoms: C_28  and  C_30
REMARK   12  A    between atoms: C_43  and  O_44
REMARK                            x       y       z     vdW  Elec       q    Type
REMARK                         _______ _______ _______ _____ _____    ______ ____
ROOT
ATOM      1  C   UNL     1     -10.310  13.314  66.835  0.00  0.00    +0.188 C 
ATOM      2  C   UNL     1     -10.385  13.542  68.244  0.00  0.00    +0.072 C 
ATOM      3  C   UNL     1      -9.222  14.602  68.808  0.00  0.00    +0.146 C 
ATOM      4  C   UNL     1      -7.966  13.896  67.973  0.00  0.00    +0.043 A 
ATOM      5  C   UNL     1      -8.243  12.618  67.555  0.00  0.00    +0.021 A 
ATOM      6  C   UNL     1      -7.590  11.479  67.921  0.00  0.00    +0.195 A 
ATOM      7  C   UNL     1      -6.598  11.571  68.880  0.00  0.00    +0.084 A 
ATOM      8  C   UNL     1      -6.327  10.453  69.797  0.00  0.00    +0.199 C 
ATOM      9  O   UNL     1      -6.965   9.372  69.670  0.00  0.00    -0.286 OA
ATOM     10  C   UNL     1      -5.417  10.638  70.926  0.00  0.00    +0.045 A 
ATOM     11  C   UNL     1      -4.625  11.776  70.894  0.00  0.00    +0.076 A 
ATOM     12  C   UNL     1      -3.640  11.912  71.863  0.00  0.00    +0.142 A 
ATOM     13  C   UNL     1      -3.361  10.900  72.774  0.00  0.00    +0.037 A 
ATOM     14  C   UNL     1      -4.274   9.861  72.848  0.00  0.00    +0.003 A 
ATOM     15  C   UNL     1      -4.911  12.880  69.969  0.00  0.00    +0.202 C 
ATOM     16  O   UNL     1      -4.477  14.014  70.322  0.00  0.00    -0.286 OA
ATOM     17  C   UNL     1      -5.265   9.709  71.920  0.00  0.00    +0.003 A 
ATOM     18  C   UNL     1      -6.067  12.839  69.096  0.00  0.00    +0.084 A 
ATOM     19  O   UNL     1      -8.126  10.230  67.593  0.00  0.00    -0.287 OA
ATOM     20  C   UNL     1      -6.838  13.955  68.790  0.00  0.00    +0.197 A 
ATOM     21  O   UNL     1      -6.417  15.149  69.318  0.00  0.00    -0.287 OA
ATOM     22  C   UNL     1      -9.056  12.630  66.292  0.00  0.00    +0.067 C 
ATOM     23  O   UNL     1     -10.653  14.350  65.986  0.00  0.00    -0.218 OA
ENDROOT
BRANCH   1  24
ATOM     24  C   UNL     1     -11.335  12.232  66.614  0.00  0.00    +0.222 C 
ATOM     25  O   UNL     1     -12.390  12.432  66.012  0.00  0.00    -0.290 OA
BRANCH  24  26
ATOM     26  C   UNL     1     -11.395  10.972  67.413  0.00  0.00    +0.275 C 
BRANCH  26  27
ATOM     27  O   UNL     1     -12.280  11.026  68.497  0.00  0.00    -0.440 OA
BRANCH  27  28
ATOM     28  C   UNL     1     -11.929  10.626  69.791  0.00  0.00    +0.317 C 
ATOM     29  O   UNL     1     -12.659  10.986  70.740  0.00  0.00    -0.250 OA
BRANCH  28  30
ATOM     30  C   UNL     1     -10.537  10.144  69.981  0.00  0.00    +0.110 C 
BRANCH  30  31
ATOM     31  C   UNL     1     -10.537   8.789  70.624  0.00  0.00    +0.012 C 
BRANCH  31  33
ATOM     32  C   UNL     1      -9.388   8.455  72.181  0.00  0.00    +0.000 C 
ATOM     33  C   UNL     1      -9.650   8.734  71.846  0.00  0.00    +0.001 C 
ENDBRANCH  31  33
ENDBRANCH  30  31
ENDBRANCH  28  30
ENDBRANCH  27  28
ENDBRANCH  26  27
ENDBRANCH  24  26
ENDBRANCH   1  24
BRANCH  12  34
ATOM     34  O   UNL     1      -3.094  13.166  72.094  0.00  0.00    -0.471 OA
ATOM     35  C   UNL     1      -2.169  13.407  73.140  0.00  0.00    +0.252 C 
ENDBRANCH  12  34
BRANCH   3  36
ATOM     36  O   UNL     1      -9.490  15.711  67.736  0.00  0.00    -0.328 OA
BRANCH  36  37
ATOM     37  C   UNL     1      -9.824  16.589  69.029  0.00  0.00    +0.237 C 
ATOM     38  O   UNL     1     -10.936  17.401  68.328  0.00  0.00    -0.330 OA
ATOM     39  C   UNL     1     -10.488  18.622  67.547  0.00  0.00    +0.150 C 
ATOM     40  C   UNL     1      -9.412  19.272  68.633  0.00  0.00    +0.035 C 
ATOM     41  C   UNL     1      -9.446  17.729  66.461  0.00  0.00    +0.199 C 
ATOM     42  O   UNL     1      -9.036  19.000  65.730  0.00  0.00    -0.219 OA
ATOM     43  C   UNL     1      -7.977  17.545  67.363  0.00  0.00    +0.133 C 
ATOM     44  C   UNL     1      -8.563  17.682  68.859  0.00  0.00    +0.086 C 
BRANCH  43  45
ATOM     45  N   UNL     1      -7.535  19.081  67.275  0.00  0.00    -0.197 NA
ATOM     46  C   UNL     1      -6.206  19.374  67.451  0.00  0.00    +0.337 C 
ATOM     47  O   UNL     1      -5.325  18.560  67.117  0.00  0.00    -0.264 OA
BRANCH  46  48
ATOM     48  C   UNL     1      -5.797  20.781  67.746  0.00  0.00    +0.471 C 
ATOM     49  F   UNL     1      -4.447  20.988  67.475  0.00  0.00    -0.162 F 
ATOM     50  F   UNL     1      -5.984  21.103  69.078  0.00  0.00    -0.162 F 
ATOM     51  F   UNL     1      -6.443  21.696  66.943  0.00  0.00    -0.162 F 
ENDBRANCH  46  48
ENDBRANCH  43  45
ENDBRANCH  36  37
ENDBRANCH   3  36
TORSDOF 12
ENDMDL
