MODEL 1
REMARK VINA RESULT:      -5.3      0.000      0.000
REMARK  Name = 
REMARK  1 active torsions:
REMARK  status: ('A' for Active; 'I' for Inactive)
REMARK    1  A    between atoms: N_4  and  C_5
REMARK                            x       y       z     vdW  Elec       q    Type
REMARK                         _______ _______ _______ _____ _____    ______ ____
ROOT
ATOM      1  C   UNL     1      -8.966  16.828  67.865  0.00  0.00    +0.049 C 
ATOM      2  C   UNL     1     -10.361  16.317  68.036  0.00  0.00    +0.064 C 
ATOM      3  C   UNL     1     -10.828  15.059  67.384  0.00  0.00    +0.130 C 
ATOM      4  C   UNL     1     -11.763  14.539  68.423  0.00  0.00    +0.254 C 
ATOM      5  O   UNL     1     -12.125  13.350  68.511  0.00  0.00    -0.272 OA
ATOM      6  N   UNL     1     -11.929  15.563  69.412  0.00  0.00    -0.159 N 
ATOM      7  N   UNL     1     -11.280  16.675  68.858  0.00  0.00    -0.180 NA
ENDROOT
BRANCH   6   8
ATOM      8  C   UNL     1     -12.464  15.384  70.725  0.00  0.00    +0.077 A 
ATOM      9  C   UNL     1     -11.544  15.404  71.752  0.00  0.00    +0.017 A 
ATOM     10  C   UNL     1     -11.970  15.577  73.062  0.00  0.00    +0.001 A 
ATOM     11  C   UNL     1     -13.308  15.804  73.271  0.00  0.00    +0.000 A 
ATOM     12  C   UNL     1     -14.200  15.362  72.304  0.00  0.00    +0.001 A 
ATOM     13  C   UNL     1     -13.782  15.171  70.995  0.00  0.00    +0.017 A 
ENDBRANCH   6   8
TORSDOF 1
ENDMDL
MODEL 2
REMARK VINA RESULT:      -5.3      4.422      5.584
REMARK  Name = 
REMARK  1 active torsions:
REMARK  status: ('A' for Active; 'I' for Inactive)
REMARK    1  A    between atoms: N_4  and  C_5
REMARK                            x       y       z     vdW  Elec       q    Type
REMARK                         _______ _______ _______ _____ _____    ______ ____
ROOT
ATOM      1  C   UNL     1     -11.675  13.151  67.147  0.00  0.00    +0.049 C 
ATOM      2  C   UNL     1     -10.891  14.139  66.345  0.00  0.00    +0.064 C 
ATOM      3  C   UNL     1     -11.304  14.549  64.971  0.00  0.00    +0.130 C 
ATOM      4  C   UNL     1     -10.882  15.979  64.968  0.00  0.00    +0.254 C 
ATOM      5  O   UNL     1     -11.329  16.843  64.190  0.00  0.00    -0.272 OA
ATOM      6  N   UNL     1     -10.112  16.209  66.155  0.00  0.00    -0.159 N 
ATOM      7  N   UNL     1      -9.941  14.928  66.700  0.00  0.00    -0.180 NA
ENDROOT
BRANCH   6   8
ATOM      8  C   UNL     1      -9.792  17.484  66.716  0.00  0.00    +0.077 A 
ATOM      9  C   UNL     1      -8.543  17.978  66.400  0.00  0.00    +0.017 A 
ATOM     10  C   UNL     1      -8.259  19.321  66.601  0.00  0.00    +0.001 A 
ATOM     11  C   UNL     1      -9.278  20.129  67.041  0.00  0.00    +0.000 A 
ATOM     12  C   UNL     1     -10.330  19.533  67.724  0.00  0.00    +0.001 A 
ATOM     13  C   UNL     1     -10.614  18.187  67.542  0.00  0.00    +0.017 A 
ENDBRANCH   6   8
TORSDOF 1
ENDMDL
MODEL 3
REMARK VINA RESULT:      -5.2      1.514      2.168
REMARK  Name = 
REMARK  1 active torsions:
REMARK  status: ('A' for Active; 'I' for Inactive)
REMARK    1  A    between atoms: N_4  and  C_5
REMARK                            x       y       z     vdW  Elec       q    Type
REMARK                         _______ _______ _______ _____ _____    ______ ____
ROOT
ATOM      1  C   UNL     1     -12.094  13.063  66.430  0.00  0.00    +0.049 C 
ATOM      2  C   UNL     1     -11.448  13.826  67.541  0.00  0.00    +0.064 C 
ATOM      3  C   UNL     1     -10.929  15.213  67.351  0.00  0.00    +0.130 C 
ATOM      4  C   UNL     1     -11.224  15.804  68.688  0.00  0.00    +0.254 C 
ATOM      5  O   UNL     1     -11.309  17.027  68.913  0.00  0.00    -0.272 OA
ATOM      6  N   UNL     1     -11.643  14.741  69.553  0.00  0.00    -0.159 N 
ATOM      7  N   UNL     1     -11.407  13.582  68.801  0.00  0.00    -0.180 NA
ENDROOT
BRANCH   6   8
ATOM      8  C   UNL     1     -12.323  14.891  70.801  0.00  0.00    +0.077 A 
ATOM      9  C   UNL     1     -11.526  15.210  71.881  0.00  0.00    +0.017 A 
ATOM     10  C   UNL     1     -12.100  15.702  73.045  0.00  0.00    +0.001 A 
ATOM     11  C   UNL     1     -13.454  15.927  73.041  0.00  0.00    +0.000 A 
ATOM     12  C   UNL     1     -14.227  15.216  72.133  0.00  0.00    +0.001 A 
ATOM     13  C   UNL     1     -13.661  14.707  70.973  0.00  0.00    +0.017 A 
ENDBRANCH   6   8
TORSDOF 1
ENDMDL
MODEL 4
REMARK VINA RESULT:      -5.1      3.534      5.042
REMARK  Name = 
REMARK  1 active torsions:
REMARK  status: ('A' for Active; 'I' for Inactive)
REMARK    1  A    between atoms: N_4  and  C_5
REMARK                            x       y       z     vdW  Elec       q    Type
REMARK                         _______ _______ _______ _____ _____    ______ ____
ROOT
ATOM      1  C   UNL     1     -12.518  15.536  74.153  0.00  0.00    +0.049 C 
ATOM      2  C   UNL     1     -13.086  14.906  72.922  0.00  0.00    +0.064 C 
ATOM      3  C   UNL     1     -12.980  15.554  71.581  0.00  0.00    +0.130 C 
ATOM      4  C   UNL     1     -12.829  14.356  70.706  0.00  0.00    +0.254 C 
ATOM      5  O   UNL     1     -12.349  14.381  69.556  0.00  0.00    -0.272 OA
ATOM      6  N   UNL     1     -13.070  13.194  71.510  0.00  0.00    -0.159 N 
ATOM      7  N   UNL     1     -13.528  13.717  72.728  0.00  0.00    -0.180 NA
ENDROOT
BRANCH   6   8
ATOM      8  C   UNL     1     -12.718  11.850  71.174  0.00  0.00    +0.077 A 
ATOM      9  C   UNL     1     -11.852  11.709  70.110  0.00  0.00    +0.017 A 
ATOM     10  C   UNL     1     -11.190  10.506  69.911  0.00  0.00    +0.001 A 
ATOM     11  C   UNL     1     -11.369   9.517  70.847  0.00  0.00    +0.000 A 
ATOM     12  C   UNL     1     -12.526   9.554  71.614  0.00  0.00    +0.001 A 
ATOM     13  C   UNL     1     -13.205  10.748  71.808  0.00  0.00    +0.017 A 
ENDBRANCH   6   8
TORSDOF 1
ENDMDL
MODEL 5
REMARK VINA RESULT:      -5.0      3.849      6.699
REMARK  Name = 
REMARK  1 active torsions:
REMARK  status: ('A' for Active; 'I' for Inactive)
REMARK    1  A    between atoms: N_4  and  C_5
REMARK                            x       y       z     vdW  Elec       q    Type
REMARK                         _______ _______ _______ _____ _____    ______ ____
ROOT
ATOM      1  C   UNL     1     -10.951  10.299  70.181  0.00  0.00    +0.049 C 
ATOM      2  C   UNL     1     -11.691  11.251  69.297  0.00  0.00    +0.064 C 
ATOM      3  C   UNL     1     -11.781  12.709  69.605  0.00  0.00    +0.130 C 
ATOM      4  C   UNL     1     -11.758  13.285  68.229  0.00  0.00    +0.254 C 
ATOM      5  O   UNL     1     -11.450  14.463  67.965  0.00  0.00    -0.272 OA
ATOM      6  N   UNL     1     -11.879  12.200  67.300  0.00  0.00    -0.159 N 
ATOM      7  N   UNL     1     -12.156  11.091  68.111  0.00  0.00    -0.180 NA
ENDROOT
BRANCH   6   8
ATOM      8  C   UNL     1     -11.578  12.252  65.903  0.00  0.00    +0.077 A 
ATOM      9  C   UNL     1     -10.311  11.838  65.550  0.00  0.00    +0.017 A 
ATOM     10  C   UNL     1     -10.027  11.530  64.227  0.00  0.00    +0.001 A 
ATOM     11  C   UNL     1     -11.062  11.576  63.326  0.00  0.00    +0.000 A 
ATOM     12  C   UNL     1     -12.153  12.378  63.632  0.00  0.00    +0.001 A 
ATOM     13  C   UNL     1     -12.439  12.705  64.950  0.00  0.00    +0.017 A 
ENDBRANCH   6   8
TORSDOF 1
ENDMDL
MODEL 6
REMARK VINA RESULT:      -5.0      2.521      3.066
REMARK  Name = 
REMARK  1 active torsions:
REMARK  status: ('A' for Active; 'I' for Inactive)
REMARK    1  A    between atoms: N_4  and  C_5
REMARK                            x       y       z     vdW  Elec       q    Type
REMARK                         _______ _______ _______ _____ _____    ______ ____
ROOT
ATOM      1  C   UNL     1      -9.782  12.258  67.982  0.00  0.00    +0.049 C 
ATOM      2  C   UNL     1     -11.108  12.384  68.660  0.00  0.00    +0.064 C 
ATOM      3  C   UNL     1     -11.716  11.254  69.423  0.00  0.00    +0.130 C 
ATOM      4  C   UNL     1     -12.402  11.998  70.519  0.00  0.00    +0.254 C 
ATOM      5  O   UNL     1     -12.745  11.491  71.606  0.00  0.00    -0.272 OA
ATOM      6  N   UNL     1     -12.339  13.395  70.205  0.00  0.00    -0.159 N 
ATOM      7  N   UNL     1     -11.820  13.424  68.903  0.00  0.00    -0.180 NA
ENDROOT
BRANCH   6   8
ATOM      8  C   UNL     1     -12.572  14.472  71.115  0.00  0.00    +0.077 A 
ATOM      9  C   UNL     1     -13.896  14.793  71.334  0.00  0.00    +0.017 A 
ATOM     10  C   UNL     1     -14.248  15.574  72.425  0.00  0.00    +0.001 A 
ATOM     11  C   UNL     1     -13.252  15.934  73.299  0.00  0.00    +0.000 A 
ATOM     12  C   UNL     1     -11.948  15.955  72.822  0.00  0.00    +0.001 A 
ATOM     13  C   UNL     1     -11.588  15.190  71.723  0.00  0.00    +0.017 A 
ENDBRANCH   6   8
TORSDOF 1
ENDMDL
MODEL 7
REMARK VINA RESULT:      -4.9      3.359      4.576
REMARK  Name = 
REMARK  1 active torsions:
REMARK  status: ('A' for Active; 'I' for Inactive)
REMARK    1  A    between atoms: N_4  and  C_5
REMARK                            x       y       z     vdW  Elec       q    Type
REMARK                         _______ _______ _______ _____ _____    ______ ____
ROOT
ATOM      1  C   UNL     1     -10.356  11.081  63.544  0.00  0.00    +0.049 C 
ATOM      2  C   UNL     1     -10.785  12.384  64.140  0.00  0.00    +0.064 C 
ATOM      3  C   UNL     1     -12.069  13.043  63.761  0.00  0.00    +0.130 C 
ATOM      4  C   UNL     1     -12.458  13.660  65.062  0.00  0.00    +0.254 C 
ATOM      5  O   UNL     1     -13.617  14.011  65.355  0.00  0.00    -0.272 OA
ATOM      6  N   UNL     1     -11.350  13.520  65.960  0.00  0.00    -0.159 N 
ATOM      7  N   UNL     1     -10.318  13.026  65.149  0.00  0.00    -0.180 NA
ENDROOT
BRANCH   6   8
ATOM      8  C   UNL     1     -11.396  13.669  67.381  0.00  0.00    +0.077 A 
ATOM      9  C   UNL     1     -11.324  14.966  67.847  0.00  0.00    +0.017 A 
ATOM     10  C   UNL     1     -11.691  15.253  69.154  0.00  0.00    +0.001 A 
ATOM     11  C   UNL     1     -12.194  14.227  69.915  0.00  0.00    +0.000 A 
ATOM     12  C   UNL     1     -11.852  12.928  69.560  0.00  0.00    +0.001 A 
ATOM     13  C   UNL     1     -11.469  12.632  68.260  0.00  0.00    +0.017 A 
ENDBRANCH   6   8
TORSDOF 1
ENDMDL
MODEL 8
REMARK VINA RESULT:      -4.8      3.974      5.200
REMARK  Name = 
REMARK  1 active torsions:
REMARK  status: ('A' for Active; 'I' for Inactive)
REMARK    1  A    between atoms: N_4  and  C_5
REMARK                            x       y       z     vdW  Elec       q    Type
REMARK                         _______ _______ _______ _____ _____    ______ ____
ROOT
ATOM      1  C   UNL     1      -9.282   9.984  64.090  0.00  0.00    +0.049 C 
ATOM      2  C   UNL     1     -10.011  11.255  64.390  0.00  0.00    +0.064 C 
ATOM      3  C   UNL     1     -11.220  11.673  63.621  0.00  0.00    +0.130 C 
ATOM      4  C   UNL     1     -12.014  12.339  64.694  0.00  0.00    +0.254 C 
ATOM      5  O   UNL     1     -13.244  12.533  64.641  0.00  0.00    -0.272 OA
ATOM      6  N   UNL     1     -11.176  12.451  65.851  0.00  0.00    -0.159 N 
ATOM      7  N   UNL     1      -9.913  12.050  65.393  0.00  0.00    -0.180 NA
ENDROOT
BRANCH   6   8
ATOM      8  C   UNL     1     -11.616  12.720  67.185  0.00  0.00    +0.077 A 
ATOM      9  C   UNL     1     -11.748  11.617  68.003  0.00  0.00    +0.017 A 
ATOM     10  C   UNL     1     -11.837  11.782  69.378  0.00  0.00    +0.001 A 
ATOM     11  C   UNL     1     -11.707  13.054  69.877  0.00  0.00    +0.000 A 
ATOM     12  C   UNL     1     -12.001  14.115  69.030  0.00  0.00    +0.001 A 
ATOM     13  C   UNL     1     -11.929  13.959  67.654  0.00  0.00    +0.017 A 
ENDBRANCH   6   8
TORSDOF 1
ENDMDL
MODEL 9
REMARK VINA RESULT:      -4.8      3.871      5.531
REMARK  Name = 
REMARK  1 active torsions:
REMARK  status: ('A' for Active; 'I' for Inactive)
REMARK    1  A    between atoms: N_4  and  C_5
REMARK                            x       y       z     vdW  Elec       q    Type
REMARK                         _______ _______ _______ _____ _____    ______ ____
ROOT
ATOM      1  C   UNL     1     -10.512  19.617  65.941  0.00  0.00    +0.049 C 
ATOM      2  C   UNL     1     -10.127  18.275  66.473  0.00  0.00    +0.064 C 
ATOM      3  C   UNL     1     -10.440  17.859  67.872  0.00  0.00    +0.130 C 
ATOM      4  C   UNL     1     -10.705  16.405  67.676  0.00  0.00    +0.254 C 
ATOM      5  O   UNL     1     -11.352  15.695  68.471  0.00  0.00    -0.272 OA
ATOM      6  N   UNL     1     -10.332  16.070  66.334  0.00  0.00    -0.159 N 
ATOM      7  N   UNL     1      -9.703  17.230  65.859  0.00  0.00    -0.180 NA
ENDROOT
BRANCH   6   8
ATOM      8  C   UNL     1     -10.714  14.889  65.625  0.00  0.00    +0.077 A 
ATOM      9  C   UNL     1      -9.955  13.766  65.884  0.00  0.00    +0.017 A 
ATOM     10  C   UNL     1     -10.428  12.512  65.523  0.00  0.00    +0.001 A 
ATOM     11  C   UNL     1     -11.689  12.437  64.987  0.00  0.00    +0.000 A 
ATOM     12  C   UNL     1     -12.203  13.574  64.377  0.00  0.00    +0.001 A 
ATOM     13  C   UNL     1     -11.728  14.832  64.718  0.00  0.00    +0.017 A 
ENDBRANCH   6   8
TORSDOF 1
ENDMDL
