MODEL 1
REMARK VINA RESULT:      -5.9      0.000      0.000
REMARK  Name = 
REMARK  7 active torsions:
REMARK  status: ('A' for Active; 'I' for Inactive)
REMARK    1  A    between atoms: C_2  and  C_3
REMARK    2  A    between atoms: C_3  and  C_4
REMARK    3  A    between atoms: C_6  and  C_7
REMARK    4  A    between atoms: N_9  and  C_10
REMARK    5  A    between atoms: C_10  and  C_11
REMARK    6  A    between atoms: C_10  and  C_14
REMARK    7  A    between atoms: C_16  and  S_17
REMARK                            x       y       z     vdW  Elec       q    Type
REMARK                         _______ _______ _______ _____ _____    ______ ____
ROOT
ATOM      1  C   UNL     1      -8.789  16.272  67.988  0.00  0.00    +0.140 C 
ENDROOT
BRANCH   1   2
ATOM      2  C   UNL     1      -8.295  17.729  68.711  0.00  0.00    +0.170 C 
ATOM      3  C   UNL     1      -9.638  18.655  68.154  0.00  0.00    +0.213 C 
ATOM      4  O   UNL     1      -9.868  17.998  66.840  0.00  0.00    -0.218 OA
ATOM      5  C   UNL     1      -8.605  19.930  67.690  0.00  0.00    +0.218 C 
ATOM      6  O   UNL     1      -9.781  20.798  67.348  0.00  0.00    -0.217 OA
ATOM      7  C   UNL     1      -8.355  19.479  66.065  0.00  0.00    +0.222 C 
ATOM      8  O   UNL     1      -7.107  20.318  66.048  0.00  0.00    -0.217 OA
ATOM      9  C   UNL     1      -7.639  17.967  66.388  0.00  0.00    +0.195 C 
ATOM     10  O   UNL     1      -7.254  18.158  67.760  0.00  0.00    -0.341 OA
BRANCH   9  11
ATOM     11  S   UNL     1      -5.886  18.280  65.666  0.00  0.00    -0.108 S 
ATOM     12  C   UNL     1      -4.630  17.838  66.876  0.00  0.00    +0.072 C 
ENDBRANCH   9  11
ENDBRANCH   1   2
BRANCH   1  13
ATOM     13  C   UNL     1      -7.511  15.440  68.623  0.00  0.00    +0.102 C 
ATOM     14 CL   UNL     1      -8.465  13.938  69.146  0.00  0.00    -0.113 Cl
ATOM     15  C   UNL     1      -7.032  14.782  67.277  0.00  0.00    +0.019 C 
ENDBRANCH   1  13
BRANCH   1  17
ATOM     16  C   UNL     1     -11.030  15.497  68.974  0.00  0.00    +0.256 C 
ATOM     17  N   UNL     1      -9.725  15.880  69.167  0.00  0.00    -0.202 NA
ATOM     18  O   UNL     1     -11.400  15.383  67.809  0.00  0.00    -0.272 OA
BRANCH  16  23
ATOM     19  C   UNL     1     -12.465  14.587  72.185  0.00  0.00    +0.018 C 
ATOM     20  C   UNL     1     -13.678  14.771  71.111  0.00  0.00    +0.073 C 
ATOM     21  N   UNL     1     -12.899  14.384  69.935  0.00  0.00    -0.265 NA
ATOM     22  C   UNL     1     -12.045  13.361  70.417  0.00  0.00    +0.090 C 
ATOM     23  C   UNL     1     -12.204  15.800  70.025  0.00  0.00    +0.137 C 
ATOM     24  C   UNL     1     -11.307  15.316  71.305  0.00  0.00    +0.027 C 
BRANCH  19  25
ATOM     25  C   UNL     1     -12.864  15.954  72.981  0.00  0.00    +0.001 C 
BRANCH  25  27
ATOM     26  C   UNL     1     -12.443  15.973  74.881  0.00  0.00    +0.000 C 
ATOM     27  C   UNL     1     -12.445  15.520  74.386  0.00  0.00    +0.000 C 
ENDBRANCH  25  27
ENDBRANCH  19  25
ENDBRANCH  16  23
ENDBRANCH   1  17
TORSDOF 7
ENDMDL
MODEL 2
REMARK VINA RESULT:      -5.7      3.827      7.492
REMARK  Name = 
REMARK  7 active torsions:
REMARK  status: ('A' for Active; 'I' for Inactive)
REMARK    1  A    between atoms: C_2  and  C_3
REMARK    2  A    between atoms: C_3  and  C_4
REMARK    3  A    between atoms: C_6  and  C_7
REMARK    4  A    between atoms: N_9  and  C_10
REMARK    5  A    between atoms: C_10  and  C_11
REMARK    6  A    between atoms: C_10  and  C_14
REMARK    7  A    between atoms: C_16  and  S_17
REMARK                            x       y       z     vdW  Elec       q    Type
REMARK                         _______ _______ _______ _____ _____    ______ ____
ROOT
ATOM      1  C   UNL     1      -9.398  15.281  67.511  0.00  0.00    +0.140 C 
ENDROOT
BRANCH   1   2
ATOM      2  C   UNL     1      -9.419  14.659  65.929  0.00  0.00    +0.170 C 
ATOM      3  C   UNL     1     -10.773  15.587  65.404  0.00  0.00    +0.213 C 
ATOM      4  O   UNL     1     -11.549  15.640  66.672  0.00  0.00    -0.218 OA
ATOM      5  C   UNL     1     -11.469  14.215  64.668  0.00  0.00    +0.218 C 
ATOM      6  O   UNL     1     -12.568  15.050  64.079  0.00  0.00    -0.217 OA
ATOM      7  C   UNL     1     -12.443  13.694  65.967  0.00  0.00    +0.222 C 
ATOM      8  O   UNL     1     -12.488  12.322  65.352  0.00  0.00    -0.217 OA
ATOM      9  C   UNL     1     -11.173  13.433  67.073  0.00  0.00    +0.195 C 
ATOM     10  O   UNL     1     -10.060  13.353  66.166  0.00  0.00    -0.341 OA
BRANCH   9  11
ATOM     11  S   UNL     1     -11.342  11.534  67.316  0.00  0.00    -0.108 S 
ATOM     12  C   UNL     1     -11.804  11.166  69.015  0.00  0.00    +0.072 C 
ENDBRANCH   9  11
ENDBRANCH   1   2
BRANCH   1  13
ATOM     13  C   UNL     1      -8.130  14.318  67.949  0.00  0.00    +0.102 C 
ATOM     14 CL   UNL     1      -6.784  15.417  67.300  0.00  0.00    -0.113 Cl
ATOM     15  C   UNL     1      -7.988  14.856  69.420  0.00  0.00    +0.019 C 
ENDBRANCH   1  13
BRANCH   1  17
ATOM     16  C   UNL     1      -8.692  17.748  67.593  0.00  0.00    +0.256 C 
ATOM     17  N   UNL     1      -8.464  16.470  67.145  0.00  0.00    -0.202 NA
ATOM     18  O   UNL     1      -9.620  17.894  68.383  0.00  0.00    -0.272 OA
BRANCH  16  23
ATOM     19  C   UNL     1      -5.998  19.618  66.029  0.00  0.00    +0.018 C 
ATOM     20  C   UNL     1      -6.968  20.668  66.814  0.00  0.00    +0.073 C 
ATOM     21  N   UNL     1      -7.401  19.730  67.848  0.00  0.00    -0.265 NA
ATOM     22  C   UNL     1      -6.247  18.948  68.101  0.00  0.00    +0.090 C 
ATOM     23  C   UNL     1      -8.317  19.060  66.749  0.00  0.00    +0.137 C 
ATOM     24  C   UNL     1      -7.018  18.351  66.050  0.00  0.00    +0.027 C 
BRANCH  19  25
ATOM     25  C   UNL     1      -6.505  20.131  64.565  0.00  0.00    +0.001 C 
BRANCH  25  27
ATOM     26  C   UNL     1      -5.424  19.498  63.075  0.00  0.00    +0.000 C 
ATOM     27  C   UNL     1      -5.558  19.297  63.701  0.00  0.00    +0.000 C 
ENDBRANCH  25  27
ENDBRANCH  19  25
ENDBRANCH  16  23
ENDBRANCH   1  17
TORSDOF 7
ENDMDL
MODEL 3
REMARK VINA RESULT:      -5.6      3.378      5.390
REMARK  Name = 
REMARK  7 active torsions:
REMARK  status: ('A' for Active; 'I' for Inactive)
REMARK    1  A    between atoms: C_2  and  C_3
REMARK    2  A    between atoms: C_3  and  C_4
REMARK    3  A    between atoms: C_6  and  C_7
REMARK    4  A    between atoms: N_9  and  C_10
REMARK    5  A    between atoms: C_10  and  C_11
REMARK    6  A    between atoms: C_10  and  C_14
REMARK    7  A    between atoms: C_16  and  S_17
REMARK                            x       y       z     vdW  Elec       q    Type
REMARK                         _______ _______ _______ _____ _____    ______ ____
ROOT
ATOM      1  C   UNL     1      -8.257  17.660  67.844  0.00  0.00    +0.140 C 
ENDROOT
BRANCH   1   2
ATOM      2  C   UNL     1      -7.303  17.880  66.455  0.00  0.00    +0.170 C 
ATOM      3  C   UNL     1      -6.230  16.572  66.782  0.00  0.00    +0.213 C 
ATOM      4  O   UNL     1      -6.200  16.635  68.267  0.00  0.00    -0.218 OA
ATOM      5  C   UNL     1      -4.880  17.542  66.400  0.00  0.00    +0.218 C 
ATOM      6  O   UNL     1      -3.958  16.365  66.533  0.00  0.00    -0.217 OA
ATOM      7  C   UNL     1      -4.522  18.110  67.967  0.00  0.00    +0.222 C 
ATOM      8  O   UNL     1      -3.766  19.256  67.353  0.00  0.00    -0.217 OA
ATOM      9  C   UNL     1      -6.007  18.901  68.234  0.00  0.00    +0.195 C 
ATOM     10  O   UNL     1      -6.475  19.024  66.880  0.00  0.00    -0.341 OA
BRANCH   9  11
ATOM     11  S   UNL     1      -5.386  20.714  68.373  0.00  0.00    -0.108 S 
ATOM     12  C   UNL     1      -4.906  21.077  70.068  0.00  0.00    +0.072 C 
ENDBRANCH   9  11
ENDBRANCH   1   2
BRANCH   1  13
ATOM     13  C   UNL     1      -9.293  18.872  67.412  0.00  0.00    +0.102 C 
ATOM     14 CL   UNL     1     -10.837  17.844  67.393  0.00  0.00    -0.113 Cl
ATOM     15  C   UNL     1      -9.561  19.413  68.864  0.00  0.00    +0.019 C 
ENDBRANCH   1  13
BRANCH   1  17
ATOM     16  C   UNL     1      -9.385  15.354  67.792  0.00  0.00    +0.256 C 
ATOM     17  N   UNL     1      -9.147  16.565  67.190  0.00  0.00    -0.202 NA
ATOM     18  O   UNL     1      -8.939  15.210  68.927  0.00  0.00    -0.272 OA
BRANCH  16  23
ATOM     19  C   UNL     1     -11.677  13.451  65.712  0.00  0.00    +0.018 C 
ATOM     20  C   UNL     1     -11.005  12.439  66.800  0.00  0.00    +0.073 C 
ATOM     21  N   UNL     1     -10.806  13.447  67.841  0.00  0.00    -0.265 NA
ATOM     22  C   UNL     1     -11.940  14.286  67.721  0.00  0.00    +0.090 C 
ATOM     23  C   UNL     1      -9.599  13.988  66.977  0.00  0.00    +0.137 C 
ATOM     24  C   UNL     1     -10.629  14.680  65.910  0.00  0.00    +0.027 C 
BRANCH  19  25
ATOM     25  C   UNL     1     -10.834  12.799  64.476  0.00  0.00    +0.001 C 
BRANCH  25  27
ATOM     26  C   UNL     1     -12.356  12.114  63.474  0.00  0.00    +0.000 C 
ATOM     27  C   UNL     1     -11.981  12.671  63.473  0.00  0.00    +0.000 C 
ENDBRANCH  25  27
ENDBRANCH  19  25
ENDBRANCH  16  23
ENDBRANCH   1  17
TORSDOF 7
ENDMDL
MODEL 4
REMARK VINA RESULT:      -5.6      3.781      5.831
REMARK  Name = 
REMARK  7 active torsions:
REMARK  status: ('A' for Active; 'I' for Inactive)
REMARK    1  A    between atoms: C_2  and  C_3
REMARK    2  A    between atoms: C_3  and  C_4
REMARK    3  A    between atoms: C_6  and  C_7
REMARK    4  A    between atoms: N_9  and  C_10
REMARK    5  A    between atoms: C_10  and  C_11
REMARK    6  A    between atoms: C_10  and  C_14
REMARK    7  A    between atoms: C_16  and  S_17
REMARK                            x       y       z     vdW  Elec       q    Type
REMARK                         _______ _______ _______ _____ _____    ______ ____
ROOT
ATOM      1  C   UNL     1      -9.181  17.242  67.377  0.00  0.00    +0.140 C 
ENDROOT
BRANCH   1   2
ATOM      2  C   UNL     1      -7.610  16.952  66.796  0.00  0.00    +0.170 C 
ATOM      3  C   UNL     1      -7.223  15.741  67.960  0.00  0.00    +0.213 C 
ATOM      4  O   UNL     1      -7.981  16.264  69.128  0.00  0.00    -0.218 OA
ATOM      5  C   UNL     1      -5.696  16.450  68.235  0.00  0.00    +0.218 C 
ATOM      6  O   UNL     1      -5.297  15.314  69.132  0.00  0.00    -0.217 OA
ATOM      7  C   UNL     1      -6.113  17.453  69.549  0.00  0.00    +0.222 C 
ATOM      8  O   UNL     1      -4.902  18.297  69.259  0.00  0.00    -0.217 OA
ATOM      9  C   UNL     1      -7.274  18.387  68.722  0.00  0.00    +0.195 C 
ATOM     10  O   UNL     1      -6.899  18.112  67.362  0.00  0.00    -0.341 OA
BRANCH   9  11
ATOM     11  S   UNL     1      -6.419  20.106  68.798  0.00  0.00    -0.108 S 
ATOM     12  C   UNL     1      -6.494  20.907  67.189  0.00  0.00    +0.072 C 
ENDBRANCH   9  11
ENDBRANCH   1   2
BRANCH   1  13
ATOM     13  C   UNL     1      -9.483  18.367  66.207  0.00  0.00    +0.102 C 
ATOM     14 CL   UNL     1     -10.823  17.425  65.337  0.00  0.00    -0.113 Cl
ATOM     15  C   UNL     1     -10.502  19.230  67.039  0.00  0.00    +0.019 C 
ENDBRANCH   1  13
BRANCH   1  17
ATOM     16  C   UNL     1     -10.760  15.241  67.063  0.00  0.00    +0.256 C 
ATOM     17  N   UNL     1      -9.817  16.094  66.542  0.00  0.00    -0.202 NA
ATOM     18  O   UNL     1     -11.154  15.489  68.199  0.00  0.00    -0.272 OA
BRANCH  16  23
ATOM     19  C   UNL     1     -11.055  12.958  64.252  0.00  0.00    +0.018 C 
ATOM     20  C   UNL     1     -12.110  12.496  65.407  0.00  0.00    +0.073 C 
ATOM     21  N   UNL     1     -12.326  13.832  65.959  0.00  0.00    -0.265 NA
ATOM     22  C   UNL     1     -12.289  14.677  64.822  0.00  0.00    +0.090 C 
ATOM     23  C   UNL     1     -10.899  13.704  66.624  0.00  0.00    +0.137 C 
ATOM     24  C   UNL     1     -10.167  13.955  65.182  0.00  0.00    +0.027 C 
BRANCH  19  25
ATOM     25  C   UNL     1     -10.084  11.675  64.523  0.00  0.00    +0.001 C 
BRANCH  25  27
ATOM     26  C   UNL     1      -9.427  11.089  62.787  0.00  0.00    +0.000 C 
ATOM     27  C   UNL     1     -10.023  11.141  63.091  0.00  0.00    +0.000 C 
ENDBRANCH  25  27
ENDBRANCH  19  25
ENDBRANCH  16  23
ENDBRANCH   1  17
TORSDOF 7
ENDMDL
MODEL 5
REMARK VINA RESULT:      -5.6      4.076      5.645
REMARK  Name = 
REMARK  7 active torsions:
REMARK  status: ('A' for Active; 'I' for Inactive)
REMARK    1  A    between atoms: C_2  and  C_3
REMARK    2  A    between atoms: C_3  and  C_4
REMARK    3  A    between atoms: C_6  and  C_7
REMARK    4  A    between atoms: N_9  and  C_10
REMARK    5  A    between atoms: C_10  and  C_11
REMARK    6  A    between atoms: C_10  and  C_14
REMARK    7  A    between atoms: C_16  and  S_17
REMARK                            x       y       z     vdW  Elec       q    Type
REMARK                         _______ _______ _______ _____ _____    ______ ____
ROOT
ATOM      1  C   UNL     1      -8.694  18.252  67.312  0.00  0.00    +0.140 C 
ENDROOT
BRANCH   1   2
ATOM      2  C   UNL     1      -7.329  18.338  66.302  0.00  0.00    +0.170 C 
ATOM      3  C   UNL     1      -6.794  16.728  66.609  0.00  0.00    +0.213 C 
ATOM      4  O   UNL     1      -7.217  16.589  68.028  0.00  0.00    -0.218 OA
ATOM      5  C   UNL     1      -5.189  17.267  66.811  0.00  0.00    +0.218 C 
ATOM      6  O   UNL     1      -4.697  15.854  66.925  0.00  0.00    -0.217 OA
ATOM      7  C   UNL     1      -5.205  17.489  68.502  0.00  0.00    +0.222 C 
ATOM      8  O   UNL     1      -4.023  18.410  68.369  0.00  0.00    -0.217 OA
ATOM      9  C   UNL     1      -6.437  18.665  68.534  0.00  0.00    +0.195 C 
ATOM     10  O   UNL     1      -6.409  19.100  67.164  0.00  0.00    -0.341 OA
BRANCH   9  11
ATOM     11  S   UNL     1      -5.440  20.159  69.217  0.00  0.00    -0.108 S 
ATOM     12  C   UNL     1      -5.566  20.221  71.011  0.00  0.00    +0.072 C 
ENDBRANCH   9  11
ENDBRANCH   1   2
BRANCH   1  13
ATOM     13  C   UNL     1      -9.120  19.815  66.989  0.00  0.00    +0.102 C 
ATOM     14 CL   UNL     1     -10.538  19.427  65.858  0.00  0.00    -0.113 Cl
ATOM     15  C   UNL     1     -10.052  20.015  68.240  0.00  0.00    +0.019 C 
ENDBRANCH   1  13
BRANCH   1  17
ATOM     16  C   UNL     1     -10.555  16.716  66.435  0.00  0.00    +0.256 C 
ATOM     17  N   UNL     1      -9.619  17.691  66.194  0.00  0.00    -0.202 NA
ATOM     18  O   UNL     1     -10.699  16.371  67.605  0.00  0.00    -0.272 OA
BRANCH  16  23
ATOM     19  C   UNL     1     -11.266  13.193  65.899  0.00  0.00    +0.018 C 
ATOM     20  C   UNL     1     -10.339  13.727  64.668  0.00  0.00    +0.073 C 
ATOM     21  N   UNL     1      -9.645  14.758  65.437  0.00  0.00    -0.265 NA
ATOM     22  C   UNL     1      -9.486  14.176  66.718  0.00  0.00    +0.090 C 
ATOM     23  C   UNL     1     -10.975  15.607  65.354  0.00  0.00    +0.137 C 
ATOM     24  C   UNL     1     -11.692  14.654  66.475  0.00  0.00    +0.027 C 
BRANCH  19  25
ATOM     25  C   UNL     1     -12.586  13.070  64.949  0.00  0.00    +0.001 C 
BRANCH  25  27
ATOM     26  C   UNL     1     -12.419  11.854  63.438  0.00  0.00    +0.000 C 
ATOM     27  C   UNL     1     -12.008  12.130  63.891  0.00  0.00    +0.000 C 
ENDBRANCH  25  27
ENDBRANCH  19  25
ENDBRANCH  16  23
ENDBRANCH   1  17
TORSDOF 7
ENDMDL
MODEL 6
REMARK VINA RESULT:      -5.4      5.654      7.555
REMARK  Name = 
REMARK  7 active torsions:
REMARK  status: ('A' for Active; 'I' for Inactive)
REMARK    1  A    between atoms: C_2  and  C_3
REMARK    2  A    between atoms: C_3  and  C_4
REMARK    3  A    between atoms: C_6  and  C_7
REMARK    4  A    between atoms: N_9  and  C_10
REMARK    5  A    between atoms: C_10  and  C_11
REMARK    6  A    between atoms: C_10  and  C_14
REMARK    7  A    between atoms: C_16  and  S_17
REMARK                            x       y       z     vdW  Elec       q    Type
REMARK                         _______ _______ _______ _____ _____    ______ ____
ROOT
ATOM      1  C   UNL     1      -9.370  12.114  66.450  0.00  0.00    +0.140 C 
ENDROOT
BRANCH   1   2
ATOM      2  C   UNL     1     -11.039  12.329  66.692  0.00  0.00    +0.170 C 
ATOM      3  C   UNL     1     -11.520  11.544  65.235  0.00  0.00    +0.213 C 
ATOM      4  O   UNL     1     -10.387  11.932  64.354  0.00  0.00    -0.218 OA
ATOM      5  C   UNL     1     -12.627  12.794  64.890  0.00  0.00    +0.218 C 
ATOM      6  O   UNL     1     -13.157  12.040  63.706  0.00  0.00    -0.217 OA
ATOM      7  C   UNL     1     -11.617  13.772  63.925  0.00  0.00    +0.222 C 
ATOM      8  O   UNL     1     -12.521  14.941  64.204  0.00  0.00    -0.217 OA
ATOM      9  C   UNL     1     -10.438  14.074  65.117  0.00  0.00    +0.195 C 
ATOM     10  O   UNL     1     -11.184  13.742  66.301  0.00  0.00    -0.341 OA
BRANCH   9  11
ATOM     11  S   UNL     1     -10.646  15.975  65.302  0.00  0.00    -0.108 S 
ATOM     12  C   UNL     1     -10.398  16.462  67.017  0.00  0.00    +0.072 C 
ENDBRANCH   9  11
ENDBRANCH   1   2
BRANCH   1  13
ATOM     13  C   UNL     1      -8.996  12.831  67.890  0.00  0.00    +0.102 C 
ATOM     14 CL   UNL     1      -7.971  11.442  68.567  0.00  0.00    -0.113 Cl
ATOM     15  C   UNL     1      -7.742  13.631  67.379  0.00  0.00    +0.019 C 
ENDBRANCH   1  13
BRANCH   1  17
ATOM     16  C   UNL     1      -8.806   9.609  66.421  0.00  0.00    +0.256 C 
ATOM     17  N   UNL     1      -9.354  10.688  67.070  0.00  0.00    -0.202 NA
ATOM     18  O   UNL     1      -8.235   9.842  65.360  0.00  0.00    -0.272 OA
BRANCH  16  23
ATOM     19  C   UNL     1      -9.377   6.855  68.721  0.00  0.00    +0.018 C 
ATOM     20  C   UNL     1      -8.758   6.254  67.337  0.00  0.00    +0.073 C 
ATOM     21  N   UNL     1      -7.991   7.447  66.983  0.00  0.00    -0.265 NA
ATOM     22  C   UNL     1      -7.537   7.940  68.231  0.00  0.00    +0.090 C 
ATOM     23  C   UNL     1      -9.363   8.112  66.570  0.00  0.00    +0.137 C 
ATOM     24  C   UNL     1      -9.772   8.323  68.140  0.00  0.00    +0.027 C 
BRANCH  19  25
ATOM     25  C   UNL     1     -10.853   6.227  68.420  0.00  0.00    +0.001 C 
BRANCH  25  27
ATOM     26  C   UNL     1     -11.039   5.857  70.322  0.00  0.00    +0.000 C 
ATOM     27  C   UNL     1     -11.377   6.203  69.856  0.00  0.00    +0.000 C 
ENDBRANCH  25  27
ENDBRANCH  19  25
ENDBRANCH  16  23
ENDBRANCH   1  17
TORSDOF 7
ENDMDL
MODEL 7
REMARK VINA RESULT:      -5.4      3.430      7.282
REMARK  Name = 
REMARK  7 active torsions:
REMARK  status: ('A' for Active; 'I' for Inactive)
REMARK    1  A    between atoms: C_2  and  C_3
REMARK    2  A    between atoms: C_3  and  C_4
REMARK    3  A    between atoms: C_6  and  C_7
REMARK    4  A    between atoms: N_9  and  C_10
REMARK    5  A    between atoms: C_10  and  C_11
REMARK    6  A    between atoms: C_10  and  C_14
REMARK    7  A    between atoms: C_16  and  S_17
REMARK                            x       y       z     vdW  Elec       q    Type
REMARK                         _______ _______ _______ _____ _____    ______ ____
ROOT
ATOM      1  C   UNL     1     -10.998  14.651  68.184  0.00  0.00    +0.140 C 
ENDROOT
BRANCH   1   2
ATOM      2  C   UNL     1      -9.627  13.648  68.259  0.00  0.00    +0.170 C 
ATOM      3  C   UNL     1      -9.559  13.333  66.566  0.00  0.00    +0.213 C 
ATOM      4  O   UNL     1     -11.012  13.339  66.250  0.00  0.00    -0.218 OA
ATOM      5  C   UNL     1      -9.308  11.670  66.854  0.00  0.00    +0.218 C 
ATOM      6  O   UNL     1      -9.095  11.418  65.390  0.00  0.00    -0.217 OA
ATOM      7  C   UNL     1     -10.932  11.153  66.795  0.00  0.00    +0.222 C 
ATOM      8  O   UNL     1     -10.543   9.921  67.565  0.00  0.00    -0.217 OA
ATOM      9  C   UNL     1     -11.488  12.100  68.097  0.00  0.00    +0.195 C 
ATOM     10  O   UNL     1     -10.240  12.398  68.744  0.00  0.00    -0.341 OA
BRANCH   9  11
ATOM     11  S   UNL     1     -11.993  10.704  69.318  0.00  0.00    -0.108 S 
ATOM     12  C   UNL     1     -12.398  11.404  70.925  0.00  0.00    +0.072 C 
ENDBRANCH   9  11
ENDBRANCH   1   2
BRANCH   1  13
ATOM     13  C   UNL     1     -11.139  14.702  69.829  0.00  0.00    +0.102 C 
ATOM     14 CL   UNL     1     -10.873  16.528  70.015  0.00  0.00    -0.113 Cl
ATOM     15  C   UNL     1     -12.706  14.832  69.876  0.00  0.00    +0.019 C 
ENDBRANCH   1  13
BRANCH   1  17
ATOM     16  C   UNL     1     -10.094  16.753  67.017  0.00  0.00    +0.256 C 
ATOM     17  N   UNL     1     -10.166  15.965  68.140  0.00  0.00    -0.202 NA
ATOM     18  O   UNL     1     -10.802  16.422  66.070  0.00  0.00    -0.272 OA
BRANCH  16  23
ATOM     19  C   UNL     1      -8.174  19.758  67.709  0.00  0.00    +0.018 C 
ATOM     20  C   UNL     1      -8.278  19.572  66.093  0.00  0.00    +0.073 C 
ATOM     21  N   UNL     1      -9.568  18.884  66.102  0.00  0.00    -0.265 NA
ATOM     22  C   UNL     1     -10.280  19.514  67.153  0.00  0.00    +0.090 C 
ATOM     23  C   UNL     1      -8.796  17.606  66.618  0.00  0.00    +0.137 C 
ATOM     24  C   UNL     1      -8.651  18.256  68.114  0.00  0.00    +0.027 C 
BRANCH  19  25
ATOM     25  C   UNL     1      -6.590  19.368  67.726  0.00  0.00    +0.001 C 
BRANCH  25  27
ATOM     26  C   UNL     1      -5.703  20.879  68.575  0.00  0.00    +0.000 C 
ATOM     27  C   UNL     1      -6.024  20.763  67.997  0.00  0.00    +0.000 C 
ENDBRANCH  25  27
ENDBRANCH  19  25
ENDBRANCH  16  23
ENDBRANCH   1  17
TORSDOF 7
ENDMDL
MODEL 8
REMARK VINA RESULT:      -5.4      3.935      7.165
REMARK  Name = 
REMARK  7 active torsions:
REMARK  status: ('A' for Active; 'I' for Inactive)
REMARK    1  A    between atoms: C_2  and  C_3
REMARK    2  A    between atoms: C_3  and  C_4
REMARK    3  A    between atoms: C_6  and  C_7
REMARK    4  A    between atoms: N_9  and  C_10
REMARK    5  A    between atoms: C_10  and  C_11
REMARK    6  A    between atoms: C_10  and  C_14
REMARK    7  A    between atoms: C_16  and  S_17
REMARK                            x       y       z     vdW  Elec       q    Type
REMARK                         _______ _______ _______ _____ _____    ______ ____
ROOT
ATOM      1  C   UNL     1      -9.250  17.287  66.972  0.00  0.00    +0.140 C 
ENDROOT
BRANCH   1   2
ATOM      2  C   UNL     1      -9.511  16.293  68.325  0.00  0.00    +0.170 C 
ATOM      3  C   UNL     1      -8.098  15.331  68.099  0.00  0.00    +0.213 C 
ATOM      4  O   UNL     1      -8.034  15.324  66.614  0.00  0.00    -0.218 OA
ATOM      5  C   UNL     1      -8.988  13.903  68.381  0.00  0.00    +0.218 C 
ATOM      6  O   UNL     1      -7.735  13.078  68.338  0.00  0.00    -0.217 OA
ATOM      7  C   UNL     1      -9.392  13.531  66.767  0.00  0.00    +0.222 C 
ATOM      8  O   UNL     1     -10.523  12.677  67.271  0.00  0.00    -0.217 OA
ATOM      9  C   UNL     1     -10.272  14.955  66.451  0.00  0.00    +0.195 C 
ATOM     10  O   UNL     1     -10.545  15.387  67.794  0.00  0.00    -0.341 OA
BRANCH   9  11
ATOM     11  S   UNL     1     -12.013  14.198  66.150  0.00  0.00    -0.108 S 
ATOM     12  C   UNL     1     -12.257  13.882  64.396  0.00  0.00    +0.072 C 
ENDBRANCH   9  11
ENDBRANCH   1   2
BRANCH   1  13
ATOM     13  C   UNL     1     -10.500  18.288  67.376  0.00  0.00    +0.102 C 
ATOM     14 CL   UNL     1      -9.498  19.513  68.341  0.00  0.00    -0.113 Cl
ATOM     15  C   UNL     1     -10.473  19.157  66.066  0.00  0.00    +0.019 C 
ENDBRANCH   1  13
BRANCH   1  17
ATOM     16  C   UNL     1      -7.039  18.588  67.091  0.00  0.00    +0.256 C 
ATOM     17  N   UNL     1      -8.203  18.181  67.696  0.00  0.00    -0.202 NA
ATOM     18  O   UNL     1      -6.905  18.292  65.907  0.00  0.00    -0.272 OA
BRANCH  16  23
ATOM     19  C   UNL     1      -5.272  20.723  69.440  0.00  0.00    +0.018 C 
ATOM     20  C   UNL     1      -4.252  20.332  68.228  0.00  0.00    +0.073 C 
ATOM     21  N   UNL     1      -5.284  20.190  67.202  0.00  0.00    -0.265 NA
ATOM     22  C   UNL     1      -6.224  21.200  67.524  0.00  0.00    +0.090 C 
ATOM     23  C   UNL     1      -5.664  18.816  67.885  0.00  0.00    +0.137 C 
ATOM     24  C   UNL     1      -6.401  19.596  69.121  0.00  0.00    +0.027 C 
BRANCH  19  25
ATOM     25  C   UNL     1      -4.482  19.775  70.508  0.00  0.00    +0.001 C 
BRANCH  25  27
ATOM     26  C   UNL     1      -4.217  21.210  71.797  0.00  0.00    +0.000 C 
ATOM     27  C   UNL     1      -4.616  20.673  71.738  0.00  0.00    +0.000 C 
ENDBRANCH  25  27
ENDBRANCH  19  25
ENDBRANCH  16  23
ENDBRANCH   1  17
TORSDOF 7
ENDMDL
MODEL 9
REMARK VINA RESULT:      -5.4      4.812      6.730
REMARK  Name = 
REMARK  7 active torsions:
REMARK  status: ('A' for Active; 'I' for Inactive)
REMARK    1  A    between atoms: C_2  and  C_3
REMARK    2  A    between atoms: C_3  and  C_4
REMARK    3  A    between atoms: C_6  and  C_7
REMARK    4  A    between atoms: N_9  and  C_10
REMARK    5  A    between atoms: C_10  and  C_11
REMARK    6  A    between atoms: C_10  and  C_14
REMARK    7  A    between atoms: C_16  and  S_17
REMARK                            x       y       z     vdW  Elec       q    Type
REMARK                         _______ _______ _______ _____ _____    ______ ____
ROOT
ATOM      1  C   UNL     1     -10.478  12.320  65.699  0.00  0.00    +0.140 C 
ENDROOT
BRANCH   1   2
ATOM      2  C   UNL     1     -10.579  10.719  66.261  0.00  0.00    +0.170 C 
ATOM      3  C   UNL     1      -9.120  10.773  67.177  0.00  0.00    +0.213 C 
ATOM      4  O   UNL     1      -8.317  11.683  66.318  0.00  0.00    -0.218 OA
ATOM      5  C   UNL     1      -8.641   9.256  66.561  0.00  0.00    +0.218 C 
ATOM      6  O   UNL     1      -7.449   9.229  67.472  0.00  0.00    -0.217 OA
ATOM      7  C   UNL     1      -7.722   9.800  65.231  0.00  0.00    +0.222 C 
ATOM      8  O   UNL     1      -7.884   8.446  64.596  0.00  0.00    -0.217 OA
ATOM      9  C   UNL     1      -8.991  10.607  64.431  0.00  0.00    +0.195 C 
ATOM     10  O   UNL     1     -10.124   9.989  65.065  0.00  0.00    -0.341 OA
BRANCH   9  11
ATOM     11  S   UNL     1      -9.086   9.551  62.828  0.00  0.00    -0.108 S 
ATOM     12  C   UNL     1      -8.340  10.441  61.455  0.00  0.00    +0.072 C 
ENDBRANCH   9  11
ENDBRANCH   1   2
BRANCH   1  13
ATOM     13  C   UNL     1     -11.929  12.213  64.918  0.00  0.00    +0.102 C 
ATOM     14 CL   UNL     1     -12.646  13.797  65.565  0.00  0.00    -0.113 Cl
ATOM     15  C   UNL     1     -11.460  12.869  63.567  0.00  0.00    +0.019 C 
ENDBRANCH   1  13
BRANCH   1  17
ATOM     16  C   UNL     1     -10.524  13.914  67.713  0.00  0.00    +0.256 C 
ATOM     17  N   UNL     1     -11.128  12.924  66.977  0.00  0.00    -0.202 NA
ATOM     18  O   UNL     1      -9.481  14.376  67.256  0.00  0.00    -0.272 OA
BRANCH  16  23
ATOM     19  C   UNL     1     -12.550  15.278  70.401  0.00  0.00    +0.018 C 
ATOM     20  C   UNL     1     -10.980  15.544  70.752  0.00  0.00    +0.073 C 
ATOM     21  N   UNL     1     -10.527  15.625  69.364  0.00  0.00    -0.265 NA
ATOM     22  C   UNL     1     -11.596  16.271  68.696  0.00  0.00    +0.090 C 
ATOM     23  C   UNL     1     -10.679  14.054  69.303  0.00  0.00    +0.137 C 
ATOM     24  C   UNL     1     -12.309  14.181  69.224  0.00  0.00    +0.027 C 
BRANCH  19  25
ATOM     25  C   UNL     1     -12.695  14.146  71.567  0.00  0.00    +0.001 C 
BRANCH  25  27
ATOM     26  C   UNL     1     -14.286  15.148  72.071  0.00  0.00    +0.000 C 
ATOM     27  C   UNL     1     -14.103  14.503  72.045  0.00  0.00    +0.000 C 
ENDBRANCH  25  27
ENDBRANCH  19  25
ENDBRANCH  16  23
ENDBRANCH   1  17
TORSDOF 7
ENDMDL
