MODEL 1
REMARK VINA RESULT:      -6.9      0.000      0.000
REMARK  Name = 
REMARK  5 active torsions:
REMARK  status: ('A' for Active; 'I' for Inactive)
REMARK    1  A    between atoms: C_6  and  O_7
REMARK    2  A    between atoms: O_7  and  C_8
REMARK    3  A    between atoms: C_8  and  C_10
REMARK    4  A    between atoms: C_10  and  C_12
REMARK    5  A    between atoms: C_10  and  C_17
REMARK                            x       y       z     vdW  Elec       q    Type
REMARK                         _______ _______ _______ _____ _____    ______ ____
ROOT
ATOM      1  C   UNL     1     -10.337  17.712  65.814  0.00  0.00    +0.354 C 
ATOM      2  O   UNL     1     -11.023  18.377  64.986  0.00  0.00    -0.247 OA
ENDROOT
BRANCH   1   3
ATOM      3  C   UNL     1      -9.965  18.136  67.159  0.00  0.00    +0.263 C 
ATOM      4  O   UNL     1     -10.978  19.015  67.592  0.00  0.00    -0.204 OA
BRANCH   3   5
ATOM      5  C   UNL     1      -8.630  18.731  67.305  0.00  0.00    +0.049 A 
ATOM      6  S   UNL     1      -7.479  19.418  66.235  0.00  0.00    -0.088 S 
ATOM      7  C   UNL     1      -6.575  20.327  67.383  0.00  0.00    +0.035 A 
ATOM      8  C   UNL     1      -7.066  19.787  68.566  0.00  0.00    +0.007 A 
ATOM      9  C   UNL     1      -8.424  19.552  68.416  0.00  0.00    +0.006 A 
ENDBRANCH   3   5
BRANCH   3  10
ATOM     10  C   UNL     1     -10.006  16.898  68.003  0.00  0.00    +0.049 A 
ATOM     11  S   UNL     1     -11.362  16.162  68.735  0.00  0.00    -0.088 S 
ATOM     12  C   UNL     1     -10.529  15.220  69.907  0.00  0.00    +0.035 A 
ATOM     13  C   UNL     1      -9.223  15.363  69.533  0.00  0.00    +0.007 A 
ATOM     14  C   UNL     1      -8.976  16.225  68.544  0.00  0.00    +0.006 A 
ENDBRANCH   3  10
ENDBRANCH   1   3
BRANCH   1  15
ATOM     15  O   UNL     1     -10.139  16.395  65.525  0.00  0.00    -0.450 OA
BRANCH  15  23
ATOM     16  C   UNL     1     -11.235  11.430  64.645  0.00  0.00    +0.170 C 
ATOM     17  N   UNL     1     -11.532  12.160  64.491  0.00  0.00    +0.302 N 
ATOM     18  C   UNL     1     -10.124  12.906  64.464  0.00  0.00    +0.093 C 
ATOM     19  C   UNL     1      -9.722  12.005  65.902  0.00  0.00    +0.197 C 
ATOM     20  C   UNL     1     -11.127  12.211  66.784  0.00  0.00    +0.197 C 
ATOM     21  O   UNL     1      -9.859  13.257  66.986  0.00  0.00    -0.342 OA
ATOM     22  C   UNL     1     -10.544  14.257  65.047  0.00  0.00    +0.101 C 
ATOM     23  C   UNL     1     -11.015  15.470  64.884  0.00  0.00    +0.181 C 
ATOM     24  C   UNL     1     -11.155  14.281  65.300  0.00  0.00    +0.101 C 
ATOM     25  C   UNL     1     -12.078  13.118  65.644  0.00  0.00    +0.093 C 
ATOM     26  C   UNL     1     -12.255  12.613  63.313  0.00  0.00    +0.170 C 
ENDBRANCH  15  23
ENDBRANCH   1  15
TORSDOF 5
ENDMDL
MODEL 2
REMARK VINA RESULT:      -6.8      3.072      6.826
REMARK  Name = 
REMARK  5 active torsions:
REMARK  status: ('A' for Active; 'I' for Inactive)
REMARK    1  A    between atoms: C_6  and  O_7
REMARK    2  A    between atoms: O_7  and  C_8
REMARK    3  A    between atoms: C_8  and  C_10
REMARK    4  A    between atoms: C_10  and  C_12
REMARK    5  A    between atoms: C_10  and  C_17
REMARK                            x       y       z     vdW  Elec       q    Type
REMARK                         _______ _______ _______ _____ _____    ______ ____
ROOT
ATOM      1  C   UNL     1     -10.011  13.837  66.976  0.00  0.00    +0.354 C 
ATOM      2  O   UNL     1      -9.015  13.463  67.660  0.00  0.00    -0.247 OA
ENDROOT
BRANCH   1   3
ATOM      3  C   UNL     1     -11.346  13.250  67.009  0.00  0.00    +0.263 C 
ATOM      4  O   UNL     1     -12.253  14.329  67.038  0.00  0.00    -0.204 OA
BRANCH   3   5
ATOM      5  C   UNL     1     -11.607  12.292  68.091  0.00  0.00    +0.049 A 
ATOM      6  S   UNL     1     -11.129  10.681  68.433  0.00  0.00    -0.088 S 
ATOM      7  C   UNL     1     -11.436  10.678  70.126  0.00  0.00    +0.035 A 
ATOM      8  C   UNL     1     -12.172  11.851  70.245  0.00  0.00    +0.007 A 
ATOM      9  C   UNL     1     -11.632  12.802  69.392  0.00  0.00    +0.006 A 
ENDBRANCH   3   5
BRANCH   3  10
ATOM     10  C   UNL     1     -11.503  12.521  65.709  0.00  0.00    +0.049 A 
ATOM     11  S   UNL     1     -10.342  11.590  64.872  0.00  0.00    -0.088 S 
ATOM     12  C   UNL     1     -11.085  11.604  63.323  0.00  0.00    +0.035 A 
ATOM     13  C   UNL     1     -12.308  12.154  63.581  0.00  0.00    +0.007 A 
ATOM     14  C   UNL     1     -12.506  12.612  64.820  0.00  0.00    +0.006 A 
ENDBRANCH   3  10
ENDBRANCH   1   3
BRANCH   1  15
ATOM     15  O   UNL     1      -9.900  15.038  66.342  0.00  0.00    -0.450 OA
BRANCH  15  23
ATOM     16  C   UNL     1      -8.649  19.980  67.143  0.00  0.00    +0.170 C 
ATOM     17  N   UNL     1      -8.296  19.272  67.004  0.00  0.00    +0.302 N 
ATOM     18  C   UNL     1      -9.493  18.657  66.150  0.00  0.00    +0.093 C 
ATOM     19  C   UNL     1     -10.566  19.291  67.369  0.00  0.00    +0.197 C 
ATOM     20  C   UNL     1      -9.763  18.811  68.753  0.00  0.00    +0.197 C 
ATOM     21  O   UNL     1     -10.940  17.847  68.100  0.00  0.00    -0.342 OA
ATOM     22  C   UNL     1      -9.372  17.191  66.570  0.00  0.00    +0.101 C 
ATOM     23  C   UNL     1      -8.849  15.999  66.408  0.00  0.00    +0.181 C 
ATOM     24  C   UNL     1      -8.961  17.071  67.076  0.00  0.00    +0.101 C 
ATOM     25  C   UNL     1      -8.353  18.071  68.051  0.00  0.00    +0.093 C 
ATOM     26  C   UNL     1      -7.080  19.001  66.254  0.00  0.00    +0.170 C 
ENDBRANCH  15  23
ENDBRANCH   1  15
TORSDOF 5
ENDMDL
MODEL 3
REMARK VINA RESULT:      -6.7      2.558      6.290
REMARK  Name = 
REMARK  5 active torsions:
REMARK  status: ('A' for Active; 'I' for Inactive)
REMARK    1  A    between atoms: C_6  and  O_7
REMARK    2  A    between atoms: O_7  and  C_8
REMARK    3  A    between atoms: C_8  and  C_10
REMARK    4  A    between atoms: C_10  and  C_12
REMARK    5  A    between atoms: C_10  and  C_17
REMARK                            x       y       z     vdW  Elec       q    Type
REMARK                         _______ _______ _______ _____ _____    ______ ____
ROOT
ATOM      1  C   UNL     1     -10.985  15.557  65.019  0.00  0.00    +0.354 C 
ATOM      2  O   UNL     1     -11.516  16.396  64.236  0.00  0.00    -0.247 OA
ENDROOT
BRANCH   1   3
ATOM      3  C   UNL     1     -11.618  14.355  65.548  0.00  0.00    +0.263 C 
ATOM      4  O   UNL     1     -12.957  14.384  65.106  0.00  0.00    -0.204 OA
BRANCH   3   5
ATOM      5  C   UNL     1     -11.531  14.161  67.001  0.00  0.00    +0.049 A 
ATOM      6  S   UNL     1     -11.771  15.154  68.379  0.00  0.00    -0.088 S 
ATOM      7  C   UNL     1     -12.017  13.914  69.547  0.00  0.00    +0.035 A 
ATOM      8  C   UNL     1     -11.598  12.805  68.821  0.00  0.00    +0.007 A 
ATOM      9  C   UNL     1     -12.015  12.952  67.506  0.00  0.00    +0.006 A 
ENDBRANCH   3   5
BRANCH   3  10
ATOM     10  C   UNL     1     -10.918  13.202  64.893  0.00  0.00    +0.049 A 
ATOM     11  S   UNL     1     -11.398  12.322  63.510  0.00  0.00    -0.088 S 
ATOM     12  C   UNL     1     -10.437  10.921  63.765  0.00  0.00    +0.035 A 
ATOM     13  C   UNL     1      -9.630  11.294  64.802  0.00  0.00    +0.007 A 
ATOM     14  C   UNL     1      -9.889  12.477  65.363  0.00  0.00    +0.006 A 
ENDBRANCH   3  10
ENDBRANCH   1   3
BRANCH   1  15
ATOM     15  O   UNL     1      -9.636  15.647  65.187  0.00  0.00    -0.450 OA
BRANCH  15  23
ATOM     16  C   UNL     1      -7.955  19.639  67.992  0.00  0.00    +0.170 C 
ATOM     17  N   UNL     1      -7.952  18.835  68.004  0.00  0.00    +0.302 N 
ATOM     18  C   UNL     1      -7.973  18.648  66.422  0.00  0.00    +0.093 C 
ATOM     19  C   UNL     1      -9.201  19.885  66.384  0.00  0.00    +0.197 C 
ATOM     20  C   UNL     1     -10.189  19.362  67.626  0.00  0.00    +0.197 C 
ATOM     21  O   UNL     1     -10.496  18.894  66.069  0.00  0.00    -0.342 OA
ATOM     22  C   UNL     1      -8.811  17.371  66.331  0.00  0.00    +0.101 C 
ATOM     23  C   UNL     1      -8.895  16.062  66.332  0.00  0.00    +0.181 C 
ATOM     24  C   UNL     1      -9.101  17.179  66.895  0.00  0.00    +0.101 C 
ATOM     25  C   UNL     1      -9.287  17.980  68.177  0.00  0.00    +0.093 C 
ATOM     26  C   UNL     1      -6.919  17.942  68.505  0.00  0.00    +0.170 C 
ENDBRANCH  15  23
ENDBRANCH   1  15
TORSDOF 5
ENDMDL
MODEL 4
REMARK VINA RESULT:      -6.3      2.597      6.362
REMARK  Name = 
REMARK  5 active torsions:
REMARK  status: ('A' for Active; 'I' for Inactive)
REMARK    1  A    between atoms: C_6  and  O_7
REMARK    2  A    between atoms: O_7  and  C_8
REMARK    3  A    between atoms: C_8  and  C_10
REMARK    4  A    between atoms: C_10  and  C_12
REMARK    5  A    between atoms: C_10  and  C_17
REMARK                            x       y       z     vdW  Elec       q    Type
REMARK                         _______ _______ _______ _____ _____    ______ ____
ROOT
ATOM      1  C   UNL     1      -8.744  14.364  66.902  0.00  0.00    +0.354 C 
ATOM      2  O   UNL     1      -7.614  13.904  67.235  0.00  0.00    -0.247 OA
ENDROOT
BRANCH   1   3
ATOM      3  C   UNL     1     -10.040  13.800  67.260  0.00  0.00    +0.263 C 
ATOM      4  O   UNL     1      -9.780  12.542  67.839  0.00  0.00    -0.204 OA
BRANCH   3   5
ATOM      5  C   UNL     1     -11.028  13.706  66.178  0.00  0.00    +0.049 A 
ATOM      6  S   UNL     1     -11.407  14.640  64.789  0.00  0.00    -0.088 S 
ATOM      7  C   UNL     1     -12.250  13.436  63.895  0.00  0.00    +0.035 A 
ATOM      8  C   UNL     1     -12.428  12.475  64.882  0.00  0.00    +0.007 A 
ATOM      9  C   UNL     1     -11.287  12.431  65.669  0.00  0.00    +0.006 A 
ENDBRANCH   3   5
BRANCH   3  10
ATOM     10  C   UNL     1     -10.604  14.708  68.311  0.00  0.00    +0.049 A 
ATOM     11  S   UNL     1      -9.829  15.323  69.703  0.00  0.00    -0.088 S 
ATOM     12  C   UNL     1     -11.232  15.753  70.597  0.00  0.00    +0.035 A 
ATOM     13  C   UNL     1     -12.233  15.591  69.682  0.00  0.00    +0.007 A 
ATOM     14  C   UNL     1     -11.886  15.060  68.507  0.00  0.00    +0.006 A 
ENDBRANCH   3  10
ENDBRANCH   1   3
BRANCH   1  15
ATOM     15  O   UNL     1      -8.761  15.621  66.377  0.00  0.00    -0.450 OA
BRANCH  15  23
ATOM     16  C   UNL     1      -8.582  20.685  67.356  0.00  0.00    +0.170 C 
ATOM     17  N   UNL     1      -8.094  20.047  67.329  0.00  0.00    +0.302 N 
ATOM     18  C   UNL     1      -8.915  19.261  66.212  0.00  0.00    +0.093 C 
ATOM     19  C   UNL     1     -10.354  19.687  67.100  0.00  0.00    +0.197 C 
ATOM     20  C   UNL     1      -9.864  19.317  68.655  0.00  0.00    +0.197 C 
ATOM     21  O   UNL     1     -10.661  18.187  67.745  0.00  0.00    -0.342 OA
ATOM     22  C   UNL     1      -8.668  17.826  66.683  0.00  0.00    +0.101 C 
ATOM     23  C   UNL     1      -7.933  16.739  66.688  0.00  0.00    +0.181 C 
ATOM     24  C   UNL     1      -8.386  17.766  67.279  0.00  0.00    +0.101 C 
ATOM     25  C   UNL     1      -8.220  18.832  68.354  0.00  0.00    +0.093 C 
ATOM     26  C   UNL     1      -6.699  19.993  66.921  0.00  0.00    +0.170 C 
ENDBRANCH  15  23
ENDBRANCH   1  15
TORSDOF 5
ENDMDL
MODEL 5
REMARK VINA RESULT:      -6.3      2.631      6.648
REMARK  Name = 
REMARK  5 active torsions:
REMARK  status: ('A' for Active; 'I' for Inactive)
REMARK    1  A    between atoms: C_6  and  O_7
REMARK    2  A    between atoms: O_7  and  C_8
REMARK    3  A    between atoms: C_8  and  C_10
REMARK    4  A    between atoms: C_10  and  C_12
REMARK    5  A    between atoms: C_10  and  C_17
REMARK                            x       y       z     vdW  Elec       q    Type
REMARK                         _______ _______ _______ _____ _____    ______ ____
ROOT
ATOM      1  C   UNL     1      -9.800  15.448  65.865  0.00  0.00    +0.354 C 
ATOM      2  O   UNL     1     -10.474  16.154  65.062  0.00  0.00    -0.247 OA
ENDROOT
BRANCH   1   3
ATOM      3  C   UNL     1     -10.167  14.128  66.366  0.00  0.00    +0.263 C 
ATOM      4  O   UNL     1      -8.966  13.507  66.766  0.00  0.00    -0.204 OA
BRANCH   3   5
ATOM      5  C   UNL     1     -10.938  13.278  65.450  0.00  0.00    +0.049 A 
ATOM      6  S   UNL     1     -12.543  13.284  64.842  0.00  0.00    -0.088 S 
ATOM      7  C   UNL     1     -12.292  12.302  63.452  0.00  0.00    +0.035 A 
ATOM      8  C   UNL     1     -11.027  11.799  63.730  0.00  0.00    +0.007 A 
ATOM      9  C   UNL     1     -10.270  12.800  64.320  0.00  0.00    +0.006 A 
ENDBRANCH   3   5
BRANCH   3  10
ATOM     10  C   UNL     1     -11.012  14.372  67.579  0.00  0.00    +0.049 A 
ATOM     11  S   UNL     1     -11.295  15.847  68.391  0.00  0.00    -0.088 S 
ATOM     12  C   UNL     1     -11.840  15.205  69.889  0.00  0.00    +0.035 A 
ATOM     13  C   UNL     1     -11.976  13.874  69.612  0.00  0.00    +0.007 A 
ATOM     14  C   UNL     1     -11.552  13.468  68.413  0.00  0.00    +0.006 A 
ENDBRANCH   3  10
ENDBRANCH   1   3
BRANCH   1  15
ATOM     15  O   UNL     1      -8.513  15.837  66.089  0.00  0.00    -0.450 OA
BRANCH  15  23
ATOM     16  C   UNL     1      -6.529  20.146  68.121  0.00  0.00    +0.170 C 
ATOM     17  N   UNL     1      -6.723  19.397  68.338  0.00  0.00    +0.302 N 
ATOM     18  C   UNL     1      -6.464  18.740  66.910  0.00  0.00    +0.093 C 
ATOM     19  C   UNL     1      -7.323  20.097  66.232  0.00  0.00    +0.197 C 
ATOM     20  C   UNL     1      -8.641  20.159  67.259  0.00  0.00    +0.197 C 
ATOM     21  O   UNL     1      -8.727  19.295  65.849  0.00  0.00    -0.342 OA
ATOM     22  C   UNL     1      -7.548  17.660  66.931  0.00  0.00    +0.101 C 
ATOM     23  C   UNL     1      -7.944  16.450  67.244  0.00  0.00    +0.181 C 
ATOM     24  C   UNL     1      -7.986  17.704  67.427  0.00  0.00    +0.101 C 
ATOM     25  C   UNL     1      -8.231  18.879  68.364  0.00  0.00    +0.093 C 
ATOM     26  C   UNL     1      -6.060  18.538  69.308  0.00  0.00    +0.170 C 
ENDBRANCH  15  23
ENDBRANCH   1  15
TORSDOF 5
ENDMDL
MODEL 6
REMARK VINA RESULT:      -6.3      2.210      3.204
REMARK  Name = 
REMARK  5 active torsions:
REMARK  status: ('A' for Active; 'I' for Inactive)
REMARK    1  A    between atoms: C_6  and  O_7
REMARK    2  A    between atoms: O_7  and  C_8
REMARK    3  A    between atoms: C_8  and  C_10
REMARK    4  A    between atoms: C_10  and  C_12
REMARK    5  A    between atoms: C_10  and  C_17
REMARK                            x       y       z     vdW  Elec       q    Type
REMARK                         _______ _______ _______ _____ _____    ______ ____
ROOT
ATOM      1  C   UNL     1      -7.232  16.337  67.218  0.00  0.00    +0.354 C 
ATOM      2  O   UNL     1      -6.187  16.569  66.546  0.00  0.00    -0.247 OA
ENDROOT
BRANCH   1   3
ATOM      3  C   UNL     1      -7.823  17.215  68.222  0.00  0.00    +0.263 C 
ATOM      4  O   UNL     1      -8.593  16.390  69.066  0.00  0.00    -0.204 OA
BRANCH   3   5
ATOM      5  C   UNL     1      -8.603  18.350  67.713  0.00  0.00    +0.049 A 
ATOM      6  S   UNL     1      -8.615  19.268  66.263  0.00  0.00    -0.088 S 
ATOM      7  C   UNL     1     -10.203  19.919  66.387  0.00  0.00    +0.035 A 
ATOM      8  C   UNL     1     -10.496  19.602  67.708  0.00  0.00    +0.007 A 
ATOM      9  C   UNL     1      -9.972  18.350  67.992  0.00  0.00    +0.006 A 
ENDBRANCH   3   5
BRANCH   3  10
ATOM     10  C   UNL     1      -6.672  17.770  69.006  0.00  0.00    +0.049 A 
ATOM     11  S   UNL     1      -5.637  16.949  70.088  0.00  0.00    -0.088 S 
ATOM     12  C   UNL     1      -5.029  18.316  70.933  0.00  0.00    +0.035 A 
ATOM     13  C   UNL     1      -5.501  19.361  70.191  0.00  0.00    +0.007 A 
ATOM     14  C   UNL     1      -6.339  19.057  69.197  0.00  0.00    +0.006 A 
ENDBRANCH   3  10
ENDBRANCH   1   3
BRANCH   1  15
ATOM     15  O   UNL     1      -8.010  15.299  66.798  0.00  0.00    -0.450 OA
BRANCH  15  23
ATOM     16  C   UNL     1     -12.285  12.685  65.566  0.00  0.00    +0.170 C 
ATOM     17  N   UNL     1     -11.967  13.418  65.480  0.00  0.00    +0.302 N 
ATOM     18  C   UNL     1     -10.448  12.937  65.467  0.00  0.00    +0.093 C 
ATOM     19  C   UNL     1     -10.857  11.911  66.816  0.00  0.00    +0.197 C 
ATOM     20  C   UNL     1     -11.725  12.987  67.756  0.00  0.00    +0.197 C 
ATOM     21  O   UNL     1     -10.098  12.797  67.999  0.00  0.00    -0.342 OA
ATOM     22  C   UNL     1      -9.800  14.134  66.167  0.00  0.00    +0.101 C 
ATOM     23  C   UNL     1      -9.261  15.328  66.115  0.00  0.00    +0.181 C 
ATOM     24  C   UNL     1     -10.220  14.566  66.441  0.00  0.00    +0.101 C 
ATOM     25  C   UNL     1     -11.707  14.386  66.721  0.00  0.00    +0.093 C 
ATOM     26  C   UNL     1     -12.111  14.340  64.364  0.00  0.00    +0.170 C 
ENDBRANCH  15  23
ENDBRANCH   1  15
TORSDOF 5
ENDMDL
MODEL 7
REMARK VINA RESULT:      -6.1      2.980      6.221
REMARK  Name = 
REMARK  5 active torsions:
REMARK  status: ('A' for Active; 'I' for Inactive)
REMARK    1  A    between atoms: C_6  and  O_7
REMARK    2  A    between atoms: O_7  and  C_8
REMARK    3  A    between atoms: C_8  and  C_10
REMARK    4  A    between atoms: C_10  and  C_12
REMARK    5  A    between atoms: C_10  and  C_17
REMARK                            x       y       z     vdW  Elec       q    Type
REMARK                         _______ _______ _______ _____ _____    ______ ____
ROOT
ATOM      1  C   UNL     1      -8.758  15.784  66.269  0.00  0.00    +0.354 C 
ATOM      2  O   UNL     1      -8.391  14.715  66.836  0.00  0.00    -0.247 OA
ENDROOT
BRANCH   1   3
ATOM      3  C   UNL     1     -10.105  16.342  66.275  0.00  0.00    +0.263 C 
ATOM      4  O   UNL     1     -10.491  16.464  64.925  0.00  0.00    -0.204 OA
BRANCH   3   5
ATOM      5  C   UNL     1     -10.281  17.604  67.006  0.00  0.00    +0.049 A 
ATOM      6  S   UNL     1      -9.621  18.287  68.434  0.00  0.00    -0.088 S 
ATOM      7  C   UNL     1      -9.977  19.940  68.115  0.00  0.00    +0.035 A 
ATOM      8  C   UNL     1     -10.853  19.801  67.045  0.00  0.00    +0.007 A 
ATOM      9  C   UNL     1     -10.407  18.765  66.238  0.00  0.00    +0.006 A 
ENDBRANCH   3   5
BRANCH   3  10
ATOM     10  C   UNL     1     -10.971  15.312  66.935  0.00  0.00    +0.049 A 
ATOM     11  S   UNL     1     -11.281  15.100  68.601  0.00  0.00    -0.088 S 
ATOM     12  C   UNL     1     -11.842  13.477  68.543  0.00  0.00    +0.035 A 
ATOM     13  C   UNL     1     -11.961  13.248  67.202  0.00  0.00    +0.007 A 
ATOM     14  C   UNL     1     -11.515  14.210  66.391  0.00  0.00    +0.006 A 
ENDBRANCH   3  10
ENDBRANCH   1   3
BRANCH   1  15
ATOM     15  O   UNL     1      -7.769  16.610  65.824  0.00  0.00    -0.450 OA
BRANCH  15  23
ATOM     16  C   UNL     1      -4.271  20.368  66.336  0.00  0.00    +0.170 C 
ATOM     17  N   UNL     1      -4.461  19.658  66.660  0.00  0.00    +0.302 N 
ATOM     18  C   UNL     1      -5.092  19.038  65.336  0.00  0.00    +0.093 C 
ATOM     19  C   UNL     1      -5.909  20.563  65.120  0.00  0.00    +0.197 C 
ATOM     20  C   UNL     1      -6.482  20.816  66.670  0.00  0.00    +0.197 C 
ATOM     21  O   UNL     1      -7.432  20.055  65.547  0.00  0.00    -0.342 OA
ATOM     22  C   UNL     1      -6.193  18.178  65.961  0.00  0.00    +0.101 C 
ATOM     23  C   UNL     1      -6.590  17.047  66.495  0.00  0.00    +0.181 C 
ATOM     24  C   UNL     1      -6.300  18.277  66.608  0.00  0.00    +0.101 C 
ATOM     25  C   UNL     1      -5.811  19.428  67.477  0.00  0.00    +0.093 C 
ATOM     26  C   UNL     1      -3.570  18.643  67.200  0.00  0.00    +0.170 C 
ENDBRANCH  15  23
ENDBRANCH   1  15
TORSDOF 5
ENDMDL
MODEL 8
REMARK VINA RESULT:      -6.1      2.734      6.461
REMARK  Name = 
REMARK  5 active torsions:
REMARK  status: ('A' for Active; 'I' for Inactive)
REMARK    1  A    between atoms: C_6  and  O_7
REMARK    2  A    between atoms: O_7  and  C_8
REMARK    3  A    between atoms: C_8  and  C_10
REMARK    4  A    between atoms: C_10  and  C_12
REMARK    5  A    between atoms: C_10  and  C_17
REMARK                            x       y       z     vdW  Elec       q    Type
REMARK                         _______ _______ _______ _____ _____    ______ ____
ROOT
ATOM      1  C   UNL     1      -8.992  13.832  67.365  0.00  0.00    +0.354 C 
ATOM      2  O   UNL     1      -8.029  13.731  68.179  0.00  0.00    -0.247 OA
ENDROOT
BRANCH   1   3
ATOM      3  C   UNL     1     -10.022  12.829  67.123  0.00  0.00    +0.263 C 
ATOM      4  O   UNL     1      -9.389  11.575  67.238  0.00  0.00    -0.204 OA
BRANCH   3   5
ATOM      5  C   UNL     1     -10.760  12.950  65.859  0.00  0.00    +0.049 A 
ATOM      6  S   UNL     1     -10.349  12.874  64.195  0.00  0.00    -0.088 S 
ATOM      7  C   UNL     1     -11.912  12.536  63.561  0.00  0.00    +0.035 A 
ATOM      8  C   UNL     1     -12.694  12.802  64.679  0.00  0.00    +0.007 A 
ATOM      9  C   UNL     1     -12.023  12.354  65.807  0.00  0.00    +0.006 A 
ENDBRANCH   3   5
BRANCH   3  10
ATOM     10  C   UNL     1     -11.008  12.977  68.241  0.00  0.00    +0.049 A 
ATOM     11  S   UNL     1     -11.730  14.408  68.831  0.00  0.00    -0.088 S 
ATOM     12  C   UNL     1     -12.228  13.819  70.367  0.00  0.00    +0.035 A 
ATOM     13  C   UNL     1     -11.995  12.477  70.263  0.00  0.00    +0.007 A 
ATOM     14  C   UNL     1     -11.374  12.063  69.156  0.00  0.00    +0.006 A 
ENDBRANCH   3  10
ENDBRANCH   1   3
BRANCH   1  15
ATOM     15  O   UNL     1      -9.231  15.073  66.855  0.00  0.00    -0.450 OA
BRANCH  15  23
ATOM     16  C   UNL     1      -8.856  20.217  67.007  0.00  0.00    +0.170 C 
ATOM     17  N   UNL     1      -8.385  19.569  66.950  0.00  0.00    +0.302 N 
ATOM     18  C   UNL     1      -9.455  18.654  66.205  0.00  0.00    +0.093 C 
ATOM     19  C   UNL     1     -10.625  19.244  67.356  0.00  0.00    +0.197 C 
ATOM     20  C   UNL     1      -9.753  19.087  68.773  0.00  0.00    +0.197 C 
ATOM     21  O   UNL     1     -10.745  17.861  68.269  0.00  0.00    -0.342 OA
ATOM     22  C   UNL     1      -9.084  17.295  66.802  0.00  0.00    +0.101 C 
ATOM     23  C   UNL     1      -8.362  16.200  66.779  0.00  0.00    +0.181 C 
ATOM     24  C   UNL     1      -8.659  17.313  67.310  0.00  0.00    +0.101 C 
ATOM     25  C   UNL     1      -8.235  18.518  68.140  0.00  0.00    +0.093 C 
ATOM     26  C   UNL     1      -7.138  19.418  66.216  0.00  0.00    +0.170 C 
ENDBRANCH  15  23
ENDBRANCH   1  15
TORSDOF 5
ENDMDL
MODEL 9
REMARK VINA RESULT:      -6.1      2.771      6.607
REMARK  Name = 
REMARK  5 active torsions:
REMARK  status: ('A' for Active; 'I' for Inactive)
REMARK    1  A    between atoms: C_6  and  O_7
REMARK    2  A    between atoms: O_7  and  C_8
REMARK    3  A    between atoms: C_8  and  C_10
REMARK    4  A    between atoms: C_10  and  C_12
REMARK    5  A    between atoms: C_10  and  C_17
REMARK                            x       y       z     vdW  Elec       q    Type
REMARK                         _______ _______ _______ _____ _____    ______ ____
ROOT
ATOM      1  C   UNL     1     -10.781  14.729  67.625  0.00  0.00    +0.354 C 
ATOM      2  O   UNL     1     -11.551  15.317  68.438  0.00  0.00    -0.247 OA
ENDROOT
BRANCH   1   3
ATOM      3  C   UNL     1     -10.798  13.307  67.300  0.00  0.00    +0.263 C 
ATOM      4  O   UNL     1     -11.921  12.764  67.956  0.00  0.00    -0.204 OA
BRANCH   3   5
ATOM      5  C   UNL     1      -9.574  12.557  67.608  0.00  0.00    +0.049 A 
ATOM      6  S   UNL     1      -7.966  12.972  68.037  0.00  0.00    -0.088 S 
ATOM      7  C   UNL     1      -7.497  11.476  68.746  0.00  0.00    +0.035 A 
ATOM      8  C   UNL     1      -8.544  10.666  68.326  0.00  0.00    +0.007 A 
ATOM      9  C   UNL     1      -9.720  11.399  68.375  0.00  0.00    +0.006 A 
ENDBRANCH   3   5
BRANCH   3  10
ATOM     10  C   UNL     1     -11.019  13.229  65.820  0.00  0.00    +0.049 A 
ATOM     11  S   UNL     1     -12.407  13.678  64.932  0.00  0.00    -0.088 S 
ATOM     12  C   UNL     1     -12.082  12.790  63.498  0.00  0.00    +0.035 A 
ATOM     13  C   UNL     1     -10.803  12.354  63.699  0.00  0.00    +0.007 A 
ATOM     14  C   UNL     1     -10.270  12.599  64.898  0.00  0.00    +0.006 A 
ENDBRANCH   3  10
ENDBRANCH   1   3
BRANCH   1  15
ATOM     15  O   UNL     1     -10.042  15.523  66.801  0.00  0.00    -0.450 OA
BRANCH  15  23
ATOM     16  C   UNL     1      -8.098  20.281  67.259  0.00  0.00    +0.170 C 
ATOM     17  N   UNL     1      -7.879  19.516  67.364  0.00  0.00    +0.302 N 
ATOM     18  C   UNL     1      -8.831  18.916  66.236  0.00  0.00    +0.093 C 
ATOM     19  C   UNL     1     -10.083  19.948  66.875  0.00  0.00    +0.197 C 
ATOM     20  C   UNL     1      -9.901  19.661  68.511  0.00  0.00    +0.197 C 
ATOM     21  O   UNL     1     -10.976  18.765  67.626  0.00  0.00    -0.342 OA
ATOM     22  C   UNL     1      -9.171  17.572  66.883  0.00  0.00    +0.101 C 
ATOM     23  C   UNL     1      -8.891  16.309  67.100  0.00  0.00    +0.181 C 
ATOM     24  C   UNL     1      -8.984  17.504  67.515  0.00  0.00    +0.101 C 
ATOM     25  C   UNL     1      -8.531  18.587  68.485  0.00  0.00    +0.093 C 
ATOM     26  C   UNL     1      -6.571  18.913  67.155  0.00  0.00    +0.170 C 
ENDBRANCH  15  23
ENDBRANCH   1  15
TORSDOF 5
ENDMDL
