MODEL 1
REMARK VINA RESULT:      -7.6      0.000      0.000
REMARK  Name = 
REMARK  2 active torsions:
REMARK  status: ('A' for Active; 'I' for Inactive)
REMARK    1  A    between atoms: C_6  and  N_7
REMARK    2  A    between atoms: C_20  and  C_21
REMARK                            x       y       z     vdW  Elec       q    Type
REMARK                         _______ _______ _______ _____ _____    ______ ____
ROOT
ATOM      1  C   UNL     1      -9.923  14.453  68.707  0.00  0.00    +0.028 C 
ATOM      2  C   UNL     1     -11.437  14.853  68.153  0.00  0.00    +0.129 C 
ATOM      3  N   UNL     1     -12.175  14.180  69.380  0.00  0.00    -0.321 N 
ATOM      4  C   UNL     1     -11.866  12.964  69.738  0.00  0.00    +0.099 A 
ATOM      5  C   UNL     1     -12.481  12.491  70.894  0.00  0.00    +0.060 A 
ATOM      6  C   UNL     1     -13.105  13.336  71.776  0.00  0.00    +0.205 A 
ATOM      7  C   UNL     1     -13.326  14.648  71.382  0.00  0.00    +0.136 A 
ATOM      8  O   UNL     1     -13.758  12.897  72.748  0.00  0.00    -0.286 OA
ATOM      9  C   UNL     1     -12.726  11.135  71.078  0.00  0.00    +0.036 A 
ATOM     10  C   UNL     1     -11.968  10.219  70.407  0.00  0.00    +0.157 A 
ATOM     11  F   UNL     1     -12.125   8.900  70.652  0.00  0.00    -0.203 F 
ATOM     12  C   UNL     1     -11.240  10.689  69.335  0.00  0.00    +0.112 A 
ATOM     13  C   UNL     1     -11.146  12.041  69.024  0.00  0.00    +0.170 A 
ATOM     14  O   UNL     1     -10.846  12.487  67.734  0.00  0.00    -0.471 OA
ATOM     15  C   UNL     1     -12.829  15.080  70.158  0.00  0.00    +0.086 A 
ATOM     16  C   UNL     1     -11.585  13.517  67.186  0.00  0.00    +0.228 C 
ENDROOT
BRANCH  12  17
ATOM     17  N   UNL     1     -10.355   9.829  68.651  0.00  0.00    -0.301 N 
ATOM     18  C   UNL     1     -10.673   9.116  67.451  0.00  0.00    +0.108 C 
ATOM     19  C   UNL     1     -10.277   7.685  67.435  0.00  0.00    +0.094 C 
ATOM     20  N   UNL     1      -9.869   7.117  68.657  0.00  0.00    -0.269 NA
ATOM     21  C   UNL     1     -10.708   6.093  69.193  0.00  0.00    +0.090 C 
ATOM     22  C   UNL     1      -9.147   7.900  69.572  0.00  0.00    +0.094 C 
ATOM     23  C   UNL     1      -9.178   9.379  69.382  0.00  0.00    +0.108 C 
ENDBRANCH  12  17
BRANCH   7  24
ATOM     24  C   UNL     1     -14.340  15.461  72.066  0.00  0.00    +0.392 C 
ATOM     25  O   UNL     1     -14.023  16.264  73.157  0.00  0.00    -0.240 OA
ATOM     26  O   UNL     1     -15.397  15.729  71.462  0.00  0.00    -0.240 OA
ENDBRANCH   7  24
TORSDOF 2
ENDMDL
MODEL 2
REMARK VINA RESULT:      -7.5      5.527      8.909
REMARK  Name = 
REMARK  2 active torsions:
REMARK  status: ('A' for Active; 'I' for Inactive)
REMARK    1  A    between atoms: C_6  and  N_7
REMARK    2  A    between atoms: C_20  and  C_21
REMARK                            x       y       z     vdW  Elec       q    Type
REMARK                         _______ _______ _______ _____ _____    ______ ____
ROOT
ATOM      1  C   UNL     1      -7.753  13.825  67.657  0.00  0.00    +0.028 C 
ATOM      2  C   UNL     1      -9.272  13.723  68.321  0.00  0.00    +0.129 C 
ATOM      3  N   UNL     1      -9.912  14.711  67.263  0.00  0.00    -0.321 N 
ATOM      4  C   UNL     1      -9.338  15.857  67.014  0.00  0.00    +0.099 A 
ATOM      5  C   UNL     1      -9.903  16.613  65.990  0.00  0.00    +0.060 A 
ATOM      6  C   UNL     1     -10.783  16.067  65.090  0.00  0.00    +0.205 A 
ATOM      7  C   UNL     1     -11.291  14.803  65.355  0.00  0.00    +0.136 A 
ATOM      8  O   UNL     1     -11.378  16.774  64.249  0.00  0.00    -0.286 OA
ATOM      9  C   UNL     1      -9.818  18.001  65.987  0.00  0.00    +0.036 A 
ATOM     10  C   UNL     1      -8.808  18.613  66.672  0.00  0.00    +0.157 A 
ATOM     11  F   UNL     1      -8.651  19.952  66.595  0.00  0.00    -0.203 F 
ATOM     12  C   UNL     1      -8.140  17.843  67.601  0.00  0.00    +0.112 A 
ATOM     13  C   UNL     1      -8.361  16.478  67.746  0.00  0.00    +0.170 A 
ATOM     14  O   UNL     1      -8.083  15.803  68.938  0.00  0.00    -0.471 OA
ATOM     15  C   UNL     1     -10.826  14.105  66.463  0.00  0.00    +0.086 A 
ATOM     16  C   UNL     1      -9.011  14.913  69.442  0.00  0.00    +0.228 C 
ENDROOT
BRANCH  12  17
ATOM     17  N   UNL     1      -7.020  18.369  68.279  0.00  0.00    -0.301 N 
ATOM     18  C   UNL     1      -7.067  19.450  69.217  0.00  0.00    +0.108 C 
ATOM     19  C   UNL     1      -6.027  20.495  69.038  0.00  0.00    +0.094 C 
ATOM     20  N   UNL     1      -5.277  20.459  67.847  0.00  0.00    -0.269 NA
ATOM     21  C   UNL     1      -5.454  21.556  66.951  0.00  0.00    +0.090 C 
ATOM     22  C   UNL     1      -4.942  19.216  67.284  0.00  0.00    +0.094 C 
ATOM     23  C   UNL     1      -5.708  18.025  67.749  0.00  0.00    +0.108 C 
ENDBRANCH  12  17
BRANCH   7  24
ATOM     24  C   UNL     1     -12.524  14.353  64.697  0.00  0.00    +0.392 C 
ATOM     25  O   UNL     1     -12.521  13.851  63.399  0.00  0.00    -0.240 OA
ATOM     26  O   UNL     1     -13.510  14.069  65.404  0.00  0.00    -0.240 OA
ENDBRANCH   7  24
TORSDOF 2
ENDMDL
MODEL 3
REMARK VINA RESULT:      -7.4      0.998      1.842
REMARK  Name = 
REMARK  2 active torsions:
REMARK  status: ('A' for Active; 'I' for Inactive)
REMARK    1  A    between atoms: C_6  and  N_7
REMARK    2  A    between atoms: C_20  and  C_21
REMARK                            x       y       z     vdW  Elec       q    Type
REMARK                         _______ _______ _______ _____ _____    ______ ____
ROOT
ATOM      1  C   UNL     1      -9.909  14.408  68.709  0.00  0.00    +0.028 C 
ATOM      2  C   UNL     1     -11.426  14.742  68.119  0.00  0.00    +0.129 C 
ATOM      3  N   UNL     1     -12.163  14.083  69.354  0.00  0.00    -0.321 N 
ATOM      4  C   UNL     1     -11.820  12.888  69.754  0.00  0.00    +0.099 A 
ATOM      5  C   UNL     1     -12.439  12.431  70.914  0.00  0.00    +0.060 A 
ATOM      6  C   UNL     1     -13.106  13.281  71.760  0.00  0.00    +0.205 A 
ATOM      7  C   UNL     1     -13.362  14.573  71.322  0.00  0.00    +0.136 A 
ATOM      8  O   UNL     1     -13.760  12.851  72.734  0.00  0.00    -0.286 OA
ATOM      9  C   UNL     1     -12.644  11.074  71.137  0.00  0.00    +0.036 A 
ATOM     10  C   UNL     1     -11.845  10.163  70.507  0.00  0.00    +0.157 A 
ATOM     11  F   UNL     1     -11.963   8.848  70.790  0.00  0.00    -0.203 F 
ATOM     12  C   UNL     1     -11.114  10.624  69.432  0.00  0.00    +0.112 A 
ATOM     13  C   UNL     1     -11.059  11.968  69.081  0.00  0.00    +0.170 A 
ATOM     14  O   UNL     1     -10.751  12.385  67.783  0.00  0.00    -0.471 OA
ATOM     15  C   UNL     1     -12.859  14.983  70.093  0.00  0.00    +0.086 A 
ATOM     16  C   UNL     1     -11.514  13.373  67.192  0.00  0.00    +0.228 C 
ENDROOT
BRANCH  12  17
ATOM     17  N   UNL     1     -10.191   9.773  68.790  0.00  0.00    -0.301 N 
ATOM     18  C   UNL     1      -8.767   9.922  68.846  0.00  0.00    +0.108 C 
ATOM     19  C   UNL     1      -8.062   9.798  67.545  0.00  0.00    +0.094 C 
ATOM     20  N   UNL     1      -8.854   9.801  66.381  0.00  0.00    -0.269 NA
ATOM     21  C   UNL     1      -8.687  10.914  65.502  0.00  0.00    +0.090 C 
ATOM     22  C   UNL     1     -10.117   9.186  66.408  0.00  0.00    +0.094 C 
ATOM     23  C   UNL     1     -10.713   8.904  67.745  0.00  0.00    +0.108 C 
ENDBRANCH  12  17
BRANCH   7  24
ATOM     24  C   UNL     1     -14.413  15.372  71.964  0.00  0.00    +0.392 C 
ATOM     25  O   UNL     1     -14.137  16.240  73.016  0.00  0.00    -0.240 OA
ATOM     26  O   UNL     1     -15.479  15.564  71.346  0.00  0.00    -0.240 OA
ENDBRANCH   7  24
TORSDOF 2
ENDMDL
MODEL 4
REMARK VINA RESULT:      -7.4      1.782      2.091
REMARK  Name = 
REMARK  2 active torsions:
REMARK  status: ('A' for Active; 'I' for Inactive)
REMARK    1  A    between atoms: C_6  and  N_7
REMARK    2  A    between atoms: C_20  and  C_21
REMARK                            x       y       z     vdW  Elec       q    Type
REMARK                         _______ _______ _______ _____ _____    ______ ____
ROOT
ATOM      1  C   UNL     1      -9.218  15.832  68.991  0.00  0.00    +0.028 C 
ATOM      2  C   UNL     1     -10.697  16.497  68.632  0.00  0.00    +0.129 C 
ATOM      3  N   UNL     1     -11.501  15.403  69.445  0.00  0.00    -0.321 N 
ATOM      4  C   UNL     1     -11.244  14.136  69.260  0.00  0.00    +0.099 A 
ATOM      5  C   UNL     1     -11.916  13.248  70.096  0.00  0.00    +0.060 A 
ATOM      6  C   UNL     1     -12.543  13.669  71.242  0.00  0.00    +0.205 A 
ATOM      7  C   UNL     1     -12.705  15.033  71.436  0.00  0.00    +0.136 A 
ATOM      8  O   UNL     1     -13.243  12.891  71.925  0.00  0.00    -0.286 OA
ATOM      9  C   UNL     1     -12.212  11.954  69.685  0.00  0.00    +0.036 A 
ATOM     10  C   UNL     1     -11.462  11.373  68.704  0.00  0.00    +0.157 A 
ATOM     11  F   UNL     1     -11.671  10.082  68.365  0.00  0.00    -0.203 F 
ATOM     12  C   UNL     1     -10.681  12.218  67.944  0.00  0.00    +0.112 A 
ATOM     13  C   UNL     1     -10.532  13.569  68.236  0.00  0.00    +0.170 A 
ATOM     14  O   UNL     1     -10.171  14.504  67.262  0.00  0.00    -0.471 OA
ATOM     15  C   UNL     1     -12.151  15.918  70.519  0.00  0.00    +0.086 A 
ATOM     16  C   UNL     1     -10.855  15.701  67.188  0.00  0.00    +0.228 C 
ENDROOT
BRANCH  12  17
ATOM     17  N   UNL     1      -9.802  11.688  66.977  0.00  0.00    -0.301 N 
ATOM     18  C   UNL     1     -10.188  11.276  65.661  0.00  0.00    +0.108 C 
ATOM     19  C   UNL     1      -9.652   9.963  65.221  0.00  0.00    +0.094 C 
ATOM     20  N   UNL     1      -9.045   9.154  66.202  0.00  0.00    -0.269 NA
ATOM     21  C   UNL     1      -9.705   7.927  66.511  0.00  0.00    +0.090 C 
ATOM     22  C   UNL     1      -8.302   9.761  67.227  0.00  0.00    +0.094 C 
ATOM     23  C   UNL     1      -8.506  11.221  67.450  0.00  0.00    +0.108 C 
ENDBRANCH  12  17
BRANCH   7  24
ATOM     24  C   UNL     1     -13.715  15.527  72.381  0.00  0.00    +0.392 C 
ATOM     25  O   UNL     1     -13.367  16.023  73.634  0.00  0.00    -0.240 OA
ATOM     26  O   UNL     1     -14.836  15.851  71.942  0.00  0.00    -0.240 OA
ENDBRANCH   7  24
TORSDOF 2
ENDMDL
MODEL 5
REMARK VINA RESULT:      -7.0      4.991      7.181
REMARK  Name = 
REMARK  2 active torsions:
REMARK  status: ('A' for Active; 'I' for Inactive)
REMARK    1  A    between atoms: C_6  and  N_7
REMARK    2  A    between atoms: C_20  and  C_21
REMARK                            x       y       z     vdW  Elec       q    Type
REMARK                         _______ _______ _______ _____ _____    ______ ____
ROOT
ATOM      1  C   UNL     1      -8.363  19.348  66.278  0.00  0.00    +0.028 C 
ATOM      2  C   UNL     1      -8.668  19.979  67.784  0.00  0.00    +0.129 C 
ATOM      3  N   UNL     1      -7.898  18.819  68.537  0.00  0.00    -0.321 N 
ATOM      4  C   UNL     1      -8.149  17.573  68.242  0.00  0.00    +0.099 A 
ATOM      5  C   UNL     1      -7.347  16.623  68.869  0.00  0.00    +0.060 A 
ATOM      6  C   UNL     1      -6.174  16.966  69.492  0.00  0.00    +0.205 A 
ATOM      7  C   UNL     1      -5.911  18.313  69.697  0.00  0.00    +0.136 A 
ATOM      8  O   UNL     1      -5.520  16.133  70.155  0.00  0.00    -0.286 OA
ATOM      9  C   UNL     1      -7.817  15.341  69.129  0.00  0.00    +0.036 A 
ATOM     10  C   UNL     1      -8.837  14.834  68.375  0.00  0.00    +0.157 A 
ATOM     11  F   UNL     1      -9.235  13.555  68.546  0.00  0.00    -0.203 F 
ATOM     12  C   UNL     1      -9.565  15.741  67.635  0.00  0.00    +0.112 A 
ATOM     13  C   UNL     1      -9.209  17.081  67.527  0.00  0.00    +0.170 A 
ATOM     14  O   UNL     1     -10.141  18.074  67.213  0.00  0.00    -0.471 OA
ATOM     15  C   UNL     1      -6.791  19.260  69.188  0.00  0.00    +0.086 A 
ATOM     16  C   UNL     1     -10.147  19.249  67.938  0.00  0.00    +0.228 C 
ENDROOT
BRANCH  12  17
ATOM     17  N   UNL     1     -10.569  15.289  66.754  0.00  0.00    -0.301 N 
ATOM     18  C   UNL     1     -11.818  14.720  67.162  0.00  0.00    +0.108 C 
ATOM     19  C   UNL     1     -12.218  13.482  66.447  0.00  0.00    +0.094 C 
ATOM     20  N   UNL     1     -11.245  12.861  65.640  0.00  0.00    -0.269 NA
ATOM     21  C   UNL     1     -10.803  11.570  66.058  0.00  0.00    +0.090 C 
ATOM     22  C   UNL     1     -10.328  13.658  64.935  0.00  0.00    +0.094 C 
ATOM     23  C   UNL     1     -10.182  15.079  65.367  0.00  0.00    +0.108 C 
ENDBRANCH  12  17
BRANCH   7  24
ATOM     24  C   UNL     1      -4.929  18.725  70.708  0.00  0.00    +0.392 C 
ATOM     25  O   UNL     1      -5.238  18.748  72.064  0.00  0.00    -0.240 OA
ATOM     26  O   UNL     1      -3.719  18.701  70.410  0.00  0.00    -0.240 OA
ENDBRANCH   7  24
TORSDOF 2
ENDMDL
MODEL 6
REMARK VINA RESULT:      -7.0      3.153      6.104
REMARK  Name = 
REMARK  2 active torsions:
REMARK  status: ('A' for Active; 'I' for Inactive)
REMARK    1  A    between atoms: C_6  and  N_7
REMARK    2  A    between atoms: C_20  and  C_21
REMARK                            x       y       z     vdW  Elec       q    Type
REMARK                         _______ _______ _______ _____ _____    ______ ____
ROOT
ATOM      1  C   UNL     1     -12.143  14.765  72.772  0.00  0.00    +0.028 C 
ATOM      2  C   UNL     1     -13.640  14.131  72.433  0.00  0.00    +0.129 C 
ATOM      3  N   UNL     1     -13.061  13.010  71.476  0.00  0.00    -0.321 N 
ATOM      4  C   UNL     1     -12.213  13.332  70.537  0.00  0.00    +0.099 A 
ATOM      5  C   UNL     1     -11.668  12.272  69.817  0.00  0.00    +0.060 A 
ATOM      6  C   UNL     1     -11.752  10.978  70.263  0.00  0.00    +0.205 A 
ATOM      7  C   UNL     1     -12.597  10.705  71.329  0.00  0.00    +0.136 A 
ATOM      8  O   UNL     1     -11.368  10.019  69.558  0.00  0.00    -0.286 OA
ATOM      9  C   UNL     1     -11.255  12.432  68.499  0.00  0.00    +0.036 A 
ATOM     10  C   UNL     1     -10.916  13.676  68.049  0.00  0.00    +0.157 A 
ATOM     11  F   UNL     1     -10.416  13.833  66.804  0.00  0.00    -0.203 F 
ATOM     12  C   UNL     1     -11.330  14.743  68.818  0.00  0.00    +0.112 A 
ATOM     13  C   UNL     1     -11.927  14.585  70.063  0.00  0.00    +0.170 A 
ATOM     14  O   UNL     1     -12.760  15.562  70.616  0.00  0.00    -0.471 OA
ATOM     15  C   UNL     1     -13.253  11.757  71.959  0.00  0.00    +0.086 A 
ATOM     16  C   UNL     1     -13.956  15.183  71.194  0.00  0.00    +0.228 C 
ENDROOT
BRANCH  12  17
ATOM     17  N   UNL     1     -10.936  16.054  68.476  0.00  0.00    -0.301 N 
ATOM     18  C   UNL     1     -11.226  16.694  67.229  0.00  0.00    +0.108 C 
ATOM     19  C   UNL     1     -10.085  17.401  66.594  0.00  0.00    +0.094 C 
ATOM     20  N   UNL     1      -8.804  17.167  67.132  0.00  0.00    -0.269 NA
ATOM     21  C   UNL     1      -7.873  16.493  66.286  0.00  0.00    +0.090 C 
ATOM     22  C   UNL     1      -8.665  16.983  68.518  0.00  0.00    +0.094 C 
ATOM     23  C   UNL     1      -9.898  16.664  69.294  0.00  0.00    +0.108 C 
ENDBRANCH  12  17
BRANCH   7  24
ATOM     24  C   UNL     1     -13.060   9.332  71.569  0.00  0.00    +0.392 C 
ATOM     25  O   UNL     1     -12.388   8.472  72.432  0.00  0.00    -0.240 OA
ATOM     26  O   UNL     1     -14.243   9.045  71.302  0.00  0.00    -0.240 OA
ENDBRANCH   7  24
TORSDOF 2
ENDMDL
MODEL 7
REMARK VINA RESULT:      -6.9      3.175      4.740
REMARK  Name = 
REMARK  2 active torsions:
REMARK  status: ('A' for Active; 'I' for Inactive)
REMARK    1  A    between atoms: C_6  and  N_7
REMARK    2  A    between atoms: C_20  and  C_21
REMARK                            x       y       z     vdW  Elec       q    Type
REMARK                         _______ _______ _______ _____ _____    ______ ____
ROOT
ATOM      1  C   UNL     1      -7.860  10.815  65.687  0.00  0.00    +0.028 C 
ATOM      2  C   UNL     1      -9.073  10.710  64.557  0.00  0.00    +0.129 C 
ATOM      3  N   UNL     1     -10.061  11.631  65.383  0.00  0.00    -0.321 N 
ATOM      4  C   UNL     1     -10.267  11.391  66.649  0.00  0.00    +0.099 A 
ATOM      5  C   UNL     1     -11.060  12.315  67.325  0.00  0.00    +0.060 A 
ATOM      6  C   UNL     1     -11.333  13.553  66.800  0.00  0.00    +0.205 A 
ATOM      7  C   UNL     1     -11.006  13.787  65.472  0.00  0.00    +0.136 A 
ATOM      8  O   UNL     1     -12.140  14.332  67.352  0.00  0.00    -0.286 OA
ATOM      9  C   UNL     1     -11.825  11.942  68.424  0.00  0.00    +0.036 A 
ATOM     10  C   UNL     1     -11.465  10.845  69.152  0.00  0.00    +0.157 A 
ATOM     11  F   UNL     1     -12.136  10.529  70.280  0.00  0.00    -0.203 F 
ATOM     12  C   UNL     1     -10.572   9.978  68.557  0.00  0.00    +0.112 A 
ATOM     13  C   UNL     1      -9.944  10.258  67.349  0.00  0.00    +0.170 A 
ATOM     14  O   UNL     1      -9.446   9.249  66.519  0.00  0.00    -0.471 OA
ATOM     15  C   UNL     1     -10.336  12.802  64.755  0.00  0.00    +0.086 A 
ATOM     16  C   UNL     1      -9.700   9.302  65.163  0.00  0.00    +0.228 C 
ENDROOT
BRANCH  12  17
ATOM     17  N   UNL     1     -10.073   8.874  69.279  0.00  0.00    -0.301 N 
ATOM     18  C   UNL     1     -10.652   7.564  69.273  0.00  0.00    +0.108 C 
ATOM     19  C   UNL     1     -10.801   6.927  70.606  0.00  0.00    +0.094 C 
ATOM     20  N   UNL     1     -10.601   7.743  71.735  0.00  0.00    -0.269 NA
ATOM     21  C   UNL     1     -11.742   7.974  72.562  0.00  0.00    +0.090 C 
ATOM     22  C   UNL     1      -9.625   8.752  71.689  0.00  0.00    +0.094 C 
ATOM     23  C   UNL     1      -9.123   9.159  70.345  0.00  0.00    +0.108 C 
ENDBRANCH  12  17
BRANCH   7  24
ATOM     24  C   UNL     1     -11.642  14.890  64.741  0.00  0.00    +0.392 C 
ATOM     25  O   UNL     1     -11.004  16.112  64.554  0.00  0.00    -0.240 OA
ATOM     26  O   UNL     1     -12.588  14.630  63.971  0.00  0.00    -0.240 OA
ENDBRANCH   7  24
TORSDOF 2
ENDMDL
MODEL 8
REMARK VINA RESULT:      -6.8      5.804      8.524
REMARK  Name = 
REMARK  2 active torsions:
REMARK  status: ('A' for Active; 'I' for Inactive)
REMARK    1  A    between atoms: C_6  and  N_7
REMARK    2  A    between atoms: C_20  and  C_21
REMARK                            x       y       z     vdW  Elec       q    Type
REMARK                         _______ _______ _______ _____ _____    ______ ____
ROOT
ATOM      1  C   UNL     1      -7.337  14.200  67.356  0.00  0.00    +0.028 C 
ATOM      2  C   UNL     1      -8.767  13.969  68.168  0.00  0.00    +0.129 C 
ATOM      3  N   UNL     1      -9.607  14.837  67.145  0.00  0.00    -0.321 N 
ATOM      4  C   UNL     1      -9.186  16.025  66.803  0.00  0.00    +0.099 A 
ATOM      5  C   UNL     1      -9.923  16.673  65.815  0.00  0.00    +0.060 A 
ATOM      6  C   UNL     1     -10.819  15.999  65.024  0.00  0.00    +0.205 A 
ATOM      7  C   UNL     1     -11.160  14.702  65.379  0.00  0.00    +0.136 A 
ATOM      8  O   UNL     1     -11.563  16.603  64.222  0.00  0.00    -0.286 OA
ATOM      9  C   UNL     1      -9.988  18.060  65.757  0.00  0.00    +0.036 A 
ATOM     10  C   UNL     1      -8.991  18.804  66.319  0.00  0.00    +0.157 A 
ATOM     11  F   UNL     1      -8.987  20.147  66.182  0.00  0.00    -0.203 F 
ATOM     12  C   UNL     1      -8.159  18.149  67.203  0.00  0.00    +0.112 A 
ATOM     13  C   UNL     1      -8.217  16.776  67.415  0.00  0.00    +0.170 A 
ATOM     14  O   UNL     1      -7.758  16.187  68.596  0.00  0.00    -0.471 OA
ATOM     15  C   UNL     1     -10.520  14.105  66.459  0.00  0.00    +0.086 A 
ATOM     16  C   UNL     1      -8.532  15.227  69.218  0.00  0.00    +0.228 C 
ENDROOT
BRANCH  12  17
ATOM     17  N   UNL     1      -7.044  18.818  67.750  0.00  0.00    -0.301 N 
ATOM     18  C   UNL     1      -5.685  18.598  67.357  0.00  0.00    +0.108 C 
ATOM     19  C   UNL     1      -4.715  18.450  68.472  0.00  0.00    +0.094 C 
ATOM     20  N   UNL     1      -5.243  18.291  69.767  0.00  0.00    -0.269 NA
ATOM     21  C   UNL     1      -5.004  17.034  70.401  0.00  0.00    +0.090 C 
ATOM     22  C   UNL     1      -6.418  18.975  70.119  0.00  0.00    +0.094 C 
ATOM     23  C   UNL     1      -7.251  19.522  69.008  0.00  0.00    +0.108 C 
ENDBRANCH  12  17
BRANCH   7  24
ATOM     24  C   UNL     1     -12.393  14.097  64.860  0.00  0.00    +0.392 C 
ATOM     25  O   UNL     1     -12.397  13.306  63.715  0.00  0.00    -0.240 OA
ATOM     26  O   UNL     1     -13.368  13.976  65.627  0.00  0.00    -0.240 OA
ENDBRANCH   7  24
TORSDOF 2
ENDMDL
MODEL 9
REMARK VINA RESULT:      -6.8      2.925      4.794
REMARK  Name = 
REMARK  2 active torsions:
REMARK  status: ('A' for Active; 'I' for Inactive)
REMARK    1  A    between atoms: C_6  and  N_7
REMARK    2  A    between atoms: C_20  and  C_21
REMARK                            x       y       z     vdW  Elec       q    Type
REMARK                         _______ _______ _______ _____ _____    ______ ____
ROOT
ATOM      1  C   UNL     1      -8.632   9.187  67.629  0.00  0.00    +0.028 C 
ATOM      2  C   UNL     1      -9.872   8.922  66.556  0.00  0.00    +0.129 C 
ATOM      3  N   UNL     1     -10.688  10.194  67.028  0.00  0.00    -0.321 N 
ATOM      4  C   UNL     1     -10.900  10.394  68.300  0.00  0.00    +0.099 A 
ATOM      5  C   UNL     1     -11.526  11.593  68.633  0.00  0.00    +0.060 A 
ATOM      6  C   UNL     1     -11.618  12.631  67.742  0.00  0.00    +0.205 A 
ATOM      7  C   UNL     1     -11.288  12.388  66.417  0.00  0.00    +0.136 A 
ATOM      8  O   UNL     1     -12.283  13.657  68.003  0.00  0.00    -0.286 OA
ATOM      9  C   UNL     1     -12.315  11.702  69.773  0.00  0.00    +0.036 A 
ATOM     10  C   UNL     1     -12.111  10.844  70.815  0.00  0.00    +0.157 A 
ATOM     11  F   UNL     1     -12.797  11.001  71.968  0.00  0.00    -0.203 F 
ATOM     12  C   UNL     1     -11.376   9.709  70.543  0.00  0.00    +0.112 A 
ATOM     13  C   UNL     1     -10.739   9.500  69.325  0.00  0.00    +0.170 A 
ATOM     14  O   UNL     1     -10.420   8.219  68.865  0.00  0.00    -0.471 OA
ATOM     15  C   UNL     1     -10.794  11.139  66.060  0.00  0.00    +0.086 A 
ATOM     16  C   UNL     1     -10.693   7.886  67.553  0.00  0.00    +0.228 C 
ENDROOT
BRANCH  12  17
ATOM     17  N   UNL     1     -11.036   8.822  71.586  0.00  0.00    -0.301 N 
ATOM     18  C   UNL     1      -9.702   8.575  72.046  0.00  0.00    +0.108 C 
ATOM     19  C   UNL     1      -9.351   7.146  72.242  0.00  0.00    +0.094 C 
ATOM     20  N   UNL     1     -10.246   6.186  71.732  0.00  0.00    -0.269 NA
ATOM     21  C   UNL     1      -9.764   5.372  70.663  0.00  0.00    +0.090 C 
ATOM     22  C   UNL     1     -11.626   6.447  71.770  0.00  0.00    +0.094 C 
ATOM     23  C   UNL     1     -12.051   7.860  71.989  0.00  0.00    +0.108 C 
ENDBRANCH  12  17
BRANCH   7  24
ATOM     24  C   UNL     1     -11.764  13.292  65.362  0.00  0.00    +0.392 C 
ATOM     25  O   UNL     1     -10.908  14.172  64.707  0.00  0.00    -0.240 OA
ATOM     26  O   UNL     1     -12.839  13.028  64.789  0.00  0.00    -0.240 OA
ENDBRANCH   7  24
TORSDOF 2
ENDMDL
