MODEL 1
REMARK VINA RESULT:      -6.8      0.000      0.000
REMARK  Name = 
REMARK  6 active torsions:
REMARK  status: ('A' for Active; 'I' for Inactive)
REMARK    1  A    between atoms: C_6  and  C_7
REMARK    2  A    between atoms: C_7  and  C_8
REMARK    3  A    between atoms: C_14  and  C_15
REMARK    4  A    between atoms: C_15  and  C_16
REMARK    5  A    between atoms: C_16  and  S_17
REMARK    6  A    between atoms: S_17  and  C_20
REMARK                            x       y       z     vdW  Elec       q    Type
REMARK                         _______ _______ _______ _____ _____    ______ ____
ROOT
ATOM      1  C   UNL     1     -11.516  14.043  69.526  0.00  0.00    -0.000 A 
ATOM      2  C   UNL     1     -10.558  14.810  68.919  0.00  0.00    +0.015 A 
ATOM      3  C   UNL     1     -10.769  14.655  67.554  0.00  0.00    +0.081 A 
ATOM      4  C   UNL     1      -9.989  15.442  66.718  0.00  0.00    +0.019 A 
ATOM      5  C   UNL     1      -8.778  15.861  67.194  0.00  0.00    -0.003 A 
ATOM      6  C   UNL     1      -8.469  15.918  68.543  0.00  0.00    -0.020 A 
ATOM      7  N   UNL     1     -11.584  13.596  67.330  0.00  0.00    -0.244 NA
ATOM      8  C   UNL     1      -9.404  15.415  69.406  0.00  0.00    -0.003 A 
ATOM      9  C   UNL     1     -12.068  13.233  68.543  0.00  0.00    +0.095 A 
ENDROOT
BRANCH   1  10
ATOM     10  C   UNL     1     -12.026  14.208  70.913  0.00  0.00    +0.044 C 
BRANCH  10  13
ATOM     11  C   UNL     1     -11.977  16.217  72.362  0.00  0.00    +0.090 C 
ATOM     12  N   UNL     1     -12.329  16.054  72.328  0.00  0.00    -0.272 NA
ATOM     13  C   UNL     1     -12.782  15.667  70.868  0.00  0.00    +0.062 C 
ATOM     14  C   UNL     1     -14.214  15.044  71.384  0.00  0.00    +0.018 C 
ATOM     15  C   UNL     1     -13.761  14.189  72.509  0.00  0.00    +0.019 C 
ATOM     16  C   UNL     1     -12.534  14.836  73.011  0.00  0.00    +0.072 C 
ENDBRANCH  10  13
ENDBRANCH   1  10
BRANCH   6  17
ATOM     17  C   UNL     1      -7.052  16.182  68.892  0.00  0.00    +0.052 C 
BRANCH  17  18
ATOM     18  C   UNL     1      -6.331  16.864  67.758  0.00  0.00    +0.161 C 
BRANCH  18  19
ATOM     19  S   UNL     1      -6.280  18.612  67.917  0.00  0.00    +0.009 S 
ATOM     20  O   UNL     1      -5.365  19.290  66.955  0.00  0.00    -0.169 OA
ATOM     21  O   UNL     1      -5.925  18.929  69.352  0.00  0.00    -0.169 OA
BRANCH  19  22
ATOM     22  C   UNL     1      -7.886  19.271  67.627  0.00  0.00    +0.106 A 
ATOM     23  C   UNL     1      -8.731  19.546  68.685  0.00  0.00    +0.018 A 
ATOM     24  C   UNL     1     -10.103  19.595  68.490  0.00  0.00    +0.001 A 
ATOM     25  C   UNL     1     -10.579  19.351  67.208  0.00  0.00    +0.000 A 
ATOM     26  C   UNL     1      -9.704  19.646  66.170  0.00  0.00    +0.001 A 
ATOM     27  C   UNL     1      -8.349  19.531  66.363  0.00  0.00    +0.018 A 
ENDBRANCH  19  22
ENDBRANCH  18  19
ENDBRANCH  17  18
ENDBRANCH   6  17
TORSDOF 6
ENDMDL
MODEL 2
REMARK VINA RESULT:      -6.8      2.401      4.062
REMARK  Name = 
REMARK  6 active torsions:
REMARK  status: ('A' for Active; 'I' for Inactive)
REMARK    1  A    between atoms: C_6  and  C_7
REMARK    2  A    between atoms: C_7  and  C_8
REMARK    3  A    between atoms: C_14  and  C_15
REMARK    4  A    between atoms: C_15  and  C_16
REMARK    5  A    between atoms: C_16  and  S_17
REMARK    6  A    between atoms: S_17  and  C_20
REMARK                            x       y       z     vdW  Elec       q    Type
REMARK                         _______ _______ _______ _____ _____    ______ ____
ROOT
ATOM      1  C   UNL     1      -9.894  14.817  67.518  0.00  0.00    -0.000 A 
ATOM      2  C   UNL     1      -8.638  15.360  67.590  0.00  0.00    +0.015 A 
ATOM      3  C   UNL     1      -8.391  15.542  68.945  0.00  0.00    +0.081 A 
ATOM      4  C   UNL     1      -7.115  15.972  69.286  0.00  0.00    +0.019 A 
ATOM      5  C   UNL     1      -6.417  16.679  68.347  0.00  0.00    -0.003 A 
ATOM      6  C   UNL     1      -6.700  16.632  66.992  0.00  0.00    -0.020 A 
ATOM      7  N   UNL     1      -9.547  15.438  69.644  0.00  0.00    -0.244 NA
ATOM      8  C   UNL     1      -7.811  15.924  66.625  0.00  0.00    -0.003 A 
ATOM      9  C   UNL     1     -10.471  14.965  68.772  0.00  0.00    +0.095 A 
ENDROOT
BRANCH   1  10
ATOM     10  C   UNL     1     -10.444  14.021  66.389  0.00  0.00    +0.044 C 
BRANCH  10  13
ATOM     11  C   UNL     1     -11.540  11.821  66.694  0.00  0.00    +0.090 C 
ATOM     12  N   UNL     1     -11.728  12.060  66.451  0.00  0.00    -0.272 NA
ATOM     13  C   UNL     1     -11.917  13.546  66.942  0.00  0.00    +0.062 C 
ATOM     14  C   UNL     1     -12.684  13.997  65.560  0.00  0.00    +0.018 C 
ATOM     15  C   UNL     1     -11.773  13.432  64.533  0.00  0.00    +0.019 C 
ATOM     16  C   UNL     1     -11.149  12.261  65.180  0.00  0.00    +0.072 C 
ENDBRANCH  10  13
ENDBRANCH   1  10
BRANCH   6  17
ATOM     17  C   UNL     1      -6.001  17.616  66.130  0.00  0.00    +0.052 C 
BRANCH  17  18
ATOM     18  C   UNL     1      -5.701  18.884  66.886  0.00  0.00    +0.161 C 
BRANCH  18  19
ATOM     19  S   UNL     1      -6.748  20.223  66.442  0.00  0.00    +0.009 S 
ATOM     20  O   UNL     1      -6.813  20.491  64.977  0.00  0.00    -0.169 OA
ATOM     21  O   UNL     1      -6.289  21.436  67.217  0.00  0.00    -0.169 OA
BRANCH  19  22
ATOM     22  C   UNL     1      -8.393  19.872  66.959  0.00  0.00    +0.106 A 
ATOM     23  C   UNL     1      -8.668  19.615  68.288  0.00  0.00    +0.018 A 
ATOM     24  C   UNL     1      -9.796  18.889  68.641  0.00  0.00    +0.001 A 
ATOM     25  C   UNL     1     -10.616  18.436  67.615  0.00  0.00    +0.000 A 
ATOM     26  C   UNL     1     -10.590  19.182  66.443  0.00  0.00    +0.001 A 
ATOM     27  C   UNL     1      -9.443  19.843  66.078  0.00  0.00    +0.018 A 
ENDBRANCH  19  22
ENDBRANCH  18  19
ENDBRANCH  17  18
ENDBRANCH   6  17
TORSDOF 6
ENDMDL
MODEL 3
REMARK VINA RESULT:      -6.8      4.581      5.963
REMARK  Name = 
REMARK  6 active torsions:
REMARK  status: ('A' for Active; 'I' for Inactive)
REMARK    1  A    between atoms: C_6  and  C_7
REMARK    2  A    between atoms: C_7  and  C_8
REMARK    3  A    between atoms: C_14  and  C_15
REMARK    4  A    between atoms: C_15  and  C_16
REMARK    5  A    between atoms: C_16  and  S_17
REMARK    6  A    between atoms: S_17  and  C_20
REMARK                            x       y       z     vdW  Elec       q    Type
REMARK                         _______ _______ _______ _____ _____    ______ ____
ROOT
ATOM      1  C   UNL     1     -12.305  10.363  70.919  0.00  0.00    -0.000 A 
ATOM      2  C   UNL     1     -12.005  11.351  70.019  0.00  0.00    +0.015 A 
ATOM      3  C   UNL     1     -12.359  12.541  70.645  0.00  0.00    +0.081 A 
ATOM      4  C   UNL     1     -12.032  13.711  69.971  0.00  0.00    +0.019 A 
ATOM      5  C   UNL     1     -11.917  13.644  68.611  0.00  0.00    -0.003 A 
ATOM      6  C   UNL     1     -11.687  12.463  67.923  0.00  0.00    -0.020 A 
ATOM      7  N   UNL     1     -13.141  12.284  71.720  0.00  0.00    -0.244 NA
ATOM      8  C   UNL     1     -11.697  11.313  68.664  0.00  0.00    -0.003 A 
ATOM      9  C   UNL     1     -13.088  10.943  71.909  0.00  0.00    +0.095 A 
ENDROOT
BRANCH   1  10
ATOM     10  C   UNL     1     -11.718   8.998  70.954  0.00  0.00    +0.044 C 
BRANCH  10  13
ATOM     11  C   UNL     1     -10.825   7.745  72.896  0.00  0.00    +0.090 C 
ATOM     12  N   UNL     1     -11.087   7.547  72.686  0.00  0.00    -0.272 NA
ATOM     13  C   UNL     1     -12.399   8.326  72.291  0.00  0.00    +0.062 C 
ATOM     14  C   UNL     1     -13.008   7.050  71.451  0.00  0.00    +0.018 C 
ATOM     15  C   UNL     1     -11.833   6.666  70.629  0.00  0.00    +0.019 C 
ATOM     16  C   UNL     1     -10.660   7.071  71.428  0.00  0.00    +0.072 C 
ENDBRANCH  10  13
ENDBRANCH   1  10
BRANCH   6  17
ATOM     17  C   UNL     1     -11.804  12.518  66.446  0.00  0.00    +0.052 C 
BRANCH  17  18
ATOM     18  C   UNL     1     -12.346  13.848  65.992  0.00  0.00    +0.161 C 
BRANCH  18  19
ATOM     19  S   UNL     1     -11.228  14.746  64.977  0.00  0.00    +0.009 S 
ATOM     20  O   UNL     1     -11.881  15.723  64.060  0.00  0.00    -0.169 OA
ATOM     21  O   UNL     1     -10.388  13.740  64.224  0.00  0.00    -0.169 OA
BRANCH  19  22
ATOM     22  C   UNL     1     -10.132  15.673  65.995  0.00  0.00    +0.106 A 
ATOM     23  C   UNL     1      -9.057  15.057  66.606  0.00  0.00    +0.018 A 
ATOM     24  C   UNL     1      -8.490  15.609  67.746  0.00  0.00    +0.001 A 
ATOM     25  C   UNL     1      -9.048  16.782  68.238  0.00  0.00    +0.000 A 
ATOM     26  C   UNL     1      -9.691  17.586  67.305  0.00  0.00    +0.001 A 
ATOM     27  C   UNL     1     -10.301  17.015  66.215  0.00  0.00    +0.018 A 
ENDBRANCH  19  22
ENDBRANCH  18  19
ENDBRANCH  17  18
ENDBRANCH   6  17
TORSDOF 6
ENDMDL
MODEL 4
REMARK VINA RESULT:      -6.7      2.460      5.109
REMARK  Name = 
REMARK  6 active torsions:
REMARK  status: ('A' for Active; 'I' for Inactive)
REMARK    1  A    between atoms: C_6  and  C_7
REMARK    2  A    between atoms: C_7  and  C_8
REMARK    3  A    between atoms: C_14  and  C_15
REMARK    4  A    between atoms: C_15  and  C_16
REMARK    5  A    between atoms: C_16  and  S_17
REMARK    6  A    between atoms: S_17  and  C_20
REMARK                            x       y       z     vdW  Elec       q    Type
REMARK                         _______ _______ _______ _____ _____    ______ ____
ROOT
ATOM      1  C   UNL     1     -11.245  14.326  66.794  0.00  0.00    -0.000 A 
ATOM      2  C   UNL     1     -10.756  15.547  67.177  0.00  0.00    +0.015 A 
ATOM      3  C   UNL     1     -10.976  15.620  68.547  0.00  0.00    +0.081 A 
ATOM      4  C   UNL     1     -10.447  16.728  69.196  0.00  0.00    +0.019 A 
ATOM      5  C   UNL     1     -10.261  17.862  68.457  0.00  0.00    -0.003 A 
ATOM      6  C   UNL     1     -10.159  17.863  67.076  0.00  0.00    -0.020 A 
ATOM      7  N   UNL     1     -11.849  14.657  68.927  0.00  0.00    -0.244 NA
ATOM      8  C   UNL     1     -10.375  16.667  66.447  0.00  0.00    -0.003 A 
ATOM      9  C   UNL     1     -11.997  13.841  67.855  0.00  0.00    +0.095 A 
ENDROOT
BRANCH   1  10
ATOM     10  C   UNL     1     -10.859  13.567  65.574  0.00  0.00    +0.044 C 
BRANCH  10  13
ATOM     11  C   UNL     1     -10.225  11.229  65.057  0.00  0.00    +0.090 C 
ATOM     12  N   UNL     1     -10.552  11.348  64.882  0.00  0.00    -0.272 NA
ATOM     13  C   UNL     1     -11.593  12.112  65.785  0.00  0.00    +0.062 C 
ATOM     14  C   UNL     1     -12.633  12.352  64.535  0.00  0.00    +0.018 C 
ATOM     15  C   UNL     1     -11.709  12.862  63.492  0.00  0.00    +0.019 C 
ATOM     16  C   UNL     1     -10.403  12.252  63.809  0.00  0.00    +0.072 C 
ENDBRANCH  10  13
ENDBRANCH   1  10
BRANCH   6  17
ATOM     17  C   UNL     1     -10.177  19.186  66.406  0.00  0.00    +0.052 C 
BRANCH  17  18
ATOM     18  C   UNL     1      -9.310  20.178  67.138  0.00  0.00    +0.161 C 
BRANCH  18  19
ATOM     19  S   UNL     1      -7.613  20.076  66.697  0.00  0.00    +0.009 S 
ATOM     20  O   UNL     1      -6.786  21.223  67.170  0.00  0.00    -0.169 OA
ATOM     21  O   UNL     1      -7.541  19.910  65.197  0.00  0.00    -0.169 OA
BRANCH  19  22
ATOM     22  C   UNL     1      -6.911  18.628  67.410  0.00  0.00    +0.106 A 
ATOM     23  C   UNL     1      -6.618  17.532  66.621  0.00  0.00    +0.018 A 
ATOM     24  C   UNL     1      -6.533  16.268  67.185  0.00  0.00    +0.001 A 
ATOM     25  C   UNL     1      -6.759  16.156  68.551  0.00  0.00    +0.000 A 
ATOM     26  C   UNL     1      -6.483  17.289  69.306  0.00  0.00    +0.001 A 
ATOM     27  C   UNL     1      -6.635  18.536  68.749  0.00  0.00    +0.018 A 
ENDBRANCH  19  22
ENDBRANCH  18  19
ENDBRANCH  17  18
ENDBRANCH   6  17
TORSDOF 6
ENDMDL
MODEL 5
REMARK VINA RESULT:      -6.7      4.266      6.814
REMARK  Name = 
REMARK  6 active torsions:
REMARK  status: ('A' for Active; 'I' for Inactive)
REMARK    1  A    between atoms: C_6  and  C_7
REMARK    2  A    between atoms: C_7  and  C_8
REMARK    3  A    between atoms: C_14  and  C_15
REMARK    4  A    between atoms: C_15  and  C_16
REMARK    5  A    between atoms: C_16  and  S_17
REMARK    6  A    between atoms: S_17  and  C_20
REMARK                            x       y       z     vdW  Elec       q    Type
REMARK                         _______ _______ _______ _____ _____    ______ ____
ROOT
ATOM      1  C   UNL     1     -11.689  15.394  70.318  0.00  0.00    -0.000 A 
ATOM      2  C   UNL     1     -12.040  14.071  70.363  0.00  0.00    +0.015 A 
ATOM      3  C   UNL     1     -12.719  13.909  71.565  0.00  0.00    +0.081 A 
ATOM      4  C   UNL     1     -13.290  12.662  71.785  0.00  0.00    +0.019 A 
ATOM      5  C   UNL     1     -12.727  11.590  71.151  0.00  0.00    -0.003 A 
ATOM      6  C   UNL     1     -11.937  11.704  70.019  0.00  0.00    -0.020 A 
ATOM      7  N   UNL     1     -12.505  14.980  72.365  0.00  0.00    -0.244 NA
ATOM      8  C   UNL     1     -11.632  12.974  69.612  0.00  0.00    -0.003 A 
ATOM      9  C   UNL     1     -11.893  15.910  71.591  0.00  0.00    +0.095 A 
ENDROOT
BRANCH   1  10
ATOM     10  C   UNL     1     -11.373  16.179  69.095  0.00  0.00    +0.044 C 
BRANCH  10  13
ATOM     11  C   UNL     1      -9.782  18.007  68.584  0.00  0.00    +0.090 C 
ATOM     12  N   UNL     1      -9.731  17.687  68.368  0.00  0.00    -0.272 NA
ATOM     13  C   UNL     1      -9.736  16.314  69.144  0.00  0.00    +0.062 C 
ATOM     14  C   UNL     1      -9.530  15.437  67.768  0.00  0.00    +0.018 C 
ATOM     15  C   UNL     1     -10.557  16.048  66.887  0.00  0.00    +0.019 C 
ATOM     16  C   UNL     1     -10.689  17.438  67.363  0.00  0.00    +0.072 C 
ENDBRANCH  10  13
ENDBRANCH   1  10
BRANCH   6  17
ATOM     17  C   UNL     1     -11.225  10.480  69.576  0.00  0.00    +0.052 C 
BRANCH  17  18
ATOM     18  C   UNL     1     -10.024  10.825  68.734  0.00  0.00    +0.161 C 
BRANCH  18  19
ATOM     19  S   UNL     1     -10.005  10.005  67.181  0.00  0.00    +0.009 S 
ATOM     20  O   UNL     1     -10.859   8.784  67.121  0.00  0.00    -0.169 OA
ATOM     21  O   UNL     1      -8.563   9.701  66.845  0.00  0.00    -0.169 OA
BRANCH  19  22
ATOM     22  C   UNL     1     -10.605  11.096  65.938  0.00  0.00    +0.106 A 
ATOM     23  C   UNL     1     -11.397  12.176  66.279  0.00  0.00    +0.018 A 
ATOM     24  C   UNL     1     -12.250  12.740  65.343  0.00  0.00    +0.001 A 
ATOM     25  C   UNL     1     -12.277  12.175  64.074  0.00  0.00    +0.000 A 
ATOM     26  C   UNL     1     -11.115  11.526  63.674  0.00  0.00    +0.001 A 
ATOM     27  C   UNL     1     -10.315  10.918  64.611  0.00  0.00    +0.018 A 
ENDBRANCH  19  22
ENDBRANCH  18  19
ENDBRANCH  17  18
ENDBRANCH   6  17
TORSDOF 6
ENDMDL
MODEL 6
REMARK VINA RESULT:      -6.6      4.792      6.966
REMARK  Name = 
REMARK  6 active torsions:
REMARK  status: ('A' for Active; 'I' for Inactive)
REMARK    1  A    between atoms: C_6  and  C_7
REMARK    2  A    between atoms: C_7  and  C_8
REMARK    3  A    between atoms: C_14  and  C_15
REMARK    4  A    between atoms: C_15  and  C_16
REMARK    5  A    between atoms: C_16  and  S_17
REMARK    6  A    between atoms: S_17  and  C_20
REMARK                            x       y       z     vdW  Elec       q    Type
REMARK                         _______ _______ _______ _____ _____    ______ ____
ROOT
ATOM      1  C   UNL     1     -12.205  10.990  70.734  0.00  0.00    -0.000 A 
ATOM      2  C   UNL     1     -11.998  12.283  70.335  0.00  0.00    +0.015 A 
ATOM      3  C   UNL     1     -12.622  13.071  71.296  0.00  0.00    +0.081 A 
ATOM      4  C   UNL     1     -12.444  14.443  71.175  0.00  0.00    +0.019 A 
ATOM      5  C   UNL     1     -12.181  14.938  69.929  0.00  0.00    -0.003 A 
ATOM      6  C   UNL     1     -11.675  14.168  68.895  0.00  0.00    -0.020 A 
ATOM      7  N   UNL     1     -13.449  12.311  72.051  0.00  0.00    -0.244 NA
ATOM      8  C   UNL     1     -11.553  12.827  69.135  0.00  0.00    -0.003 A 
ATOM      9  C   UNL     1     -13.176  11.024  71.727  0.00  0.00    +0.095 A 
ENDROOT
BRANCH   1  10
ATOM     10  C   UNL     1     -11.389   9.809  70.348  0.00  0.00    +0.044 C 
BRANCH  10  13
ATOM     11  C   UNL     1      -9.566   8.842  71.720  0.00  0.00    +0.090 C 
ATOM     12  N   UNL     1      -9.814   8.579  71.576  0.00  0.00    -0.272 NA
ATOM     13  C   UNL     1     -11.349   8.909  71.723  0.00  0.00    +0.062 C 
ATOM     14  C   UNL     1     -11.808   7.534  70.946  0.00  0.00    +0.018 C 
ATOM     15  C   UNL     1     -10.925   7.575  69.753  0.00  0.00    +0.019 C 
ATOM     16  C   UNL     1      -9.722   8.307  70.194  0.00  0.00    +0.072 C 
ENDBRANCH  10  13
ENDBRANCH   1  10
BRANCH   6  17
ATOM     17  C   UNL     1     -11.649  14.791  67.549  0.00  0.00    +0.052 C 
BRANCH  17  18
ATOM     18  C   UNL     1     -12.363  13.932  66.539  0.00  0.00    +0.161 C 
BRANCH  18  19
ATOM     19  S   UNL     1     -11.555  13.874  64.980  0.00  0.00    +0.009 S 
ATOM     20  O   UNL     1     -10.341  14.734  64.886  0.00  0.00    -0.169 OA
ATOM     21  O   UNL     1     -12.578  14.225  63.924  0.00  0.00    -0.169 OA
BRANCH  19  22
ATOM     22  C   UNL     1     -11.026  12.227  64.658  0.00  0.00    +0.106 A 
ATOM     23  C   UNL     1     -10.879  11.326  65.695  0.00  0.00    +0.018 A 
ATOM     24  C   UNL     1     -10.038  10.232  65.555  0.00  0.00    +0.001 A 
ATOM     25  C   UNL     1      -9.360  10.091  64.351  0.00  0.00    +0.000 A 
ATOM     26  C   UNL     1      -9.969  10.664  63.242  0.00  0.00    +0.001 A 
ATOM     27  C   UNL     1     -10.747  11.786  63.391  0.00  0.00    +0.018 A 
ENDBRANCH  19  22
ENDBRANCH  18  19
ENDBRANCH  17  18
ENDBRANCH   6  17
TORSDOF 6
ENDMDL
MODEL 7
REMARK VINA RESULT:      -6.6      1.946      2.788
REMARK  Name = 
REMARK  6 active torsions:
REMARK  status: ('A' for Active; 'I' for Inactive)
REMARK    1  A    between atoms: C_6  and  C_7
REMARK    2  A    between atoms: C_7  and  C_8
REMARK    3  A    between atoms: C_14  and  C_15
REMARK    4  A    between atoms: C_15  and  C_16
REMARK    5  A    between atoms: C_16  and  S_17
REMARK    6  A    between atoms: S_17  and  C_20
REMARK                            x       y       z     vdW  Elec       q    Type
REMARK                         _______ _______ _______ _____ _____    ______ ____
ROOT
ATOM      1  C   UNL     1     -11.785  12.913  69.715  0.00  0.00    -0.000 A 
ATOM      2  C   UNL     1     -11.420  13.429  68.500  0.00  0.00    +0.015 A 
ATOM      3  C   UNL     1     -11.792  12.472  67.564  0.00  0.00    +0.081 A 
ATOM      4  C   UNL     1     -11.635  12.823  66.229  0.00  0.00    +0.019 A 
ATOM      5  C   UNL     1     -10.684  13.759  65.932  0.00  0.00    -0.003 A 
ATOM      6  C   UNL     1     -10.186  14.659  66.858  0.00  0.00    -0.020 A 
ATOM      7  N   UNL     1     -12.057  11.297  68.184  0.00  0.00    -0.244 NA
ATOM      8  C   UNL     1     -10.603  14.499  68.151  0.00  0.00    -0.003 A 
ATOM      9  C   UNL     1     -12.080  11.571  69.511  0.00  0.00    +0.095 A 
ENDROOT
BRANCH   1  10
ATOM     10  C   UNL     1     -12.040  13.687  70.959  0.00  0.00    +0.044 C 
BRANCH  10  13
ATOM     11  C   UNL     1     -11.800  16.142  71.185  0.00  0.00    +0.090 C 
ATOM     12  N   UNL     1     -12.131  16.000  71.333  0.00  0.00    -0.272 NA
ATOM     13  C   UNL     1     -12.917  14.973  70.432  0.00  0.00    +0.062 C 
ATOM     14  C   UNL     1     -14.093  14.751  71.559  0.00  0.00    +0.018 C 
ATOM     15  C   UNL     1     -13.277  14.531  72.779  0.00  0.00    +0.019 C 
ATOM     16  C   UNL     1     -12.028  15.281  72.543  0.00  0.00    +0.072 C 
ENDBRANCH  10  13
ENDBRANCH   1  10
BRANCH   6  17
ATOM     17  C   UNL     1      -9.010  15.463  66.443  0.00  0.00    +0.052 C 
BRANCH  17  18
ATOM     18  C   UNL     1      -8.605  16.431  67.524  0.00  0.00    +0.161 C 
BRANCH  18  19
ATOM     19  S   UNL     1      -9.348  18.014  67.354  0.00  0.00    +0.009 S 
ATOM     20  O   UNL     1     -10.570  18.210  68.185  0.00  0.00    -0.169 OA
ATOM     21  O   UNL     1      -9.625  18.232  65.884  0.00  0.00    -0.169 OA
BRANCH  19  22
ATOM     22  C   UNL     1      -8.202  19.252  67.852  0.00  0.00    +0.106 A 
ATOM     23  C   UNL     1      -7.895  20.301  67.006  0.00  0.00    +0.018 A 
ATOM     24  C   UNL     1      -6.697  20.986  67.148  0.00  0.00    +0.001 A 
ATOM     25  C   UNL     1      -5.835  20.572  68.156  0.00  0.00    +0.000 A 
ATOM     26  C   UNL     1      -6.431  19.951  69.247  0.00  0.00    +0.001 A 
ATOM     27  C   UNL     1      -7.584  19.224  69.074  0.00  0.00    +0.018 A 
ENDBRANCH  19  22
ENDBRANCH  18  19
ENDBRANCH  17  18
ENDBRANCH   6  17
TORSDOF 6
ENDMDL
MODEL 8
REMARK VINA RESULT:      -6.6      5.423      8.551
REMARK  Name = 
REMARK  6 active torsions:
REMARK  status: ('A' for Active; 'I' for Inactive)
REMARK    1  A    between atoms: C_6  and  C_7
REMARK    2  A    between atoms: C_7  and  C_8
REMARK    3  A    between atoms: C_14  and  C_15
REMARK    4  A    between atoms: C_15  and  C_16
REMARK    5  A    between atoms: C_16  and  S_17
REMARK    6  A    between atoms: S_17  and  C_20
REMARK                            x       y       z     vdW  Elec       q    Type
REMARK                         _______ _______ _______ _____ _____    ______ ____
ROOT
ATOM      1  C   UNL     1     -11.519  13.371  68.721  0.00  0.00    -0.000 A 
ATOM      2  C   UNL     1     -12.164  12.673  69.707  0.00  0.00    +0.015 A 
ATOM      3  C   UNL     1     -12.431  13.604  70.704  0.00  0.00    +0.081 A 
ATOM      4  C   UNL     1     -13.199  13.158  71.772  0.00  0.00    +0.019 A 
ATOM      5  C   UNL     1     -13.171  11.820  72.054  0.00  0.00    -0.003 A 
ATOM      6  C   UNL     1     -12.792  10.857  71.134  0.00  0.00    -0.020 A 
ATOM      7  N   UNL     1     -11.700  14.725  70.499  0.00  0.00    -0.244 NA
ATOM      8  C   UNL     1     -12.320  11.310  69.933  0.00  0.00    -0.003 A 
ATOM      9  C   UNL     1     -11.156  14.597  69.264  0.00  0.00    +0.095 A 
ENDROOT
BRANCH   1  10
ATOM     10  C   UNL     1     -11.429  12.987  67.287  0.00  0.00    +0.044 C 
BRANCH  10  13
ATOM     11  C   UNL     1     -12.836  13.963  65.497  0.00  0.00    +0.090 C 
ATOM     12  N   UNL     1     -12.458  13.938  65.406  0.00  0.00    -0.272 NA
ATOM     13  C   UNL     1     -11.442  14.433  66.506  0.00  0.00    +0.062 C 
ATOM     14  C   UNL     1     -10.131  14.055  65.589  0.00  0.00    +0.018 C 
ATOM     15  C   UNL     1     -10.480  12.680  65.151  0.00  0.00    +0.019 C 
ATOM     16  C   UNL     1     -11.955  12.649  65.127  0.00  0.00    +0.072 C 
ENDBRANCH  10  13
ENDBRANCH   1  10
BRANCH   6  17
ATOM     17  C   UNL     1     -12.604   9.479  71.650  0.00  0.00    +0.052 C 
BRANCH  17  18
ATOM     18  C   UNL     1     -11.147   9.092  71.649  0.00  0.00    +0.161 C 
BRANCH  18  19
ATOM     19  S   UNL     1     -10.811   7.652  70.702  0.00  0.00    +0.009 S 
ATOM     20  O   UNL     1     -11.994   6.770  70.485  0.00  0.00    -0.169 OA
ATOM     21  O   UNL     1      -9.677   6.917  71.378  0.00  0.00    -0.169 OA
BRANCH  19  22
ATOM     22  C   UNL     1     -10.241   8.123  69.105  0.00  0.00    +0.106 A 
ATOM     23  C   UNL     1      -9.505   9.281  68.940  0.00  0.00    +0.018 A 
ATOM     24  C   UNL     1      -9.463   9.911  67.706  0.00  0.00    +0.001 A 
ATOM     25  C   UNL     1     -10.187   9.341  66.666  0.00  0.00    +0.000 A 
ATOM     26  C   UNL     1     -10.398   7.971  66.756  0.00  0.00    +0.001 A 
ATOM     27  C   UNL     1     -10.500   7.373  67.988  0.00  0.00    +0.018 A 
ENDBRANCH  19  22
ENDBRANCH  18  19
ENDBRANCH  17  18
ENDBRANCH   6  17
TORSDOF 6
ENDMDL
MODEL 9
REMARK VINA RESULT:      -6.5      4.605      6.993
REMARK  Name = 
REMARK  6 active torsions:
REMARK  status: ('A' for Active; 'I' for Inactive)
REMARK    1  A    between atoms: C_6  and  C_7
REMARK    2  A    between atoms: C_7  and  C_8
REMARK    3  A    between atoms: C_14  and  C_15
REMARK    4  A    between atoms: C_15  and  C_16
REMARK    5  A    between atoms: C_16  and  S_17
REMARK    6  A    between atoms: S_17  and  C_20
REMARK                            x       y       z     vdW  Elec       q    Type
REMARK                         _______ _______ _______ _____ _____    ______ ____
ROOT
ATOM      1  C   UNL     1     -10.032  10.108  65.206  0.00  0.00    -0.000 A 
ATOM      2  C   UNL     1     -10.881  11.182  65.178  0.00  0.00    +0.015 A 
ATOM      3  C   UNL     1     -11.006  11.521  63.836  0.00  0.00    +0.081 A 
ATOM      4  C   UNL     1     -11.925  12.518  63.536  0.00  0.00    +0.019 A 
ATOM      5  C   UNL     1     -12.210  13.428  64.516  0.00  0.00    -0.003 A 
ATOM      6  C   UNL     1     -11.990  13.191  65.862  0.00  0.00    -0.020 A 
ATOM      7  N   UNL     1     -10.034  10.915  63.114  0.00  0.00    -0.244 NA
ATOM      8  C   UNL     1     -11.348  12.025  66.180  0.00  0.00    -0.003 A 
ATOM      9  C   UNL     1      -9.448  10.022  63.949  0.00  0.00    +0.095 A 
ENDROOT
BRANCH   1  10
ATOM     10  C   UNL     1      -9.930   9.095  66.291  0.00  0.00    +0.044 C 
BRANCH  10  13
ATOM     11  C   UNL     1      -8.170   7.668  67.292  0.00  0.00    +0.090 C 
ATOM     12  N   UNL     1      -8.313   7.938  67.534  0.00  0.00    -0.272 NA
ATOM     13  C   UNL     1      -8.455   9.396  66.952  0.00  0.00    +0.062 C 
ATOM     14  C   UNL     1      -9.098   9.984  68.346  0.00  0.00    +0.018 C 
ATOM     15  C   UNL     1     -10.132   8.959  68.635  0.00  0.00    +0.019 C 
ATOM     16  C   UNL     1      -9.613   7.714  68.036  0.00  0.00    +0.072 C 
ENDBRANCH  10  13
ENDBRANCH   1  10
BRANCH   6  17
ATOM     17  C   UNL     1     -12.144  14.348  66.778  0.00  0.00    +0.052 C 
BRANCH  17  18
ATOM     18  C   UNL     1     -11.875  13.950  68.206  0.00  0.00    +0.161 C 
BRANCH  18  19
ATOM     19  S   UNL     1     -11.331  15.286  69.208  0.00  0.00    +0.009 S 
ATOM     20  O   UNL     1     -11.571  16.634  68.617  0.00  0.00    -0.169 OA
ATOM     21  O   UNL     1      -9.870  15.058  69.518  0.00  0.00    -0.169 OA
BRANCH  19  22
ATOM     22  C   UNL     1     -12.194  15.253  70.741  0.00  0.00    +0.106 A 
ATOM     23  C   UNL     1     -11.937  16.206  71.709  0.00  0.00    +0.018 A 
ATOM     24  C   UNL     1     -12.216  15.941  73.041  0.00  0.00    +0.001 A 
ATOM     25  C   UNL     1     -12.748  14.696  73.352  0.00  0.00    +0.000 A 
ATOM     26  C   UNL     1     -13.469  14.075  72.340  0.00  0.00    +0.001 A 
ATOM     27  C   UNL     1     -13.137  14.300  71.026  0.00  0.00    +0.018 A 
ENDBRANCH  19  22
ENDBRANCH  18  19
ENDBRANCH  17  18
ENDBRANCH   6  17
TORSDOF 6
ENDMDL
