MODEL 1
REMARK VINA RESULT:      -5.9      0.000      0.000
REMARK  Name = 
REMARK  6 active torsions:
REMARK  status: ('A' for Active; 'I' for Inactive)
REMARK    1  A    between atoms: O_2  and  C_3
REMARK    2  A    between atoms: C_3  and  C_5
REMARK    3  A    between atoms: C_11  and  C_12
REMARK    4  A    between atoms: N_19  and  C_20
REMARK    5  A    between atoms: C_20  and  C_21
REMARK    6  A    between atoms: C_21  and  C_22
REMARK                            x       y       z     vdW  Elec       q    Type
REMARK                         _______ _______ _______ _____ _____    ______ ____
ROOT
ATOM      1  C   UNL     1     -11.240  15.262  67.342  0.00  0.00    +0.118 C 
ATOM      2  C   UNL     1     -10.366  16.587  66.715  0.00  0.00    +0.036 C 
ATOM      3  C   UNL     1      -9.201  15.649  65.999  0.00  0.00    +0.021 C 
ATOM      4  C   UNL     1     -10.045  14.471  66.754  0.00  0.00    +0.058 C 
ATOM      5  N   UNL     1     -10.398  13.659  65.576  0.00  0.00    -0.275 NA
ATOM      6  C   UNL     1      -8.809  13.419  67.244  0.00  0.00    +0.017 C 
ATOM      7  C   UNL     1     -10.125  13.005  67.865  0.00  0.00    +0.018 C 
ATOM      8  C   UNL     1      -9.894  14.316  66.912  0.00  0.00    +0.068 C 
ENDROOT
BRANCH   2   9
ATOM      9  C   UNL     1      -9.466  17.002  67.949  0.00  0.00    -0.022 A 
ATOM     10  C   UNL     1      -8.152  16.777  68.040  0.00  0.00    -0.004 A 
ATOM     11  C   UNL     1      -7.305  17.586  68.799  0.00  0.00    +0.005 A 
ATOM     12  C   UNL     1      -7.576  18.944  68.649  0.00  0.00    +0.030 A 
ATOM     13  I   UNL     1      -6.039  20.354  68.303  0.00  0.00    -0.043 I 
ATOM     14  C   UNL     1      -8.913  19.292  68.536  0.00  0.00    +0.005 A 
ATOM     15  C   UNL     1      -9.863  18.295  68.326  0.00  0.00    -0.004 A 
ENDBRANCH   2   9
BRANCH   1  16
ATOM     16  C   UNL     1     -10.847  15.343  68.870  0.00  0.00    +0.318 C 
ATOM     17  O   UNL     1     -11.091  14.195  69.380  0.00  0.00    -0.250 OA
BRANCH  16  19
ATOM     18  C   UNL     1     -11.913  15.889  70.516  0.00  0.00    +0.256 C 
ATOM     19  O   UNL     1     -11.552  16.306  69.615  0.00  0.00    -0.444 OA
ENDBRANCH  16  19
ENDBRANCH   1  16
BRANCH   5  20
ATOM     20  C   UNL     1     -11.329  12.674  66.038  0.00  0.00    +0.075 C 
BRANCH  20  21
ATOM     21  C   UNL     1     -12.465  12.697  65.053  0.00  0.00    +0.055 C 
BRANCH  21  22
ATOM     22  C   UNL     1     -11.964  12.278  63.715  0.00  0.00    +0.195 C 
ATOM     23  F   UNL     1     -12.851  11.558  62.964  0.00  0.00    -0.234 F 
ENDBRANCH  21  22
ENDBRANCH  20  21
ENDBRANCH   5  20
TORSDOF 6
ENDMDL
MODEL 2
REMARK VINA RESULT:      -5.7      3.830      6.009
REMARK  Name = 
REMARK  6 active torsions:
REMARK  status: ('A' for Active; 'I' for Inactive)
REMARK    1  A    between atoms: O_2  and  C_3
REMARK    2  A    between atoms: C_3  and  C_5
REMARK    3  A    between atoms: C_11  and  C_12
REMARK    4  A    between atoms: N_19  and  C_20
REMARK    5  A    between atoms: C_20  and  C_21
REMARK    6  A    between atoms: C_21  and  C_22
REMARK                            x       y       z     vdW  Elec       q    Type
REMARK                         _______ _______ _______ _____ _____    ______ ____
ROOT
ATOM      1  C   UNL     1     -11.569  14.778  67.194  0.00  0.00    +0.118 C 
ATOM      2  C   UNL     1     -11.440  13.923  68.665  0.00  0.00    +0.036 C 
ATOM      3  C   UNL     1      -9.957  14.554  69.054  0.00  0.00    +0.021 C 
ATOM      4  C   UNL     1     -10.133  15.218  67.572  0.00  0.00    +0.058 C 
ATOM      5  N   UNL     1     -10.032  16.639  67.951  0.00  0.00    -0.275 NA
ATOM      6  C   UNL     1      -8.547  15.153  66.973  0.00  0.00    +0.017 C 
ATOM      7  C   UNL     1      -9.506  15.562  65.876  0.00  0.00    +0.018 C 
ATOM      8  C   UNL     1      -9.928  15.168  67.407  0.00  0.00    +0.068 C 
ENDROOT
BRANCH   2   9
ATOM      9  C   UNL     1     -10.871  12.526  68.185  0.00  0.00    -0.022 A 
ATOM     10  C   UNL     1      -9.591  12.152  68.286  0.00  0.00    -0.004 A 
ATOM     11  C   UNL     1      -9.210  10.814  68.394  0.00  0.00    +0.005 A 
ATOM     12  C   UNL     1     -10.018  10.089  69.266  0.00  0.00    +0.030 A 
ATOM     13  I   UNL     1      -9.200   8.812  70.740  0.00  0.00    -0.043 I 
ATOM     14  C   UNL     1     -11.368  10.402  69.252  0.00  0.00    +0.005 A 
ATOM     15  C   UNL     1     -11.796  11.549  68.587  0.00  0.00    -0.004 A 
ENDBRANCH   2   9
BRANCH   1  16
ATOM     16  C   UNL     1     -11.284  13.624  66.153  0.00  0.00    +0.318 C 
ATOM     17  O   UNL     1     -10.996  14.187  65.041  0.00  0.00    -0.250 OA
BRANCH  16  19
ATOM     18  C   UNL     1     -12.524  12.616  64.892  0.00  0.00    +0.256 C 
ATOM     19  O   UNL     1     -12.363  12.749  65.927  0.00  0.00    -0.444 OA
ENDBRANCH  16  19
ENDBRANCH   1  16
BRANCH   5  20
ATOM     20  C   UNL     1     -10.374  17.387  66.778  0.00  0.00    +0.075 C 
BRANCH  20  21
ATOM     21  C   UNL     1     -10.600  18.796  67.249  0.00  0.00    +0.055 C 
BRANCH  21  22
ATOM     22  C   UNL     1     -10.128  19.747  66.206  0.00  0.00    +0.195 C 
ATOM     23  F   UNL     1     -10.992  19.939  65.163  0.00  0.00    -0.234 F 
ENDBRANCH  21  22
ENDBRANCH  20  21
ENDBRANCH   5  20
TORSDOF 6
ENDMDL
MODEL 3
REMARK VINA RESULT:      -5.7      3.911      6.319
REMARK  Name = 
REMARK  6 active torsions:
REMARK  status: ('A' for Active; 'I' for Inactive)
REMARK    1  A    between atoms: O_2  and  C_3
REMARK    2  A    between atoms: C_3  and  C_5
REMARK    3  A    between atoms: C_11  and  C_12
REMARK    4  A    between atoms: N_19  and  C_20
REMARK    5  A    between atoms: C_20  and  C_21
REMARK    6  A    between atoms: C_21  and  C_22
REMARK                            x       y       z     vdW  Elec       q    Type
REMARK                         _______ _______ _______ _____ _____    ______ ____
ROOT
ATOM      1  C   UNL     1      -9.204  16.683  68.621  0.00  0.00    +0.118 C 
ATOM      2  C   UNL     1      -8.993  15.324  67.611  0.00  0.00    +0.036 C 
ATOM      3  C   UNL     1      -8.180  16.160  66.433  0.00  0.00    +0.021 C 
ATOM      4  C   UNL     1      -8.552  17.410  67.418  0.00  0.00    +0.058 C 
ATOM      5  N   UNL     1      -7.186  17.892  67.691  0.00  0.00    -0.275 NA
ATOM      6  C   UNL     1      -8.882  18.643  66.302  0.00  0.00    +0.017 C 
ATOM      7  C   UNL     1      -9.267  19.082  67.699  0.00  0.00    +0.018 C 
ATOM      8  C   UNL     1      -8.681  17.609  67.294  0.00  0.00    +0.068 C 
ENDROOT
BRANCH   2   9
ATOM      9  C   UNL     1     -10.366  15.282  66.824  0.00  0.00    -0.022 A 
ATOM     10  C   UNL     1     -10.498  15.514  65.514  0.00  0.00    -0.004 A 
ATOM     11  C   UNL     1     -11.529  14.957  64.756  0.00  0.00    +0.005 A 
ATOM     12  C   UNL     1     -11.758  13.616  65.057  0.00  0.00    +0.030 A 
ATOM     13  I   UNL     1     -11.969  12.155  63.543  0.00  0.00    -0.043 I 
ATOM     14  C   UNL     1     -11.639  13.261  66.391  0.00  0.00    +0.005 A 
ATOM     15  C   UNL     1     -11.069  14.160  67.290  0.00  0.00    -0.004 A 
ENDBRANCH   2   9
BRANCH   1  16
ATOM     16  C   UNL     1     -10.735  16.994  68.387  0.00  0.00    +0.318 C 
ATOM     17  O   UNL     1     -10.894  18.250  68.567  0.00  0.00    -0.250 OA
BRANCH  16  19
ATOM     18  C   UNL     1     -11.229  16.294  70.234  0.00  0.00    +0.256 C 
ATOM     19  O   UNL     1     -11.617  16.318  69.252  0.00  0.00    -0.444 OA
ENDBRANCH  16  19
ENDBRANCH   1  16
BRANCH   5  20
ATOM     20  C   UNL     1      -7.314  18.880  68.720  0.00  0.00    +0.075 C 
BRANCH  20  21
ATOM     21  C   UNL     1      -5.916  19.360  68.994  0.00  0.00    +0.055 C 
BRANCH  21  22
ATOM     22  C   UNL     1      -5.783  20.773  68.542  0.00  0.00    +0.195 C 
ATOM     23  F   UNL     1      -6.683  21.164  67.591  0.00  0.00    -0.234 F 
ENDBRANCH  21  22
ENDBRANCH  20  21
ENDBRANCH   5  20
TORSDOF 6
ENDMDL
MODEL 4
REMARK VINA RESULT:      -5.7      3.017      4.254
REMARK  Name = 
REMARK  6 active torsions:
REMARK  status: ('A' for Active; 'I' for Inactive)
REMARK    1  A    between atoms: O_2  and  C_3
REMARK    2  A    between atoms: C_3  and  C_5
REMARK    3  A    between atoms: C_11  and  C_12
REMARK    4  A    between atoms: N_19  and  C_20
REMARK    5  A    between atoms: C_20  and  C_21
REMARK    6  A    between atoms: C_21  and  C_22
REMARK                            x       y       z     vdW  Elec       q    Type
REMARK                         _______ _______ _______ _____ _____    ______ ____
ROOT
ATOM      1  C   UNL     1      -9.886  13.963  66.096  0.00  0.00    +0.118 C 
ATOM      2  C   UNL     1     -10.121  13.444  67.705  0.00  0.00    +0.036 C 
ATOM      3  C   UNL     1     -11.557  12.679  67.389  0.00  0.00    +0.021 C 
ATOM      4  C   UNL     1     -11.292  13.335  65.916  0.00  0.00    +0.058 C 
ATOM      5  N   UNL     1     -11.286  12.097  65.117  0.00  0.00    -0.275 NA
ATOM      6  C   UNL     1     -12.862  13.765  65.440  0.00  0.00    +0.017 C 
ATOM      7  C   UNL     1     -11.846  14.337  64.475  0.00  0.00    +0.018 C 
ATOM      8  C   UNL     1     -11.496  13.484  65.827  0.00  0.00    +0.068 C 
ENDROOT
BRANCH   2   9
ATOM      9  C   UNL     1     -10.789  14.717  68.368  0.00  0.00    -0.022 A 
ATOM     10  C   UNL     1     -12.088  14.823  68.667  0.00  0.00    -0.004 A 
ATOM     11  C   UNL     1     -12.552  15.642  69.698  0.00  0.00    +0.005 A 
ATOM     12  C   UNL     1     -11.774  15.556  70.850  0.00  0.00    +0.030 A 
ATOM     13  I   UNL     1     -12.640  15.316  72.764  0.00  0.00    -0.043 I 
ATOM     14  C   UNL     1     -10.407  15.433  70.656  0.00  0.00    +0.005 A 
ATOM     15  C   UNL     1      -9.921  15.152  69.381  0.00  0.00    -0.004 A 
ENDBRANCH   2   9
BRANCH   1  16
ATOM     16  C   UNL     1     -10.238  15.498  66.224  0.00  0.00    +0.318 C 
ATOM     17  O   UNL     1     -10.409  15.942  65.037  0.00  0.00    -0.250 OA
BRANCH  16  19
ATOM     18  C   UNL     1      -8.427  16.426  66.194  0.00  0.00    +0.256 C 
ATOM     19  O   UNL     1      -9.248  16.284  66.842  0.00  0.00    -0.444 OA
ENDBRANCH  16  19
ENDBRANCH   1  16
BRANCH   5  20
ATOM     20  C   UNL     1     -10.856  12.475  63.804  0.00  0.00    +0.075 C 
BRANCH  20  21
ATOM     21  C   UNL     1     -10.136  11.275  63.254  0.00  0.00    +0.055 C 
BRANCH  21  22
ATOM     22  C   UNL     1      -9.780  10.359  64.372  0.00  0.00    +0.195 C 
ATOM     23  F   UNL     1      -8.551  10.575  64.930  0.00  0.00    -0.234 F 
ENDBRANCH  21  22
ENDBRANCH  20  21
ENDBRANCH   5  20
TORSDOF 6
ENDMDL
MODEL 5
REMARK VINA RESULT:      -5.5      3.675      5.836
REMARK  Name = 
REMARK  6 active torsions:
REMARK  status: ('A' for Active; 'I' for Inactive)
REMARK    1  A    between atoms: O_2  and  C_3
REMARK    2  A    between atoms: C_3  and  C_5
REMARK    3  A    between atoms: C_11  and  C_12
REMARK    4  A    between atoms: N_19  and  C_20
REMARK    5  A    between atoms: C_20  and  C_21
REMARK    6  A    between atoms: C_21  and  C_22
REMARK                            x       y       z     vdW  Elec       q    Type
REMARK                         _______ _______ _______ _____ _____    ______ ____
ROOT
ATOM      1  C   UNL     1     -10.552  16.183  67.295  0.00  0.00    +0.118 C 
ATOM      2  C   UNL     1     -10.768  15.168  68.651  0.00  0.00    +0.036 C 
ATOM      3  C   UNL     1      -9.201  15.313  69.175  0.00  0.00    +0.021 C 
ATOM      4  C   UNL     1      -9.081  16.160  67.782  0.00  0.00    +0.058 C 
ATOM      5  N   UNL     1      -8.626  17.446  68.342  0.00  0.00    -0.275 NA
ATOM      6  C   UNL     1      -7.534  15.722  67.243  0.00  0.00    +0.017 C 
ATOM      7  C   UNL     1      -8.263  16.501  66.169  0.00  0.00    +0.018 C 
ATOM      8  C   UNL     1      -8.886  16.073  67.620  0.00  0.00    +0.068 C 
ENDROOT
BRANCH   2   9
ATOM      9  C   UNL     1     -10.567  13.730  68.021  0.00  0.00    -0.022 A 
ATOM     10  C   UNL     1      -9.467  12.984  68.167  0.00  0.00    -0.004 A 
ATOM     11  C   UNL     1      -9.497  11.590  68.111  0.00  0.00    +0.005 A 
ATOM     12  C   UNL     1     -10.573  11.042  68.804  0.00  0.00    +0.030 A 
ATOM     13  I   UNL     1     -10.331   9.420  70.138  0.00  0.00    -0.043 I 
ATOM     14  C   UNL     1     -11.768  11.742  68.728  0.00  0.00    +0.005 A 
ATOM     15  C   UNL     1     -11.771  13.033  68.204  0.00  0.00    -0.004 A 
ENDBRANCH   2   9
BRANCH   1  16
ATOM     16  C   UNL     1     -10.517  15.118  66.129  0.00  0.00    +0.318 C 
ATOM     17  O   UNL     1     -10.052  15.710  65.096  0.00  0.00    -0.250 OA
BRANCH  16  19
ATOM     18  C   UNL     1     -11.917  14.608  64.743  0.00  0.00    +0.256 C 
ATOM     19  O   UNL     1     -11.767  14.570  65.788  0.00  0.00    -0.444 OA
ENDBRANCH  16  19
ENDBRANCH   1  16
BRANCH   5  20
ATOM     20  C   UNL     1      -8.665  18.384  67.260  0.00  0.00    +0.075 C 
BRANCH  20  21
ATOM     21  C   UNL     1      -9.399  19.583  67.792  0.00  0.00    +0.055 C 
BRANCH  21  22
ATOM     22  C   UNL     1     -10.586  19.854  66.935  0.00  0.00    +0.195 C 
ATOM     23  F   UNL     1     -10.657  19.111  65.790  0.00  0.00    -0.234 F 
ENDBRANCH  21  22
ENDBRANCH  20  21
ENDBRANCH   5  20
TORSDOF 6
ENDMDL
MODEL 6
REMARK VINA RESULT:      -5.5      2.193      3.342
REMARK  Name = 
REMARK  6 active torsions:
REMARK  status: ('A' for Active; 'I' for Inactive)
REMARK    1  A    between atoms: O_2  and  C_3
REMARK    2  A    between atoms: C_3  and  C_5
REMARK    3  A    between atoms: C_11  and  C_12
REMARK    4  A    between atoms: N_19  and  C_20
REMARK    5  A    between atoms: C_20  and  C_21
REMARK    6  A    between atoms: C_21  and  C_22
REMARK                            x       y       z     vdW  Elec       q    Type
REMARK                         _______ _______ _______ _____ _____    ______ ____
ROOT
ATOM      1  C   UNL     1      -9.277  17.708  66.409  0.00  0.00    +0.118 C 
ATOM      2  C   UNL     1      -7.599  18.012  66.485  0.00  0.00    +0.036 C 
ATOM      3  C   UNL     1      -7.265  16.676  67.409  0.00  0.00    +0.021 C 
ATOM      4  C   UNL     1      -8.894  16.558  67.375  0.00  0.00    +0.058 C 
ATOM      5  N   UNL     1      -9.008  15.219  66.771  0.00  0.00    -0.275 NA
ATOM      6  C   UNL     1      -9.234  16.001  68.940  0.00  0.00    +0.017 C 
ATOM      7  C   UNL     1     -10.515  16.380  68.229  0.00  0.00    +0.018 C 
ATOM      8  C   UNL     1      -9.006  16.543  67.618  0.00  0.00    +0.068 C 
ENDROOT
BRANCH   2   9
ATOM      9  C   UNL     1      -7.504  19.036  67.689  0.00  0.00    -0.022 A 
ATOM     10  C   UNL     1      -7.086  18.724  68.920  0.00  0.00    -0.004 A 
ATOM     11  C   UNL     1      -6.492  19.660  69.767  0.00  0.00    +0.005 A 
ATOM     12  C   UNL     1      -5.571  20.475  69.113  0.00  0.00    +0.030 A 
ATOM     13  I   UNL     1      -3.653  20.858  69.916  0.00  0.00    -0.043 I 
ATOM     14  C   UNL     1      -5.900  20.854  67.820  0.00  0.00    +0.005 A 
ATOM     15  C   UNL     1      -6.960  20.222  67.172  0.00  0.00    -0.004 A 
ENDBRANCH   2   9
BRANCH   1  16
ATOM     16  C   UNL     1      -9.823  18.798  67.414  0.00  0.00    +0.318 C 
ATOM     17  O   UNL     1     -10.958  18.386  67.833  0.00  0.00    -0.250 OA
BRANCH  16  19
ATOM     18  C   UNL     1     -10.555  20.019  65.960  0.00  0.00    +0.256 C 
ATOM     19  O   UNL     1     -10.005  20.079  66.860  0.00  0.00    -0.444 OA
ENDBRANCH  16  19
ENDBRANCH   1  16
BRANCH   5  20
ATOM     20  C   UNL     1     -10.398  15.035  66.475  0.00  0.00    +0.075 C 
BRANCH  20  21
ATOM     21  C   UNL     1     -10.438  14.319  65.154  0.00  0.00    +0.055 C 
BRANCH  21  22
ATOM     22  C   UNL     1     -11.836  14.312  64.641  0.00  0.00    +0.195 C 
ATOM     23  F   UNL     1     -12.788  13.959  65.556  0.00  0.00    -0.234 F 
ENDBRANCH  21  22
ENDBRANCH  20  21
ENDBRANCH   5  20
TORSDOF 6
ENDMDL
MODEL 7
REMARK VINA RESULT:      -5.3      4.453      6.859
REMARK  Name = 
REMARK  6 active torsions:
REMARK  status: ('A' for Active; 'I' for Inactive)
REMARK    1  A    between atoms: O_2  and  C_3
REMARK    2  A    between atoms: C_3  and  C_5
REMARK    3  A    between atoms: C_11  and  C_12
REMARK    4  A    between atoms: N_19  and  C_20
REMARK    5  A    between atoms: C_20  and  C_21
REMARK    6  A    between atoms: C_21  and  C_22
REMARK                            x       y       z     vdW  Elec       q    Type
REMARK                         _______ _______ _______ _____ _____    ______ ____
ROOT
ATOM      1  C   UNL     1      -8.519  18.608  67.980  0.00  0.00    +0.118 C 
ATOM      2  C   UNL     1      -9.081  17.198  68.761  0.00  0.00    +0.036 C 
ATOM      3  C   UNL     1      -7.574  16.523  68.914  0.00  0.00    +0.021 C 
ATOM      4  C   UNL     1      -7.169  17.850  68.051  0.00  0.00    +0.058 C 
ATOM      5  N   UNL     1      -6.207  18.445  68.995  0.00  0.00    -0.275 NA
ATOM      6  C   UNL     1      -5.958  17.243  67.030  0.00  0.00    +0.017 C 
ATOM      7  C   UNL     1      -6.343  18.645  66.611  0.00  0.00    +0.018 C 
ATOM      8  C   UNL     1      -7.033  17.794  67.827  0.00  0.00    +0.068 C 
ENDROOT
BRANCH   2   9
ATOM      9  C   UNL     1      -9.510  16.293  67.535  0.00  0.00    -0.022 A 
ATOM     10  C   UNL     1      -8.822  15.234  67.095  0.00  0.00    -0.004 A 
ATOM     11  C   UNL     1      -9.434  14.165  66.438  0.00  0.00    +0.005 A 
ATOM     12  C   UNL     1     -10.632  13.777  67.034  0.00  0.00    +0.030 A 
ATOM     13  I   UNL     1     -11.072  11.748  67.430  0.00  0.00    -0.043 I 
ATOM     14  C   UNL     1     -11.424  14.799  67.536  0.00  0.00    +0.005 A 
ATOM     15  C   UNL     1     -10.893  16.082  67.648  0.00  0.00    -0.004 A 
ENDBRANCH   2   9
BRANCH   1  16
ATOM     16  C   UNL     1      -8.965  18.324  66.492  0.00  0.00    +0.318 C 
ATOM     17  O   UNL     1      -8.272  19.091  65.741  0.00  0.00    -0.250 OA
BRANCH  16  19
ATOM     18  C   UNL     1     -10.499  19.603  66.098  0.00  0.00    +0.256 C 
ATOM     19  O   UNL     1     -10.325  18.569  66.224  0.00  0.00    -0.444 OA
ENDBRANCH  16  19
ENDBRANCH   1  16
BRANCH   5  20
ATOM     20  C   UNL     1      -5.898  19.745  68.479  0.00  0.00    +0.075 C 
BRANCH  20  21
ATOM     21  C   UNL     1      -5.614  20.600  69.682  0.00  0.00    +0.055 C 
BRANCH  21  22
ATOM     22  C   UNL     1      -5.590  19.745  70.900  0.00  0.00    +0.195 C 
ATOM     23  F   UNL     1      -6.271  20.247  71.974  0.00  0.00    -0.234 F 
ENDBRANCH  21  22
ENDBRANCH  20  21
ENDBRANCH   5  20
TORSDOF 6
ENDMDL
MODEL 8
REMARK VINA RESULT:      -5.3      2.543      3.797
REMARK  Name = 
REMARK  6 active torsions:
REMARK  status: ('A' for Active; 'I' for Inactive)
REMARK    1  A    between atoms: O_2  and  C_3
REMARK    2  A    between atoms: C_3  and  C_5
REMARK    3  A    between atoms: C_11  and  C_12
REMARK    4  A    between atoms: N_19  and  C_20
REMARK    5  A    between atoms: C_20  and  C_21
REMARK    6  A    between atoms: C_21  and  C_22
REMARK                            x       y       z     vdW  Elec       q    Type
REMARK                         _______ _______ _______ _____ _____    ______ ____
ROOT
ATOM      1  C   UNL     1     -10.151  12.588  66.136  0.00  0.00    +0.118 C 
ATOM      2  C   UNL     1      -9.200  13.938  66.564  0.00  0.00    +0.036 C 
ATOM      3  C   UNL     1      -9.104  13.530  68.168  0.00  0.00    +0.021 C 
ATOM      4  C   UNL     1     -10.118  12.350  67.667  0.00  0.00    +0.058 C 
ATOM      5  N   UNL     1      -9.314  11.181  68.064  0.00  0.00    -0.275 NA
ATOM      6  C   UNL     1     -11.171  12.213  68.989  0.00  0.00    +0.017 C 
ATOM      7  C   UNL     1     -11.688  11.402  67.822  0.00  0.00    +0.018 C 
ATOM      8  C   UNL     1     -10.346  12.339  67.807  0.00  0.00    +0.068 C 
ENDROOT
BRANCH   2   9
ATOM      9  C   UNL     1     -10.296  15.061  66.775  0.00  0.00    -0.022 A 
ATOM     10  C   UNL     1     -10.614  15.598  67.957  0.00  0.00    -0.004 A 
ATOM     11  C   UNL     1     -11.123  16.892  68.077  0.00  0.00    +0.005 A 
ATOM     12  C   UNL     1     -10.462  17.811  67.265  0.00  0.00    +0.030 A 
ATOM     13  I   UNL     1      -9.811  19.683  68.003  0.00  0.00    -0.043 I 
ATOM     14  C   UNL     1     -10.077  17.356  66.014  0.00  0.00    +0.005 A 
ATOM     15  C   UNL     1     -10.133  15.991  65.737  0.00  0.00    -0.004 A 
ENDBRANCH   2   9
BRANCH   1  16
ATOM     16  C   UNL     1     -11.566  13.267  65.950  0.00  0.00    +0.318 C 
ATOM     17  O   UNL     1     -12.438  12.332  65.996  0.00  0.00    -0.250 OA
BRANCH  16  19
ATOM     18  C   UNL     1     -12.065  13.304  63.977  0.00  0.00    +0.256 C 
ATOM     19  O   UNL     1     -11.737  13.960  64.738  0.00  0.00    -0.444 OA
ENDBRANCH  16  19
ENDBRANCH   1  16
BRANCH   5  20
ATOM     20  C   UNL     1      -9.974  10.039  67.506  0.00  0.00    +0.075 C 
BRANCH  20  21
ATOM     21  C   UNL     1      -8.877   9.161  66.970  0.00  0.00    +0.055 C 
BRANCH  21  22
ATOM     22  C   UNL     1      -9.070   8.971  65.506  0.00  0.00    +0.195 C 
ATOM     23  F   UNL     1     -10.187   9.563  64.987  0.00  0.00    -0.234 F 
ENDBRANCH  21  22
ENDBRANCH  20  21
ENDBRANCH   5  20
TORSDOF 6
ENDMDL
MODEL 9
REMARK VINA RESULT:      -5.2      4.253      6.415
REMARK  Name = 
REMARK  6 active torsions:
REMARK  status: ('A' for Active; 'I' for Inactive)
REMARK    1  A    between atoms: O_2  and  C_3
REMARK    2  A    between atoms: C_3  and  C_5
REMARK    3  A    between atoms: C_11  and  C_12
REMARK    4  A    between atoms: N_19  and  C_20
REMARK    5  A    between atoms: C_20  and  C_21
REMARK    6  A    between atoms: C_21  and  C_22
REMARK                            x       y       z     vdW  Elec       q    Type
REMARK                         _______ _______ _______ _____ _____    ______ ____
ROOT
ATOM      1  C   UNL     1     -11.905  13.822  67.275  0.00  0.00    +0.118 C 
ATOM      2  C   UNL     1     -11.584  12.145  67.294  0.00  0.00    +0.036 C 
ATOM      3  C   UNL     1     -10.663  12.203  68.671  0.00  0.00    +0.021 C 
ATOM      4  C   UNL     1     -10.931  13.804  68.479  0.00  0.00    +0.058 C 
ATOM      5  N   UNL     1     -11.586  14.077  69.771  0.00  0.00    -0.275 NA
ATOM      6  C   UNL     1      -9.447  14.464  68.968  0.00  0.00    +0.017 C 
ATOM      7  C   UNL     1     -10.320  15.536  68.352  0.00  0.00    +0.018 C 
ATOM      8  C   UNL     1     -10.706  13.950  68.474  0.00  0.00    +0.068 C 
ENDROOT
BRANCH   2   9
ATOM      9  C   UNL     1     -10.348  12.036  66.310  0.00  0.00    -0.022 A 
ATOM     10  C   UNL     1      -9.091  11.792  66.694  0.00  0.00    -0.004 A 
ATOM     11  C   UNL     1      -8.163  11.167  65.861  0.00  0.00    +0.005 A 
ATOM     12  C   UNL     1      -8.699  10.082  65.171  0.00  0.00    +0.030 A 
ATOM     13  I   UNL     1      -7.698   8.223  65.067  0.00  0.00    -0.043 I 
ATOM     14  C   UNL     1     -10.006  10.223  64.731  0.00  0.00    +0.005 A 
ATOM     15  C   UNL     1     -10.774  11.287  65.202  0.00  0.00    -0.004 A 
ENDBRANCH   2   9
BRANCH   1  16
ATOM     16  C   UNL     1     -10.955  14.294  66.104  0.00  0.00    +0.318 C 
ATOM     17  O   UNL     1     -10.834  15.563  66.210  0.00  0.00    -0.250 OA
BRANCH  16  19
ATOM     18  C   UNL     1     -12.229  14.645  64.556  0.00  0.00    +0.256 C 
ATOM     19  O   UNL     1     -11.423  14.011  64.808  0.00  0.00    -0.444 OA
ENDBRANCH  16  19
ENDBRANCH   1  16
BRANCH   5  20
ATOM     20  C   UNL     1     -12.080  15.418  69.688  0.00  0.00    +0.075 C 
BRANCH  20  21
ATOM     21  C   UNL     1     -13.060  15.558  70.820  0.00  0.00    +0.055 C 
BRANCH  21  22
ATOM     22  C   UNL     1     -12.316  15.725  72.098  0.00  0.00    +0.195 C 
ATOM     23  F   UNL     1     -11.625  16.899  72.218  0.00  0.00    -0.234 F 
ENDBRANCH  21  22
ENDBRANCH  20  21
ENDBRANCH   5  20
TORSDOF 6
ENDMDL
