MODEL 1
REMARK VINA RESULT:      -7.8      0.000      0.000
REMARK  Name = 
REMARK  11 active torsions:
REMARK  status: ('A' for Active; 'I' for Inactive)
REMARK    1  A    between atoms: C_2  and  C_3
REMARK    2  A    between atoms: C_3  and  N_5
REMARK    3  A    between atoms: N_8  and  C_9
REMARK    4  A    between atoms: C_12  and  N_13
REMARK    5  A    between atoms: N_16  and  C_17
REMARK    6  A    between atoms: C_20  and  O_21
REMARK    7  A    between atoms: O_21  and  C_22
REMARK    8  A    between atoms: C_22  and  C_23
REMARK    9  A    between atoms: C_26  and  C_27
REMARK   10  A    between atoms: C_26  and  C_33
REMARK   11  A    between atoms: C_27  and  N_28
REMARK                            x       y       z     vdW  Elec       q    Type
REMARK                         _______ _______ _______ _____ _____    ______ ____
ROOT
ATOM      1  C   UNL     1     -10.954   9.822  70.582  0.00  0.00    +0.048 A 
ATOM      2  C   UNL     1     -10.902  10.524  69.391  0.00  0.00    +0.018 A 
ATOM      3  C   UNL     1     -11.529  11.754  69.236  0.00  0.00    +0.038 A 
ATOM      4  C   UNL     1     -12.110  12.288  70.368  0.00  0.00    +0.139 A 
ATOM      5  C   UNL     1     -12.637  11.370  71.268  0.00  0.00    +0.038 A 
ATOM      6  C   UNL     1     -12.021  10.135  71.411  0.00  0.00    +0.018 A 
ENDROOT
BRANCH   1  10
ATOM      7  N   UNL     1     -11.448   6.668  71.312  0.00  0.00    -0.304 N 
ATOM      8  C   UNL     1     -11.024   6.974  69.948  0.00  0.00    +0.112 C 
ATOM      9  C   UNL     1      -9.736   7.787  69.985  0.00  0.00    +0.112 C 
ATOM     10  N   UNL     1      -9.957   8.862  70.951  0.00  0.00    -0.304 N 
ATOM     11  C   UNL     1     -10.099   8.382  72.327  0.00  0.00    +0.112 C 
ATOM     12  C   UNL     1     -11.460   7.694  72.352  0.00  0.00    +0.112 C 
BRANCH   7  16
ATOM     13  C   UNL     1     -10.139   3.079  72.904  0.00  0.00    +0.070 A 
ATOM     14  C   UNL     1      -9.662   3.541  71.698  0.00  0.00    +0.019 A 
ATOM     15  C   UNL     1     -10.077   4.734  71.173  0.00  0.00    +0.016 A 
ATOM     16  C   UNL     1     -11.165   5.345  71.783  0.00  0.00    +0.048 A 
ATOM     17  C   UNL     1     -11.439   5.031  73.094  0.00  0.00    +0.016 A 
ATOM     18  C   UNL     1     -10.799   3.964  73.713  0.00  0.00    +0.019 A 
BRANCH  13  22
ATOM     19  N   UNL     1      -9.559   0.079  74.582  0.00  0.00    -0.202 N 
ATOM     20  C   UNL     1      -9.158   1.283  74.248  0.00  0.00    +0.352 A 
ATOM     21  O   UNL     1      -8.077   1.825  74.628  0.00  0.00    -0.244 OA
ATOM     22  N   UNL     1     -10.018   1.705  73.288  0.00  0.00    -0.240 N 
ATOM     23  C   UNL     1     -11.098   0.891  73.373  0.00  0.00    +0.207 A 
ATOM     24  N   UNL     1     -10.840  -0.057  74.307  0.00  0.00    -0.144 NA
BRANCH  19  25
ATOM     25  C   UNL     1      -8.919  -0.777  75.757  0.00  0.00    +0.110 C 
ATOM     26  C   UNL     1     -10.223  -1.813  75.827  0.00  0.00    +0.027 C 
BRANCH  25  28
ATOM     27  C   UNL     1      -7.941  -2.010  74.607  0.00  0.00    +0.002 C 
ATOM     28  C   UNL     1      -8.102  -1.790  74.715  0.00  0.00    +0.025 C 
ENDBRANCH  25  28
ENDBRANCH  19  25
ENDBRANCH  13  22
ENDBRANCH   7  16
ENDBRANCH   1  10
BRANCH   4  29
ATOM     29  O   UNL     1     -12.127  13.641  70.605  0.00  0.00    -0.473 OA
BRANCH  29  30
ATOM     30  C   UNL     1     -12.681  14.636  69.836  0.00  0.00    +0.237 C 
BRANCH  30  31
ATOM     31  C   UNL     1     -11.798  16.032  70.125  0.00  0.00    +0.191 C 
ATOM     32  O   UNL     1     -11.663  16.364  68.630  0.00  0.00    -0.325 OA
ATOM     33  C   UNL     1     -10.403  16.070  68.306  0.00  0.00    +0.231 C 
ATOM     34  O   UNL     1      -9.591  15.949  69.395  0.00  0.00    -0.327 OA
ATOM     35  C   UNL     1     -10.380  15.140  70.161  0.00  0.00    +0.178 C 
BRANCH  33  36
ATOM     36  C   UNL     1      -9.852  17.229  67.528  0.00  0.00    +0.041 A 
ATOM     37  C   UNL     1      -8.562  17.198  67.007  0.00  0.00    +0.059 A 
ATOM     38 CL   UNL     1      -7.776  15.654  66.783  0.00  0.00    -0.082 Cl
ATOM     39  C   UNL     1      -7.940  18.351  66.545  0.00  0.00    +0.023 A 
ATOM     40  C   UNL     1      -8.379  19.575  67.038  0.00  0.00    +0.058 A 
ATOM     41 CL   UNL     1      -7.294  20.940  67.242  0.00  0.00    -0.082 Cl
ATOM     42  C   UNL     1      -9.708  19.652  67.363  0.00  0.00    +0.011 A 
ATOM     43  C   UNL     1     -10.406  18.500  67.627  0.00  0.00    +0.002 A 
ENDBRANCH  33  36
BRANCH  33  44
ATOM     44  C   UNL     1     -10.479  14.876  67.411  0.00  0.00    +0.190 C 
BRANCH  44  45
ATOM     45  N   UNL     1     -11.479  14.928  66.392  0.00  0.00    -0.225 N 
ATOM     46  N   UNL     1     -11.222  15.183  65.108  0.00  0.00    -0.145 NA
ATOM     47  C   UNL     1     -12.186  14.708  64.320  0.00  0.00    +0.221 A 
ATOM     48  N   UNL     1     -12.900  13.887  65.089  0.00  0.00    -0.201 NA
ATOM     49  C   UNL     1     -12.403  13.934  66.320  0.00  0.00    +0.197 A 
ENDBRANCH  44  45
ENDBRANCH  33  44
ENDBRANCH  30  31
ENDBRANCH  29  30
ENDBRANCH   4  29
TORSDOF 11
ENDMDL
MODEL 2
REMARK VINA RESULT:      -7.7      2.090      3.091
REMARK  Name = 
REMARK  11 active torsions:
REMARK  status: ('A' for Active; 'I' for Inactive)
REMARK    1  A    between atoms: C_2  and  C_3
REMARK    2  A    between atoms: C_3  and  N_5
REMARK    3  A    between atoms: N_8  and  C_9
REMARK    4  A    between atoms: C_12  and  N_13
REMARK    5  A    between atoms: N_16  and  C_17
REMARK    6  A    between atoms: C_20  and  O_21
REMARK    7  A    between atoms: O_21  and  C_22
REMARK    8  A    between atoms: C_22  and  C_23
REMARK    9  A    between atoms: C_26  and  C_27
REMARK   10  A    between atoms: C_26  and  C_33
REMARK   11  A    between atoms: C_27  and  N_28
REMARK                            x       y       z     vdW  Elec       q    Type
REMARK                         _______ _______ _______ _____ _____    ______ ____
ROOT
ATOM      1  C   UNL     1     -10.554   9.620  69.211  0.00  0.00    +0.048 A 
ATOM      2  C   UNL     1     -10.315   9.186  67.920  0.00  0.00    +0.018 A 
ATOM      3  C   UNL     1     -10.555   9.995  66.816  0.00  0.00    +0.038 A 
ATOM      4  C   UNL     1     -10.935  11.294  67.085  0.00  0.00    +0.139 A 
ATOM      5  C   UNL     1     -11.696  11.476  68.233  0.00  0.00    +0.038 A 
ATOM      6  C   UNL     1     -11.469  10.657  69.331  0.00  0.00    +0.018 A 
ENDROOT
BRANCH   1  10
ATOM      7  N   UNL     1     -11.019   6.647  70.503  0.00  0.00    -0.304 N 
ATOM      8  C   UNL     1      -9.895   6.802  69.581  0.00  0.00    +0.112 C 
ATOM      9  C   UNL     1      -8.996   7.936  70.057  0.00  0.00    +0.112 C 
ATOM     10  N   UNL     1      -9.879   9.064  70.346  0.00  0.00    -0.304 N 
ATOM     11  C   UNL     1     -10.766   8.828  71.486  0.00  0.00    +0.112 C 
ATOM     12  C   UNL     1     -11.775   7.803  70.978  0.00  0.00    +0.112 C 
BRANCH   7  16
ATOM     13  C   UNL     1     -10.249   3.786  73.392  0.00  0.00    +0.070 A 
ATOM     14  C   UNL     1      -9.646   3.731  72.156  0.00  0.00    +0.019 A 
ATOM     15  C   UNL     1      -9.883   4.681  71.201  0.00  0.00    +0.016 A 
ATOM     16  C   UNL     1     -10.925   5.567  71.440  0.00  0.00    +0.048 A 
ATOM     17  C   UNL     1     -11.316   5.780  72.742  0.00  0.00    +0.016 A 
ATOM     18  C   UNL     1     -10.847   4.961  73.762  0.00  0.00    +0.019 A 
BRANCH  13  22
ATOM     19  N   UNL     1     -10.713   0.616  74.767  0.00  0.00    -0.202 N 
ATOM     20  C   UNL     1     -11.159   1.603  74.028  0.00  0.00    +0.352 A 
ATOM     21  O   UNL     1     -12.258   1.605  73.397  0.00  0.00    -0.244 OA
ATOM     22  N   UNL     1     -10.318   2.642  74.252  0.00  0.00    -0.240 N 
ATOM     23  C   UNL     1      -9.208   2.106  74.815  0.00  0.00    +0.207 A 
ATOM     24  N   UNL     1      -9.428   0.783  75.006  0.00  0.00    -0.144 NA
BRANCH  19  25
ATOM     25  C   UNL     1     -11.318  -0.853  74.750  0.00  0.00    +0.110 C 
ATOM     26  C   UNL     1      -9.931  -1.523  75.385  0.00  0.00    +0.027 C 
BRANCH  25  28
ATOM     27  C   UNL     1     -12.142  -0.760  76.513  0.00  0.00    +0.002 C 
ATOM     28  C   UNL     1     -12.001  -0.701  76.263  0.00  0.00    +0.025 C 
ENDBRANCH  25  28
ENDBRANCH  19  25
ENDBRANCH  13  22
ENDBRANCH   7  16
ENDBRANCH   1  10
BRANCH   4  29
ATOM     29  O   UNL     1     -10.549  12.342  66.286  0.00  0.00    -0.473 OA
BRANCH  29  30
ATOM     30  C   UNL     1     -10.989  13.643  66.313  0.00  0.00    +0.237 C 
BRANCH  30  31
ATOM     31  C   UNL     1      -9.657  14.620  66.022  0.00  0.00    +0.191 C 
ATOM     32  O   UNL     1      -9.554  15.070  67.489  0.00  0.00    -0.325 OA
ATOM     33  C   UNL     1     -10.009  16.323  67.517  0.00  0.00    +0.231 C 
ATOM     34  O   UNL     1     -10.054  16.898  66.281  0.00  0.00    -0.327 OA
ATOM     35  C   UNL     1     -10.667  15.888  65.597  0.00  0.00    +0.178 C 
BRANCH  33  36
ATOM     36  C   UNL     1      -9.030  17.146  68.302  0.00  0.00    +0.041 A 
ATOM     37  C   UNL     1      -9.052  18.535  68.248  0.00  0.00    +0.059 A 
ATOM     38 CL   UNL     1     -10.510  19.340  67.718  0.00  0.00    -0.082 Cl
ATOM     39  C   UNL     1      -7.991  19.295  68.726  0.00  0.00    +0.023 A 
ATOM     40  C   UNL     1      -6.738  18.699  68.796  0.00  0.00    +0.058 A 
ATOM     41 CL   UNL     1      -5.257  19.612  68.566  0.00  0.00    -0.082 Cl
ATOM     42  C   UNL     1      -6.724  17.352  69.050  0.00  0.00    +0.011 A 
ATOM     43  C   UNL     1      -7.842  16.603  68.777  0.00  0.00    +0.002 A 
ENDBRANCH  33  36
BRANCH  33  44
ATOM     44  C   UNL     1     -11.305  16.270  68.260  0.00  0.00    +0.190 C 
BRANCH  44  45
ATOM     45  N   UNL     1     -11.261  15.629  69.536  0.00  0.00    -0.225 N 
ATOM     46  N   UNL     1     -11.320  16.281  70.699  0.00  0.00    -0.145 NA
ATOM     47  C   UNL     1     -11.744  15.482  71.678  0.00  0.00    +0.221 A 
ATOM     48  N   UNL     1     -12.243  14.408  71.068  0.00  0.00    -0.201 NA
ATOM     49  C   UNL     1     -12.052  14.547  69.761  0.00  0.00    +0.197 A 
ENDBRANCH  44  45
ENDBRANCH  33  44
ENDBRANCH  30  31
ENDBRANCH  29  30
ENDBRANCH   4  29
TORSDOF 11
ENDMDL
MODEL 3
REMARK VINA RESULT:      -7.6      6.508      9.159
REMARK  Name = 
REMARK  11 active torsions:
REMARK  status: ('A' for Active; 'I' for Inactive)
REMARK    1  A    between atoms: C_2  and  C_3
REMARK    2  A    between atoms: C_3  and  N_5
REMARK    3  A    between atoms: N_8  and  C_9
REMARK    4  A    between atoms: C_12  and  N_13
REMARK    5  A    between atoms: N_16  and  C_17
REMARK    6  A    between atoms: C_20  and  O_21
REMARK    7  A    between atoms: O_21  and  C_22
REMARK    8  A    between atoms: C_22  and  C_23
REMARK    9  A    between atoms: C_26  and  C_27
REMARK   10  A    between atoms: C_26  and  C_33
REMARK   11  A    between atoms: C_27  and  N_28
REMARK                            x       y       z     vdW  Elec       q    Type
REMARK                         _______ _______ _______ _____ _____    ______ ____
ROOT
ATOM      1  C   UNL     1      -6.402  18.523  67.437  0.00  0.00    +0.048 A 
ATOM      2  C   UNL     1      -7.002  19.391  68.331  0.00  0.00    +0.018 A 
ATOM      3  C   UNL     1      -8.366  19.655  68.297  0.00  0.00    +0.038 A 
ATOM      4  C   UNL     1      -9.106  18.918  67.396  0.00  0.00    +0.139 A 
ATOM      5  C   UNL     1      -8.455  18.572  66.217  0.00  0.00    +0.038 A 
ATOM      6  C   UNL     1      -7.090  18.325  66.247  0.00  0.00    +0.018 A 
ENDROOT
BRANCH   1  10
ATOM      7  N   UNL     1      -6.006  15.963  69.440  0.00  0.00    -0.304 N 
ATOM      8  C   UNL     1      -6.129  15.676  68.012  0.00  0.00    +0.112 C 
ATOM      9  C   UNL     1      -5.085  16.473  67.239  0.00  0.00    +0.112 C 
ATOM     10  N   UNL     1      -5.174  17.847  67.729  0.00  0.00    -0.304 N 
ATOM     11  C   UNL     1      -4.753  17.992  69.124  0.00  0.00    +0.112 C 
ATOM     12  C   UNL     1      -5.868  17.332  69.930  0.00  0.00    +0.112 C 
BRANCH   7  16
ATOM     13  C   UNL     1      -4.571  13.058  72.014  0.00  0.00    +0.070 A 
ATOM     14  C   UNL     1      -4.619  14.381  72.388  0.00  0.00    +0.019 A 
ATOM     15  C   UNL     1      -5.107  15.346  71.549  0.00  0.00    +0.016 A 
ATOM     16  C   UNL     1      -5.333  14.975  70.230  0.00  0.00    +0.048 A 
ATOM     17  C   UNL     1      -5.540  13.645  69.951  0.00  0.00    +0.016 A 
ATOM     18  C   UNL     1      -5.295  12.675  70.916  0.00  0.00    +0.019 A 
BRANCH  13  22
ATOM     19  N   UNL     1      -3.322  10.390  73.879  0.00  0.00    -0.202 N 
ATOM     20  C   UNL     1      -4.184  11.370  73.745  0.00  0.00    +0.352 A 
ATOM     21  O   UNL     1      -5.113  11.642  74.563  0.00  0.00    -0.244 OA
ATOM     22  N   UNL     1      -3.744  12.108  72.697  0.00  0.00    -0.240 N 
ATOM     23  C   UNL     1      -2.864  11.321  72.032  0.00  0.00    +0.207 A 
ATOM     24  N   UNL     1      -2.715  10.170  72.730  0.00  0.00    -0.144 NA
BRANCH  19  25
ATOM     25  C   UNL     1      -3.483   9.198  74.916  0.00  0.00    +0.110 C 
ATOM     26  C   UNL     1      -2.304   8.282  74.176  0.00  0.00    +0.027 C 
BRANCH  25  28
ATOM     27  C   UNL     1      -2.216   9.888  76.226  0.00  0.00    +0.002 C 
ATOM     28  C   UNL     1      -2.383   9.844  75.989  0.00  0.00    +0.025 C 
ENDBRANCH  25  28
ENDBRANCH  19  25
ENDBRANCH  13  22
ENDBRANCH   7  16
ENDBRANCH   1  10
BRANCH   4  29
ATOM     29  O   UNL     1     -10.391  18.518  67.668  0.00  0.00    -0.473 OA
BRANCH  29  30
ATOM     30  C   UNL     1     -10.904  17.243  67.681  0.00  0.00    +0.237 C 
BRANCH  30  31
ATOM     31  C   UNL     1      -9.834  16.289  68.551  0.00  0.00    +0.191 C 
ATOM     32  O   UNL     1      -9.900  15.134  67.538  0.00  0.00    -0.325 OA
ATOM     33  C   UNL     1     -10.642  14.188  68.113  0.00  0.00    +0.231 C 
ATOM     34  O   UNL     1     -10.775  14.364  69.459  0.00  0.00    -0.327 OA
ATOM     35  C   UNL     1     -11.101  15.690  69.470  0.00  0.00    +0.178 C 
BRANCH  33  36
ATOM     36  C   UNL     1      -9.920  12.882  67.953  0.00  0.00    +0.041 A 
ATOM     37  C   UNL     1     -10.304  11.755  68.672  0.00  0.00    +0.059 A 
ATOM     38 CL   UNL     1     -11.916  11.686  69.343  0.00  0.00    -0.082 Cl
ATOM     39  C   UNL     1      -9.484  10.637  68.757  0.00  0.00    +0.023 A 
ATOM     40  C   UNL     1      -8.118  10.809  68.560  0.00  0.00    +0.058 A 
ATOM     41 CL   UNL     1      -6.925   9.821  69.384  0.00  0.00    -0.082 Cl
ATOM     42  C   UNL     1      -7.756  11.803  67.688  0.00  0.00    +0.011 A 
ATOM     43  C   UNL     1      -8.636  12.823  67.424  0.00  0.00    +0.002 A 
ENDBRANCH  33  36
BRANCH  33  44
ATOM     44  C   UNL     1     -11.916  14.138  67.333  0.00  0.00    +0.190 C 
BRANCH  44  45
ATOM     45  N   UNL     1     -11.809  13.622  66.004  0.00  0.00    -0.225 N 
ATOM     46  N   UNL     1     -12.339  12.463  65.610  0.00  0.00    -0.145 NA
ATOM     47  C   UNL     1     -12.526  12.443  64.290  0.00  0.00    +0.221 A 
ATOM     48  N   UNL     1     -12.394  13.708  63.895  0.00  0.00    -0.201 NA
ATOM     49  C   UNL     1     -12.069  14.443  64.953  0.00  0.00    +0.197 A 
ENDBRANCH  44  45
ENDBRANCH  33  44
ENDBRANCH  30  31
ENDBRANCH  29  30
ENDBRANCH   4  29
TORSDOF 11
ENDMDL
MODEL 4
REMARK VINA RESULT:      -7.6      3.053      5.494
REMARK  Name = 
REMARK  11 active torsions:
REMARK  status: ('A' for Active; 'I' for Inactive)
REMARK    1  A    between atoms: C_2  and  C_3
REMARK    2  A    between atoms: C_3  and  N_5
REMARK    3  A    between atoms: N_8  and  C_9
REMARK    4  A    between atoms: C_12  and  N_13
REMARK    5  A    between atoms: N_16  and  C_17
REMARK    6  A    between atoms: C_20  and  O_21
REMARK    7  A    between atoms: O_21  and  C_22
REMARK    8  A    between atoms: C_22  and  C_23
REMARK    9  A    between atoms: C_26  and  C_27
REMARK   10  A    between atoms: C_26  and  C_33
REMARK   11  A    between atoms: C_27  and  N_28
REMARK                            x       y       z     vdW  Elec       q    Type
REMARK                         _______ _______ _______ _____ _____    ______ ____
ROOT
ATOM      1  C   UNL     1      -9.925  12.720  66.219  0.00  0.00    +0.048 A 
ATOM      2  C   UNL     1      -8.898  13.472  66.761  0.00  0.00    +0.018 A 
ATOM      3  C   UNL     1      -9.058  14.817  67.073  0.00  0.00    +0.038 A 
ATOM      4  C   UNL     1     -10.329  15.331  66.919  0.00  0.00    +0.139 A 
ATOM      5  C   UNL     1     -11.083  14.782  65.888  0.00  0.00    +0.038 A 
ATOM      6  C   UNL     1     -10.911  13.444  65.564  0.00  0.00    +0.018 A 
ENDROOT
BRANCH   1  10
ATOM      7  N   UNL     1     -10.357  11.033  68.992  0.00  0.00    -0.304 N 
ATOM      8  C   UNL     1     -11.540  11.269  68.168  0.00  0.00    +0.112 C 
ATOM      9  C   UNL     1     -11.287  10.761  66.754  0.00  0.00    +0.112 C 
ATOM     10  N   UNL     1      -9.987  11.296  66.354  0.00  0.00    -0.304 N 
ATOM     11  C   UNL     1      -8.872  10.740  67.123  0.00  0.00    +0.112 C 
ATOM     12  C   UNL     1      -9.017  11.360  68.509  0.00  0.00    +0.112 C 
BRANCH   7  16
ATOM     13  C   UNL     1     -10.391   8.166  71.976  0.00  0.00    +0.070 A 
ATOM     14  C   UNL     1      -9.213   8.577  71.396  0.00  0.00    +0.019 A 
ATOM     15  C   UNL     1      -9.191   9.536  70.420  0.00  0.00    +0.016 A 
ATOM     16  C   UNL     1     -10.414   9.907  69.877  0.00  0.00    +0.048 A 
ATOM     17  C   UNL     1     -11.550   9.706  70.626  0.00  0.00    +0.016 A 
ATOM     18  C   UNL     1     -11.504   8.940  71.785  0.00  0.00    +0.019 A 
BRANCH  13  22
ATOM     19  N   UNL     1     -10.068   4.897  73.144  0.00  0.00    -0.202 N 
ATOM     20  C   UNL     1     -10.239   5.727  72.143  0.00  0.00    +0.352 A 
ATOM     21  O   UNL     1     -10.335   5.393  70.925  0.00  0.00    -0.244 OA
ATOM     22  N   UNL     1     -10.486   6.936  72.705  0.00  0.00    -0.240 N 
ATOM     23  C   UNL     1     -10.077   6.838  73.993  0.00  0.00    +0.207 A 
ATOM     24  N   UNL     1      -9.681   5.561  74.214  0.00  0.00    -0.144 NA
BRANCH  19  25
ATOM     25  C   UNL     1      -9.643   3.376  72.975  0.00  0.00    +0.110 C 
ATOM     26  C   UNL     1      -9.026   3.288  74.521  0.00  0.00    +0.027 C 
BRANCH  25  28
ATOM     27  C   UNL     1     -11.334   2.632  73.597  0.00  0.00    +0.002 C 
ATOM     28  C   UNL     1     -11.124   2.798  73.475  0.00  0.00    +0.025 C 
ENDBRANCH  25  28
ENDBRANCH  19  25
ENDBRANCH  13  22
ENDBRANCH   7  16
ENDBRANCH   1  10
BRANCH   4  29
ATOM     29  O   UNL     1     -10.828  16.294  67.761  0.00  0.00    -0.473 OA
BRANCH  29  30
ATOM     30  C   UNL     1     -10.224  17.451  68.189  0.00  0.00    +0.237 C 
BRANCH  30  31
ATOM     31  C   UNL     1      -9.867  18.355  66.821  0.00  0.00    +0.191 C 
ATOM     32  O   UNL     1      -8.366  18.028  66.888  0.00  0.00    -0.325 OA
ATOM     33  C   UNL     1      -7.773  19.137  67.330  0.00  0.00    +0.231 C 
ATOM     34  O   UNL     1      -8.565  20.241  67.223  0.00  0.00    -0.327 OA
ATOM     35  C   UNL     1      -9.713  19.734  67.761  0.00  0.00    +0.178 C 
BRANCH  33  36
ATOM     36  C   UNL     1      -6.593  19.407  66.442  0.00  0.00    +0.041 A 
ATOM     37  C   UNL     1      -5.817  20.550  66.605  0.00  0.00    +0.059 A 
ATOM     38 CL   UNL     1      -5.860  21.393  68.135  0.00  0.00    -0.082 Cl
ATOM     39  C   UNL     1      -4.917  20.960  65.628  0.00  0.00    +0.023 A 
ATOM     40  C   UNL     1      -5.134  20.540  64.321  0.00  0.00    +0.058 A 
ATOM     41 CL   UNL     1      -4.687  21.526  62.940  0.00  0.00    -0.082 Cl
ATOM     42  C   UNL     1      -5.725  19.312  64.172  0.00  0.00    +0.011 A 
ATOM     43  C   UNL     1      -6.457  18.785  65.207  0.00  0.00    +0.002 A 
ENDBRANCH  33  36
BRANCH  33  44
ATOM     44  C   UNL     1      -7.282  18.816  68.705  0.00  0.00    +0.190 C 
BRANCH  44  45
ATOM     45  N   UNL     1      -6.309  17.773  68.788  0.00  0.00    -0.225 N 
ATOM     46  N   UNL     1      -5.062  17.949  69.229  0.00  0.00    -0.145 NA
ATOM     47  C   UNL     1      -4.537  16.803  69.661  0.00  0.00    +0.221 A 
ATOM     48  N   UNL     1      -5.565  15.963  69.774  0.00  0.00    -0.201 NA
ATOM     49  C   UNL     1      -6.659  16.586  69.351  0.00  0.00    +0.197 A 
ENDBRANCH  44  45
ENDBRANCH  33  44
ENDBRANCH  30  31
ENDBRANCH  29  30
ENDBRANCH   4  29
TORSDOF 11
ENDMDL
MODEL 5
REMARK VINA RESULT:      -7.5      2.623      3.953
REMARK  Name = 
REMARK  11 active torsions:
REMARK  status: ('A' for Active; 'I' for Inactive)
REMARK    1  A    between atoms: C_2  and  C_3
REMARK    2  A    between atoms: C_3  and  N_5
REMARK    3  A    between atoms: N_8  and  C_9
REMARK    4  A    between atoms: C_12  and  N_13
REMARK    5  A    between atoms: N_16  and  C_17
REMARK    6  A    between atoms: C_20  and  O_21
REMARK    7  A    between atoms: O_21  and  C_22
REMARK    8  A    between atoms: C_22  and  C_23
REMARK    9  A    between atoms: C_26  and  C_27
REMARK   10  A    between atoms: C_26  and  C_33
REMARK   11  A    between atoms: C_27  and  N_28
REMARK                            x       y       z     vdW  Elec       q    Type
REMARK                         _______ _______ _______ _____ _____    ______ ____
ROOT
ATOM      1  C   UNL     1      -8.634   9.348  66.101  0.00  0.00    +0.048 A 
ATOM      2  C   UNL     1      -7.976  10.462  66.590  0.00  0.00    +0.018 A 
ATOM      3  C   UNL     1      -8.524  11.737  66.502  0.00  0.00    +0.038 A 
ATOM      4  C   UNL     1      -9.808  11.814  66.004  0.00  0.00    +0.139 A 
ATOM      5  C   UNL     1     -10.143  10.868  65.043  0.00  0.00    +0.038 A 
ATOM      6  C   UNL     1      -9.583   9.600  65.120  0.00  0.00    +0.018 A 
ENDROOT
BRANCH   1  10
ATOM      7  N   UNL     1      -9.933   7.980  68.778  0.00  0.00    -0.304 N 
ATOM      8  C   UNL     1     -10.563   7.662  67.498  0.00  0.00    +0.112 C 
ATOM      9  C   UNL     1      -9.517   7.110  66.537  0.00  0.00    +0.112 C 
ATOM     10  N   UNL     1      -8.381   8.028  66.597  0.00  0.00    -0.304 N 
ATOM     11  C   UNL     1      -7.697   8.019  67.891  0.00  0.00    +0.112 C 
ATOM     12  C   UNL     1      -8.669   8.711  68.841  0.00  0.00    +0.112 C 
BRANCH   7  16
ATOM     13  C   UNL     1     -10.575   5.708  72.177  0.00  0.00    +0.070 A 
ATOM     14  C   UNL     1      -9.342   6.255  71.907  0.00  0.00    +0.019 A 
ATOM     15  C   UNL     1      -9.125   7.021  70.795  0.00  0.00    +0.016 A 
ATOM     16  C   UNL     1     -10.128   7.031  69.833  0.00  0.00    +0.048 A 
ATOM     17  C   UNL     1     -11.410   6.723  70.224  0.00  0.00    +0.016 A 
ATOM     18  C   UNL     1     -11.654   6.188  71.483  0.00  0.00    +0.019 A 
BRANCH  13  22
ATOM     19  N   UNL     1     -10.300   2.740  73.984  0.00  0.00    -0.202 N 
ATOM     20  C   UNL     1     -10.331   3.361  72.829  0.00  0.00    +0.352 A 
ATOM     21  O   UNL     1     -10.188   2.807  71.698  0.00  0.00    -0.244 OA
ATOM     22  N   UNL     1     -10.737   4.625  73.100  0.00  0.00    -0.240 N 
ATOM     23  C   UNL     1     -10.562   4.793  74.434  0.00  0.00    +0.207 A 
ATOM     24  N   UNL     1     -10.148   3.615  74.957  0.00  0.00    -0.144 NA
BRANCH  19  25
ATOM     25  C   UNL     1      -9.774   1.254  74.183  0.00  0.00    +0.110 C 
ATOM     26  C   UNL     1      -9.715   1.406  75.841  0.00  0.00    +0.027 C 
BRANCH  25  28
ATOM     27  C   UNL     1     -11.540   0.439  74.312  0.00  0.00    +0.002 C 
ATOM     28  C   UNL     1     -11.309   0.607  74.243  0.00  0.00    +0.025 C 
ENDBRANCH  25  28
ENDBRANCH  19  25
ENDBRANCH  13  22
ENDBRANCH   7  16
ENDBRANCH   1  10
BRANCH   4  29
ATOM     29  O   UNL     1     -10.708  12.744  66.462  0.00  0.00    -0.473 OA
BRANCH  29  30
ATOM     30  C   UNL     1     -11.149  13.886  65.839  0.00  0.00    +0.237 C 
BRANCH  30  31
ATOM     31  C   UNL     1      -9.812  14.876  65.622  0.00  0.00    +0.191 C 
ATOM     32  O   UNL     1      -9.697  15.201  67.121  0.00  0.00    -0.325 OA
ATOM     33  C   UNL     1     -10.145  16.450  67.257  0.00  0.00    +0.231 C 
ATOM     34  O   UNL     1     -10.193  17.127  66.074  0.00  0.00    -0.327 OA
ATOM     35  C   UNL     1     -10.816  16.181  65.311  0.00  0.00    +0.178 C 
BRANCH  33  36
ATOM     36  C   UNL     1      -9.156  17.198  68.102  0.00  0.00    +0.041 A 
ATOM     37  C   UNL     1      -9.138  18.588  68.127  0.00  0.00    +0.059 A 
ATOM     38 CL   UNL     1     -10.563  19.464  67.623  0.00  0.00    -0.082 Cl
ATOM     39  C   UNL     1      -8.064  19.289  68.663  0.00  0.00    +0.023 A 
ATOM     40  C   UNL     1      -6.828  18.653  68.717  0.00  0.00    +0.058 A 
ATOM     41 CL   UNL     1      -5.319  19.536  68.561  0.00  0.00    -0.082 Cl
ATOM     42  C   UNL     1      -6.857  17.294  68.894  0.00  0.00    +0.011 A 
ATOM     43  C   UNL     1      -7.991  16.595  68.562  0.00  0.00    +0.002 A 
ENDBRANCH  33  36
BRANCH  33  44
ATOM     44  C   UNL     1     -11.436  16.342  68.001  0.00  0.00    +0.190 C 
BRANCH  44  45
ATOM     45  N   UNL     1     -11.366  15.694  69.272  0.00  0.00    -0.225 N 
ATOM     46  N   UNL     1     -11.573  16.312  70.436  0.00  0.00    -0.145 NA
ATOM     47  C   UNL     1     -11.929  15.447  71.385  0.00  0.00    +0.221 A 
ATOM     48  N   UNL     1     -12.241  14.323  70.741  0.00  0.00    -0.201 NA
ATOM     49  C   UNL     1     -12.007  14.508  69.446  0.00  0.00    +0.197 A 
ENDBRANCH  44  45
ENDBRANCH  33  44
ENDBRANCH  30  31
ENDBRANCH  29  30
ENDBRANCH   4  29
TORSDOF 11
ENDMDL
MODEL 6
REMARK VINA RESULT:      -7.5      4.846     11.596
REMARK  Name = 
REMARK  11 active torsions:
REMARK  status: ('A' for Active; 'I' for Inactive)
REMARK    1  A    between atoms: C_2  and  C_3
REMARK    2  A    between atoms: C_3  and  N_5
REMARK    3  A    between atoms: N_8  and  C_9
REMARK    4  A    between atoms: C_12  and  N_13
REMARK    5  A    between atoms: N_16  and  C_17
REMARK    6  A    between atoms: C_20  and  O_21
REMARK    7  A    between atoms: O_21  and  C_22
REMARK    8  A    between atoms: C_22  and  C_23
REMARK    9  A    between atoms: C_26  and  C_27
REMARK   10  A    between atoms: C_26  and  C_33
REMARK   11  A    between atoms: C_27  and  N_28
REMARK                            x       y       z     vdW  Elec       q    Type
REMARK                         _______ _______ _______ _____ _____    ______ ____
ROOT
ATOM      1  C   UNL     1      -7.259   8.114  64.439  0.00  0.00    +0.048 A 
ATOM      2  C   UNL     1      -8.019   7.117  63.855  0.00  0.00    +0.018 A 
ATOM      3  C   UNL     1      -7.905   5.786  64.238  0.00  0.00    +0.038 A 
ATOM      4  C   UNL     1      -7.075   5.531  65.310  0.00  0.00    +0.139 A 
ATOM      5  C   UNL     1      -5.971   6.366  65.433  0.00  0.00    +0.038 A 
ATOM      6  C   UNL     1      -6.079   7.691  65.035  0.00  0.00    +0.018 A 
ENDROOT
BRANCH   1  10
ATOM      7  N   UNL     1      -8.853   9.641  66.858  0.00  0.00    -0.304 N 
ATOM      8  C   UNL     1      -7.402   9.809  66.810  0.00  0.00    +0.112 C 
ATOM      9  C   UNL     1      -6.994  10.330  65.437  0.00  0.00    +0.112 C 
ATOM     10  N   UNL     1      -7.675   9.485  64.459  0.00  0.00    -0.304 N 
ATOM     11  C   UNL     1      -9.130   9.646  64.468  0.00  0.00    +0.112 C 
ATOM     12  C   UNL     1      -9.578   8.989  65.770  0.00  0.00    +0.112 C 
BRANCH   7  16
ATOM     13  C   UNL     1     -10.926  12.915  68.311  0.00  0.00    +0.070 A 
ATOM     14  C   UNL     1      -9.550  12.885  68.309  0.00  0.00    +0.019 A 
ATOM     15  C   UNL     1      -8.857  11.814  67.816  0.00  0.00    +0.016 A 
ATOM     16  C   UNL     1      -9.589  10.667  67.535  0.00  0.00    +0.048 A 
ATOM     17  C   UNL     1     -10.935  10.797  67.286  0.00  0.00    +0.016 A 
ATOM     18  C   UNL     1     -11.588  11.997  67.540  0.00  0.00    +0.019 A 
BRANCH  13  22
ATOM     19  N   UNL     1     -12.381  14.647  70.964  0.00  0.00    -0.202 N 
ATOM     20  C   UNL     1     -12.078  13.507  70.389  0.00  0.00    +0.352 A 
ATOM     21  O   UNL     1     -12.318  12.360  70.871  0.00  0.00    -0.244 OA
ATOM     22  N   UNL     1     -11.662  13.823  69.138  0.00  0.00    -0.240 N 
ATOM     23  C   UNL     1     -11.382  15.149  69.164  0.00  0.00    +0.207 A 
ATOM     24  N   UNL     1     -11.718  15.628  70.387  0.00  0.00    -0.144 NA
BRANCH  19  25
ATOM     25  C   UNL     1     -12.815  14.789  72.485  0.00  0.00    +0.110 C 
ATOM     26  C   UNL     1     -12.150  16.311  72.622  0.00  0.00    +0.027 C 
BRANCH  25  28
ATOM     27  C   UNL     1     -14.567  15.562  72.124  0.00  0.00    +0.002 C 
ATOM     28  C   UNL     1     -14.312  15.418  72.108  0.00  0.00    +0.025 C 
ENDBRANCH  25  28
ENDBRANCH  19  25
ENDBRANCH  13  22
ENDBRANCH   7  16
ENDBRANCH   1  10
BRANCH   4  29
ATOM     29  O   UNL     1      -7.349   4.538  66.218  0.00  0.00    -0.473 OA
BRANCH  29  30
ATOM     30  C   UNL     1      -7.630   4.660  67.558  0.00  0.00    +0.237 C 
BRANCH  30  31
ATOM     31  C   UNL     1      -9.092   5.474  67.682  0.00  0.00    +0.191 C 
ATOM     32  O   UNL     1      -8.636   6.290  68.902  0.00  0.00    -0.325 OA
ATOM     33  C   UNL     1      -9.261   5.755  69.951  0.00  0.00    +0.231 C 
ATOM     34  O   UNL     1     -10.318   4.971  69.594  0.00  0.00    -0.327 OA
ATOM     35  C   UNL     1      -9.715   4.231  68.618  0.00  0.00    +0.178 C 
BRANCH  33  36
ATOM     36  C   UNL     1      -9.854   6.879  70.750  0.00  0.00    +0.041 A 
ATOM     37  C   UNL     1     -10.581   6.632  71.910  0.00  0.00    +0.059 A 
ATOM     38 CL   UNL     1     -10.369   5.106  72.735  0.00  0.00    -0.082 Cl
ATOM     39  C   UNL     1     -11.371   7.615  72.493  0.00  0.00    +0.023 A 
ATOM     40  C   UNL     1     -11.825   8.654  71.687  0.00  0.00    +0.058 A 
ATOM     41 CL   UNL     1     -13.368   9.441  71.964  0.00  0.00    -0.082 Cl
ATOM     42  C   UNL     1     -10.998   9.024  70.658  0.00  0.00    +0.011 A 
ATOM     43  C   UNL     1     -10.060   8.135  70.193  0.00  0.00    +0.002 A 
ENDBRANCH  33  36
BRANCH  33  44
ATOM     44  C   UNL     1      -8.199   5.089  70.764  0.00  0.00    +0.190 C 
BRANCH  44  45
ATOM     45  N   UNL     1      -7.046   5.883  71.047  0.00  0.00    -0.225 N 
ATOM     46  N   UNL     1      -6.835   6.504  72.210  0.00  0.00    -0.145 NA
ATOM     47  C   UNL     1      -5.539   6.748  72.397  0.00  0.00    +0.221 A 
ATOM     48  N   UNL     1      -4.903   6.008  71.490  0.00  0.00    -0.201 NA
ATOM     49  C   UNL     1      -5.815   5.395  70.743  0.00  0.00    +0.197 A 
ENDBRANCH  44  45
ENDBRANCH  33  44
ENDBRANCH  30  31
ENDBRANCH  29  30
ENDBRANCH   4  29
TORSDOF 11
ENDMDL
MODEL 7
REMARK VINA RESULT:      -7.5      3.311      5.600
REMARK  Name = 
REMARK  11 active torsions:
REMARK  status: ('A' for Active; 'I' for Inactive)
REMARK    1  A    between atoms: C_2  and  C_3
REMARK    2  A    between atoms: C_3  and  N_5
REMARK    3  A    between atoms: N_8  and  C_9
REMARK    4  A    between atoms: C_12  and  N_13
REMARK    5  A    between atoms: N_16  and  C_17
REMARK    6  A    between atoms: C_20  and  O_21
REMARK    7  A    between atoms: O_21  and  C_22
REMARK    8  A    between atoms: C_22  and  C_23
REMARK    9  A    between atoms: C_26  and  C_27
REMARK   10  A    between atoms: C_26  and  C_33
REMARK   11  A    between atoms: C_27  and  N_28
REMARK                            x       y       z     vdW  Elec       q    Type
REMARK                         _______ _______ _______ _____ _____    ______ ____
ROOT
ATOM      1  C   UNL     1     -10.132  12.644  66.245  0.00  0.00    +0.048 A 
ATOM      2  C   UNL     1      -9.100  13.550  66.411  0.00  0.00    +0.018 A 
ATOM      3  C   UNL     1      -9.337  14.881  66.736  0.00  0.00    +0.038 A 
ATOM      4  C   UNL     1     -10.649  15.220  66.994  0.00  0.00    +0.139 A 
ATOM      5  C   UNL     1     -11.608  14.520  66.272  0.00  0.00    +0.038 A 
ATOM      6  C   UNL     1     -11.366  13.197  65.933  0.00  0.00    +0.018 A 
ENDROOT
BRANCH   1  10
ATOM      7  N   UNL     1     -10.606  10.928  68.994  0.00  0.00    -0.304 N 
ATOM      8  C   UNL     1     -11.695  10.934  68.019  0.00  0.00    +0.112 C 
ATOM      9  C   UNL     1     -11.171  10.471  66.665  0.00  0.00    +0.112 C 
ATOM     10  N   UNL     1      -9.949  11.233  66.416  0.00  0.00    -0.304 N 
ATOM     11  C   UNL     1      -8.861  10.900  67.337  0.00  0.00    +0.112 C 
ATOM     12  C   UNL     1      -9.297  11.493  68.673  0.00  0.00    +0.112 C 
BRANCH   7  16
ATOM     13  C   UNL     1     -10.383   8.123  72.028  0.00  0.00    +0.070 A 
ATOM     14  C   UNL     1      -9.249   8.587  71.401  0.00  0.00    +0.019 A 
ATOM     15  C   UNL     1      -9.312   9.525  70.408  0.00  0.00    +0.016 A 
ATOM     16  C   UNL     1     -10.571   9.818  69.899  0.00  0.00    +0.048 A 
ATOM     17  C   UNL     1     -11.669   9.569  70.690  0.00  0.00    +0.016 A 
ATOM     18  C   UNL     1     -11.543   8.830  71.860  0.00  0.00    +0.019 A 
BRANCH  13  22
ATOM     19  N   UNL     1      -9.925   4.867  73.189  0.00  0.00    -0.202 N 
ATOM     20  C   UNL     1     -10.227   5.686  72.209  0.00  0.00    +0.352 A 
ATOM     21  O   UNL     1     -10.491   5.335  71.020  0.00  0.00    -0.244 OA
ATOM     22  N   UNL     1     -10.386   6.904  72.781  0.00  0.00    -0.240 N 
ATOM     23  C   UNL     1      -9.804   6.820  74.002  0.00  0.00    +0.207 A 
ATOM     24  N   UNL     1      -9.390   5.543  74.185  0.00  0.00    -0.144 NA
BRANCH  19  25
ATOM     25  C   UNL     1      -9.538   3.340  72.986  0.00  0.00    +0.110 C 
ATOM     26  C   UNL     1      -8.932   3.200  74.532  0.00  0.00    +0.027 C 
BRANCH  25  28
ATOM     27  C   UNL     1     -11.275   2.730  73.626  0.00  0.00    +0.002 C 
ATOM     28  C   UNL     1     -11.036   2.789  73.466  0.00  0.00    +0.025 C 
ENDBRANCH  25  28
ENDBRANCH  19  25
ENDBRANCH  13  22
ENDBRANCH   7  16
ENDBRANCH   1  10
BRANCH   4  29
ATOM     29  O   UNL     1     -10.982  16.162  67.936  0.00  0.00    -0.473 OA
BRANCH  29  30
ATOM     30  C   UNL     1     -10.170  17.094  68.536  0.00  0.00    +0.237 C 
BRANCH  30  31
ATOM     31  C   UNL     1      -9.998  18.366  67.457  0.00  0.00    +0.191 C 
ATOM     32  O   UNL     1      -8.493  18.117  67.264  0.00  0.00    -0.325 OA
ATOM     33  C   UNL     1      -7.875  19.086  67.940  0.00  0.00    +0.231 C 
ATOM     34  O   UNL     1      -8.699  20.130  68.241  0.00  0.00    -0.327 OA
ATOM     35  C   UNL     1      -9.763  19.429  68.731  0.00  0.00    +0.178 C 
BRANCH  33  36
ATOM     36  C   UNL     1      -6.816  19.661  67.046  0.00  0.00    +0.041 A 
ATOM     37  C   UNL     1      -5.819  18.858  66.502  0.00  0.00    +0.059 A 
ATOM     38 CL   UNL     1      -6.081  17.133  66.403  0.00  0.00    -0.082 Cl
ATOM     39  C   UNL     1      -4.682  19.407  65.922  0.00  0.00    +0.023 A 
ATOM     40  C   UNL     1      -4.302  20.686  66.310  0.00  0.00    +0.058 A 
ATOM     41 CL   UNL     1      -2.619  21.182  66.363  0.00  0.00    -0.082 Cl
ATOM     42  C   UNL     1      -5.318  21.539  66.657  0.00  0.00    +0.011 A 
ATOM     43  C   UNL     1      -6.530  21.021  67.041  0.00  0.00    +0.002 A 
ENDBRANCH  33  36
BRANCH  33  44
ATOM     44  C   UNL     1      -7.217  18.417  69.104  0.00  0.00    +0.190 C 
BRANCH  44  45
ATOM     45  N   UNL     1      -6.193  19.171  69.755  0.00  0.00    -0.225 N 
ATOM     46  N   UNL     1      -6.431  20.154  70.626  0.00  0.00    -0.145 NA
ATOM     47  C   UNL     1      -5.385  20.352  71.427  0.00  0.00    +0.221 A 
ATOM     48  N   UNL     1      -4.602  19.287  71.256  0.00  0.00    -0.201 NA
ATOM     49  C   UNL     1      -5.148  18.515  70.324  0.00  0.00    +0.197 A 
ENDBRANCH  44  45
ENDBRANCH  33  44
ENDBRANCH  30  31
ENDBRANCH  29  30
ENDBRANCH   4  29
TORSDOF 11
ENDMDL
MODEL 8
REMARK VINA RESULT:      -7.4      4.013      8.153
REMARK  Name = 
REMARK  11 active torsions:
REMARK  status: ('A' for Active; 'I' for Inactive)
REMARK    1  A    between atoms: C_2  and  C_3
REMARK    2  A    between atoms: C_3  and  N_5
REMARK    3  A    between atoms: N_8  and  C_9
REMARK    4  A    between atoms: C_12  and  N_13
REMARK    5  A    between atoms: N_16  and  C_17
REMARK    6  A    between atoms: C_20  and  O_21
REMARK    7  A    between atoms: O_21  and  C_22
REMARK    8  A    between atoms: C_22  and  C_23
REMARK    9  A    between atoms: C_26  and  C_27
REMARK   10  A    between atoms: C_26  and  C_33
REMARK   11  A    between atoms: C_27  and  N_28
REMARK                            x       y       z     vdW  Elec       q    Type
REMARK                         _______ _______ _______ _____ _____    ______ ____
ROOT
ATOM      1  C   UNL     1     -10.056  16.855  67.174  0.00  0.00    +0.048 A 
ATOM      2  C   UNL     1     -10.508  17.605  66.103  0.00  0.00    +0.018 A 
ATOM      3  C   UNL     1     -10.458  18.994  66.106  0.00  0.00    +0.038 A 
ATOM      4  C   UNL     1      -9.829  19.578  67.186  0.00  0.00    +0.139 A 
ATOM      5  C   UNL     1      -9.952  18.904  68.395  0.00  0.00    +0.038 A 
ATOM      6  C   UNL     1     -10.020  17.518  68.392  0.00  0.00    +0.018 A 
ENDROOT
BRANCH   1  10
ATOM      7  N   UNL     1     -11.216  14.249  68.783  0.00  0.00    -0.304 N 
ATOM      8  C   UNL     1     -11.750  14.494  67.445  0.00  0.00    +0.112 C 
ATOM      9  C   UNL     1     -10.603  14.585  66.446  0.00  0.00    +0.112 C 
ATOM     10  N   UNL     1      -9.622  15.497  67.031  0.00  0.00    -0.304 N 
ATOM     11  C   UNL     1      -8.985  14.965  68.237  0.00  0.00    +0.112 C 
ATOM     12  C   UNL     1     -10.080  15.010  69.298  0.00  0.00    +0.112 C 
BRANCH   7  16
ATOM     13  C   UNL     1     -12.019  10.377  70.003  0.00  0.00    +0.070 A 
ATOM     14  C   UNL     1     -12.315  11.454  70.807  0.00  0.00    +0.019 A 
ATOM     15  C   UNL     1     -12.068  12.738  70.405  0.00  0.00    +0.016 A 
ATOM     16  C   UNL     1     -11.297  12.900  69.261  0.00  0.00    +0.048 A 
ATOM     17  C   UNL     1     -11.249  11.868  68.354  0.00  0.00    +0.016 A 
ATOM     18  C   UNL     1     -11.758  10.617  68.680  0.00  0.00    +0.019 A 
BRANCH  13  22
ATOM     19  N   UNL     1     -10.974   7.408  71.502  0.00  0.00    -0.202 N 
ATOM     20  C   UNL     1     -10.730   8.414  70.696  0.00  0.00    +0.352 A 
ATOM     21  O   UNL     1      -9.641   8.607  70.077  0.00  0.00    -0.244 OA
ATOM     22  N   UNL     1     -11.916   9.048  70.527  0.00  0.00    -0.240 N 
ATOM     23  C   UNL     1     -12.716   8.613  71.531  0.00  0.00    +0.207 A 
ATOM     24  N   UNL     1     -12.042   7.666  72.228  0.00  0.00    -0.144 NA
BRANCH  19  25
ATOM     25  C   UNL     1      -9.856   6.437  72.078  0.00  0.00    +0.110 C 
ATOM     26  C   UNL     1     -10.883   5.795  73.222  0.00  0.00    +0.027 C 
BRANCH  25  28
ATOM     27  C   UNL     1     -10.191   4.976  70.833  0.00  0.00    +0.002 C 
ATOM     28  C   UNL     1     -10.210   5.218  70.997  0.00  0.00    +0.025 C 
ENDBRANCH  25  28
ENDBRANCH  19  25
ENDBRANCH  13  22
ENDBRANCH   7  16
ENDBRANCH   1  10
BRANCH   4  29
ATOM     29  O   UNL     1      -9.094  20.731  67.060  0.00  0.00    -0.473 OA
BRANCH  29  30
ATOM     30  C   UNL     1      -7.733  20.891  67.160  0.00  0.00    +0.237 C 
BRANCH  30  31
ATOM     31  C   UNL     1      -7.024  19.624  66.321  0.00  0.00    +0.191 C 
ATOM     32  O   UNL     1      -6.202  19.162  67.535  0.00  0.00    -0.325 OA
ATOM     33  C   UNL     1      -4.948  19.545  67.290  0.00  0.00    +0.231 C 
ATOM     34  O   UNL     1      -4.734  19.852  65.979  0.00  0.00    -0.327 OA
ATOM     35  C   UNL     1      -5.821  20.650  65.766  0.00  0.00    +0.178 C 
BRANCH  33  36
ATOM     36  C   UNL     1      -4.051  18.376  67.575  0.00  0.00    +0.041 A 
ATOM     37  C   UNL     1      -2.719  18.377  67.176  0.00  0.00    +0.059 A 
ATOM     38 CL   UNL     1      -1.938  19.902  66.833  0.00  0.00    -0.082 Cl
ATOM     39  C   UNL     1      -1.964  17.210  67.169  0.00  0.00    +0.023 A 
ATOM     40  C   UNL     1      -2.635  15.996  67.079  0.00  0.00    +0.058 A 
ATOM     41 CL   UNL     1      -1.939  14.605  66.267  0.00  0.00    -0.082 Cl
ATOM     42  C   UNL     1      -3.878  15.950  67.656  0.00  0.00    +0.011 A 
ATOM     43  C   UNL     1      -4.568  17.118  67.865  0.00  0.00    +0.002 A 
ENDBRANCH  33  36
BRANCH  33  44
ATOM     44  C   UNL     1      -4.654  20.632  68.273  0.00  0.00    +0.190 C 
BRANCH  44  45
ATOM     45  N   UNL     1      -4.681  20.248  69.649  0.00  0.00    -0.225 N 
ATOM     46  N   UNL     1      -3.730  20.564  70.529  0.00  0.00    -0.145 NA
ATOM     47  C   UNL     1      -4.197  20.529  71.777  0.00  0.00    +0.221 A 
ATOM     48  N   UNL     1      -5.523  20.488  71.657  0.00  0.00    -0.201 NA
ATOM     49  C   UNL     1      -5.822  20.431  70.364  0.00  0.00    +0.197 A 
ENDBRANCH  44  45
ENDBRANCH  33  44
ENDBRANCH  30  31
ENDBRANCH  29  30
ENDBRANCH   4  29
TORSDOF 11
ENDMDL
MODEL 9
REMARK VINA RESULT:      -7.3      4.477      7.838
REMARK  Name = 
REMARK  11 active torsions:
REMARK  status: ('A' for Active; 'I' for Inactive)
REMARK    1  A    between atoms: C_2  and  C_3
REMARK    2  A    between atoms: C_3  and  N_5
REMARK    3  A    between atoms: N_8  and  C_9
REMARK    4  A    between atoms: C_12  and  N_13
REMARK    5  A    between atoms: N_16  and  C_17
REMARK    6  A    between atoms: C_20  and  O_21
REMARK    7  A    between atoms: O_21  and  C_22
REMARK    8  A    between atoms: C_22  and  C_23
REMARK    9  A    between atoms: C_26  and  C_27
REMARK   10  A    between atoms: C_26  and  C_33
REMARK   11  A    between atoms: C_27  and  N_28
REMARK                            x       y       z     vdW  Elec       q    Type
REMARK                         _______ _______ _______ _____ _____    ______ ____
ROOT
ATOM      1  C   UNL     1     -11.155  13.983  66.925  0.00  0.00    +0.048 A 
ATOM      2  C   UNL     1     -12.304  13.491  66.332  0.00  0.00    +0.018 A 
ATOM      3  C   UNL     1     -12.327  13.078  65.006  0.00  0.00    +0.038 A 
ATOM      4  C   UNL     1     -11.115  13.078  64.347  0.00  0.00    +0.139 A 
ATOM      5  C   UNL     1     -10.218  14.069  64.730  0.00  0.00    +0.038 A 
ATOM      6  C   UNL     1     -10.206  14.495  66.051  0.00  0.00    +0.018 A 
ENDROOT
BRANCH   1  10
ATOM      7  N   UNL     1     -10.595  11.312  68.735  0.00  0.00    -0.304 N 
ATOM      8  C   UNL     1      -9.429  12.090  68.320  0.00  0.00    +0.112 C 
ATOM      9  C   UNL     1      -9.599  13.539  68.758  0.00  0.00    +0.112 C 
ATOM     10  N   UNL     1     -10.942  13.938  68.341  0.00  0.00    -0.304 N 
ATOM     11  C   UNL     1     -12.004  13.234  69.062  0.00  0.00    +0.112 C 
ATOM     12  C   UNL     1     -11.952  11.809  68.522  0.00  0.00    +0.112 C 
BRANCH   7  16
ATOM     13  C   UNL     1     -10.336   8.523  71.781  0.00  0.00    +0.070 A 
ATOM     14  C   UNL     1     -11.523   9.158  71.494  0.00  0.00    +0.019 A 
ATOM     15  C   UNL     1     -11.621  10.070  70.479  0.00  0.00    +0.016 A 
ATOM     16  C   UNL     1     -10.432  10.500  69.904  0.00  0.00    +0.048 A 
ATOM     17  C   UNL     1      -9.328   9.686  70.001  0.00  0.00    +0.016 A 
ATOM     18  C   UNL     1      -9.334   8.585  70.849  0.00  0.00    +0.019 A 
BRANCH  13  22
ATOM     19  N   UNL     1      -9.879   6.215  74.354  0.00  0.00    -0.202 N 
ATOM     20  C   UNL     1     -10.549   6.613  73.299  0.00  0.00    +0.352 A 
ATOM     21  O   UNL     1     -11.527   5.997  72.780  0.00  0.00    -0.244 OA
ATOM     22  N   UNL     1     -10.112   7.869  73.035  0.00  0.00    -0.240 N 
ATOM     23  C   UNL     1      -8.945   8.005  73.711  0.00  0.00    +0.207 A 
ATOM     24  N   UNL     1      -8.744   6.879  74.438  0.00  0.00    -0.144 NA
BRANCH  19  25
ATOM     25  C   UNL     1      -9.975   4.754  74.970  0.00  0.00    +0.110 C 
ATOM     26  C   UNL     1      -8.348   4.464  74.754  0.00  0.00    +0.027 C 
BRANCH  25  28
ATOM     27  C   UNL     1      -9.661   5.291  76.817  0.00  0.00    +0.002 C 
ATOM     28  C   UNL     1      -9.727   5.284  76.531  0.00  0.00    +0.025 C 
ENDBRANCH  25  28
ENDBRANCH  19  25
ENDBRANCH  13  22
ENDBRANCH   7  16
ENDBRANCH   1  10
BRANCH   4  29
ATOM     29  O   UNL     1     -10.803  12.132  63.402  0.00  0.00    -0.473 OA
BRANCH  29  30
ATOM     30  C   UNL     1      -9.562  11.684  63.019  0.00  0.00    +0.237 C 
BRANCH  30  31
ATOM     31  C   UNL     1      -9.615  10.007  63.044  0.00  0.00    +0.191 C 
ATOM     32  O   UNL     1      -9.667   9.942  64.580  0.00  0.00    -0.325 OA
ATOM     33  C   UNL     1      -8.454   9.547  64.967  0.00  0.00    +0.231 C 
ATOM     34  O   UNL     1      -7.728   8.995  63.954  0.00  0.00    -0.327 OA
ATOM     35  C   UNL     1      -7.941   9.944  62.996  0.00  0.00    +0.178 C 
BRANCH  33  36
ATOM     36  C   UNL     1      -8.634   8.446  65.972  0.00  0.00    +0.041 A 
ATOM     37  C   UNL     1      -7.763   7.363  66.015  0.00  0.00    +0.059 A 
ATOM     38 CL   UNL     1      -6.179   7.519  65.294  0.00  0.00    -0.082 Cl
ATOM     39  C   UNL     1      -8.074   6.211  66.728  0.00  0.00    +0.023 A 
ATOM     40  C   UNL     1      -9.414   5.938  66.977  0.00  0.00    +0.058 A 
ATOM     41 CL   UNL     1     -10.027   4.296  67.081  0.00  0.00    -0.082 Cl
ATOM     42  C   UNL     1     -10.233   7.026  67.131  0.00  0.00    +0.011 A 
ATOM     43  C   UNL     1      -9.851   8.237  66.610  0.00  0.00    +0.002 A 
ENDBRANCH  33  36
BRANCH  33  44
ATOM     44  C   UNL     1      -7.837  10.727  65.646  0.00  0.00    +0.190 C 
BRANCH  44  45
ATOM     45  N   UNL     1      -6.489  10.553  66.086  0.00  0.00    -0.225 N 
ATOM     46  N   UNL     1      -5.430  11.081  65.469  0.00  0.00    -0.145 NA
ATOM     47  C   UNL     1      -4.394  11.193  66.300  0.00  0.00    +0.221 A 
ATOM     48  N   UNL     1      -4.899  11.017  67.521  0.00  0.00    -0.201 NA
ATOM     49  C   UNL     1      -6.192  10.739  67.399  0.00  0.00    +0.197 A 
ENDBRANCH  44  45
ENDBRANCH  33  44
ENDBRANCH  30  31
ENDBRANCH  29  30
ENDBRANCH   4  29
TORSDOF 11
ENDMDL
