MODEL 1
REMARK VINA RESULT:      -4.9      0.000      0.000
REMARK  Name = 
REMARK  0 active torsions:
REMARK  status: ('A' for Active; 'I' for Inactive)
REMARK                            x       y       z     vdW  Elec       q    Type
REMARK                         _______ _______ _______ _____ _____    ______ ____
ROOT
ATOM      1  C   UNL     1     -10.212  10.845  66.753  0.00  0.00    +0.000 C 
ATOM      2  C   UNL     1     -10.672  12.145  66.400  0.00  0.00    +0.001 C 
ATOM      3  C   UNL     1      -9.507  13.111  66.419  0.00  0.00    +0.000 C 
ATOM      4  C   UNL     1     -10.019  14.508  66.162  0.00  0.00    +0.001 C 
ATOM      5  C   UNL     1     -11.061  14.896  67.174  0.00  0.00    +0.000 C 
ATOM      6  C   UNL     1     -12.214  13.927  67.174  0.00  0.00    +0.001 C 
ATOM      7  C   UNL     1     -12.855  13.925  65.802  0.00  0.00    +0.018 C 
ATOM      8  C   UNL     1     -11.803  13.582  64.782  0.00  0.00    +0.077 C 
ATOM      9  N   UNL     1     -12.391  13.632  63.462  0.00  0.00    -0.134 NA
ATOM     10  C   UNL     1      -8.918  15.528  66.196  0.00  0.00    +0.000 C 
ATOM     11  C   UNL     1     -10.642  14.541  64.795  0.00  0.00    +0.018 C 
ATOM     12  C   UNL     1     -11.336  12.170  65.033  0.00  0.00    +0.018 C 
ATOM     13  C   UNL     1     -11.686  12.543  67.462  0.00  0.00    +0.000 C 
ENDROOT
TORSDOF 0
ENDMDL
MODEL 2
REMARK VINA RESULT:      -4.7      1.609      3.264
REMARK  Name = 
REMARK  0 active torsions:
REMARK  status: ('A' for Active; 'I' for Inactive)
REMARK                            x       y       z     vdW  Elec       q    Type
REMARK                         _______ _______ _______ _____ _____    ______ ____
ROOT
ATOM      1  C   UNL     1      -9.028  15.546  66.115  0.00  0.00    +0.000 C 
ATOM      2  C   UNL     1      -9.960  14.471  66.165  0.00  0.00    +0.001 C 
ATOM      3  C   UNL     1     -10.399  14.124  64.759  0.00  0.00    +0.000 C 
ATOM      4  C   UNL     1     -11.475  13.066  64.826  0.00  0.00    +0.001 C 
ATOM      5  C   UNL     1     -12.638  13.531  65.658  0.00  0.00    +0.000 C 
ATOM      6  C   UNL     1     -12.203  13.897  67.052  0.00  0.00    +0.001 C 
ATOM      7  C   UNL     1     -11.595  12.679  67.715  0.00  0.00    +0.018 C 
ATOM      8  C   UNL     1     -10.460  12.185  66.860  0.00  0.00    +0.077 C 
ATOM      9  N   UNL     1      -9.908  10.988  67.454  0.00  0.00    -0.134 NA
ATOM     10  C   UNL     1     -11.984  12.691  63.463  0.00  0.00    +0.000 C 
ATOM     11  C   UNL     1     -10.893  11.835  65.460  0.00  0.00    +0.018 C 
ATOM     12  C   UNL     1      -9.382  13.239  66.841  0.00  0.00    +0.018 C 
ATOM     13  C   UNL     1     -11.150  14.976  66.965  0.00  0.00    +0.000 C 
ENDROOT
TORSDOF 0
ENDMDL
MODEL 3
REMARK VINA RESULT:      -4.6      1.950      3.527
REMARK  Name = 
REMARK  0 active torsions:
REMARK  status: ('A' for Active; 'I' for Inactive)
REMARK                            x       y       z     vdW  Elec       q    Type
REMARK                         _______ _______ _______ _____ _____    ______ ____
ROOT
ATOM      1  C   UNL     1     -11.920  14.678  69.146  0.00  0.00    +0.000 C 
ATOM      2  C   UNL     1     -11.212  14.733  67.913  0.00  0.00    +0.001 C 
ATOM      3  C   UNL     1     -12.079  14.164  66.812  0.00  0.00    +0.000 C 
ATOM      4  C   UNL     1     -11.281  14.115  65.531  0.00  0.00    +0.001 C 
ATOM      5  C   UNL     1     -10.027  13.305  65.706  0.00  0.00    +0.000 C 
ATOM      6  C   UNL     1      -9.169  13.855  66.815  0.00  0.00    +0.001 C 
ATOM      7  C   UNL     1      -8.778  15.278  66.476  0.00  0.00    +0.018 C 
ATOM      8  C   UNL     1     -10.031  16.080  66.254  0.00  0.00    +0.077 C 
ATOM      9  N   UNL     1      -9.669  17.427  65.872  0.00  0.00    -0.134 NA
ATOM     10  C   UNL     1     -12.071  13.530  64.395  0.00  0.00    +0.000 C 
ATOM     11  C   UNL     1     -10.897  15.518  65.156  0.00  0.00    +0.018 C 
ATOM     12  C   UNL     1     -10.791  16.149  67.554  0.00  0.00    +0.018 C 
ATOM     13  C   UNL     1      -9.974  13.867  68.092  0.00  0.00    +0.000 C 
ENDROOT
TORSDOF 0
ENDMDL
MODEL 4
REMARK VINA RESULT:      -4.6      0.901      2.991
REMARK  Name = 
REMARK  0 active torsions:
REMARK  status: ('A' for Active; 'I' for Inactive)
REMARK                            x       y       z     vdW  Elec       q    Type
REMARK                         _______ _______ _______ _____ _____    ______ ____
ROOT
ATOM      1  C   UNL     1     -12.029  14.147  69.066  0.00  0.00    +0.000 C 
ATOM      2  C   UNL     1     -11.480  13.695  67.834  0.00  0.00    +0.001 C 
ATOM      3  C   UNL     1     -11.348  12.188  67.867  0.00  0.00    +0.000 C 
ATOM      4  C   UNL     1     -10.655  11.725  66.607  0.00  0.00    +0.001 C 
ATOM      5  C   UNL     1      -9.312  12.384  66.456  0.00  0.00    +0.000 C 
ATOM      6  C   UNL     1      -9.435  13.884  66.443  0.00  0.00    +0.001 C 
ATOM      7  C   UNL     1     -10.306  14.297  65.275  0.00  0.00    +0.018 C 
ATOM      8  C   UNL     1     -11.635  13.603  65.399  0.00  0.00    +0.077 C 
ATOM      9  N   UNL     1     -12.455  13.944  64.258  0.00  0.00    -0.134 NA
ATOM     10  C   UNL     1     -10.461  10.236  66.583  0.00  0.00    +0.000 C 
ATOM     11  C   UNL     1     -11.509  12.102  65.430  0.00  0.00    +0.018 C 
ATOM     12  C   UNL     1     -12.325  14.109  66.640  0.00  0.00    +0.018 C 
ATOM     13  C   UNL     1     -10.102  14.329  67.722  0.00  0.00    +0.000 C 
ENDROOT
TORSDOF 0
ENDMDL
MODEL 5
REMARK VINA RESULT:      -4.6      1.315      3.379
REMARK  Name = 
REMARK  0 active torsions:
REMARK  status: ('A' for Active; 'I' for Inactive)
REMARK                            x       y       z     vdW  Elec       q    Type
REMARK                         _______ _______ _______ _____ _____    ______ ____
ROOT
ATOM      1  C   UNL     1      -9.819  17.409  66.280  0.00  0.00    +0.000 C 
ATOM      2  C   UNL     1     -10.263  16.057  66.294  0.00  0.00    +0.001 C 
ATOM      3  C   UNL     1     -11.004  15.787  67.585  0.00  0.00    +0.000 C 
ATOM      4  C   UNL     1     -11.368  14.323  67.649  0.00  0.00    +0.001 C 
ATOM      5  C   UNL     1     -10.144  13.456  67.535  0.00  0.00    +0.000 C 
ATOM      6  C   UNL     1      -9.391  13.735  66.261  0.00  0.00    +0.001 C 
ATOM      7  C   UNL     1     -10.295  13.446  65.081  0.00  0.00    +0.018 C 
ATOM      8  C   UNL     1     -11.542  14.278  65.217  0.00  0.00    +0.077 C 
ATOM      9  N   UNL     1     -12.438  13.967  64.126  0.00  0.00    -0.134 NA
ATOM     10  C   UNL     1     -12.082  13.973  68.922  0.00  0.00    +0.000 C 
ATOM     11  C   UNL     1     -12.284  14.011  66.500  0.00  0.00    +0.018 C 
ATOM     12  C   UNL     1     -11.160  15.732  65.111  0.00  0.00    +0.018 C 
ATOM     13  C   UNL     1      -9.011  15.196  66.231  0.00  0.00    +0.000 C 
ENDROOT
TORSDOF 0
ENDMDL
MODEL 6
REMARK VINA RESULT:      -4.5      3.468      4.813
REMARK  Name = 
REMARK  0 active torsions:
REMARK  status: ('A' for Active; 'I' for Inactive)
REMARK                            x       y       z     vdW  Elec       q    Type
REMARK                         _______ _______ _______ _____ _____    ______ ____
ROOT
ATOM      1  C   UNL     1      -6.452  16.717  67.395  0.00  0.00    +0.000 C 
ATOM      2  C   UNL     1      -7.840  17.026  67.352  0.00  0.00    +0.001 C 
ATOM      3  C   UNL     1      -8.019  18.528  67.344  0.00  0.00    +0.000 C 
ATOM      4  C   UNL     1      -9.492  18.851  67.419  0.00  0.00    +0.001 C 
ATOM      5  C   UNL     1     -10.118  18.237  68.640  0.00  0.00    +0.000 C 
ATOM      6  C   UNL     1      -9.926  16.743  68.663  0.00  0.00    +0.001 C 
ATOM      7  C   UNL     1     -10.580  16.144  67.436  0.00  0.00    +0.018 C 
ATOM      8  C   UNL     1      -9.987  16.790  66.213  0.00  0.00    +0.077 C 
ATOM      9  N   UNL     1     -10.645  16.266  65.036  0.00  0.00    -0.134 NA
ATOM     10  C   UNL     1      -9.746  20.331  67.446  0.00  0.00    +0.000 C 
ATOM     11  C   UNL     1     -10.165  18.286  66.200  0.00  0.00    +0.018 C 
ATOM     12  C   UNL     1      -8.527  16.422  66.138  0.00  0.00    +0.018 C 
ATOM     13  C   UNL     1      -8.447  16.443  68.618  0.00  0.00    +0.000 C 
ENDROOT
TORSDOF 0
ENDMDL
MODEL 7
REMARK VINA RESULT:      -4.4      1.941      2.913
REMARK  Name = 
REMARK  0 active torsions:
REMARK  status: ('A' for Active; 'I' for Inactive)
REMARK                            x       y       z     vdW  Elec       q    Type
REMARK                         _______ _______ _______ _____ _____    ______ ____
ROOT
ATOM      1  C   UNL     1     -11.994  13.528  64.320  0.00  0.00    +0.000 C 
ATOM      2  C   UNL     1     -11.216  14.070  65.381  0.00  0.00    +0.001 C 
ATOM      3  C   UNL     1     -10.068  13.134  65.690  0.00  0.00    +0.000 C 
ATOM      4  C   UNL     1      -9.317  13.653  66.892  0.00  0.00    +0.001 C 
ATOM      5  C   UNL     1     -10.230  13.799  68.077  0.00  0.00    +0.000 C 
ATOM      6  C   UNL     1     -11.386  14.715  67.770  0.00  0.00    +0.001 C 
ATOM      7  C   UNL     1     -10.847  16.083  67.407  0.00  0.00    +0.018 C 
ATOM      8  C   UNL     1      -9.897  15.932  66.250  0.00  0.00    +0.077 C 
ATOM      9  N   UNL     1      -9.332  17.225  65.932  0.00  0.00    -0.134 NA
ATOM     10  C   UNL     1      -8.177  12.754  67.277  0.00  0.00    +0.000 C 
ATOM     11  C   UNL     1      -8.751  15.003  66.553  0.00  0.00    +0.018 C 
ATOM     12  C   UNL     1     -10.675  15.452  65.051  0.00  0.00    +0.018 C 
ATOM     13  C   UNL     1     -12.141  14.163  66.584  0.00  0.00    +0.000 C 
ENDROOT
TORSDOF 0
ENDMDL
MODEL 8
REMARK VINA RESULT:      -4.4      4.611      6.142
REMARK  Name = 
REMARK  0 active torsions:
REMARK  status: ('A' for Active; 'I' for Inactive)
REMARK                            x       y       z     vdW  Elec       q    Type
REMARK                         _______ _______ _______ _____ _____    ______ ____
ROOT
ATOM      1  C   UNL     1      -7.591  15.677  67.109  0.00  0.00    +0.000 C 
ATOM      2  C   UNL     1      -7.867  17.068  67.226  0.00  0.00    +0.001 C 
ATOM      3  C   UNL     1      -7.221  17.806  66.074  0.00  0.00    +0.000 C 
ATOM      4  C   UNL     1      -7.415  19.291  66.266  0.00  0.00    +0.001 C 
ATOM      5  C   UNL     1      -6.850  19.743  67.584  0.00  0.00    +0.000 C 
ATOM      6  C   UNL     1      -7.475  18.998  68.734  0.00  0.00    +0.001 C 
ATOM      7  C   UNL     1      -8.967  19.258  68.737  0.00  0.00    +0.018 C 
ATOM      8  C   UNL     1      -9.528  18.850  67.401  0.00  0.00    +0.077 C 
ATOM      9  N   UNL     1     -10.942  19.147  67.372  0.00  0.00    -0.134 NA
ATOM     10  C   UNL     1      -6.771  20.092  65.172  0.00  0.00    +0.000 C 
ATOM     11  C   UNL     1      -8.889  19.583  66.251  0.00  0.00    +0.018 C 
ATOM     12  C   UNL     1      -9.359  17.359  67.248  0.00  0.00    +0.018 C 
ATOM     13  C   UNL     1      -7.244  17.519  68.538  0.00  0.00    +0.000 C 
ENDROOT
TORSDOF 0
ENDMDL
MODEL 9
REMARK VINA RESULT:      -4.3      4.804      6.800
REMARK  Name = 
REMARK  0 active torsions:
REMARK  status: ('A' for Active; 'I' for Inactive)
REMARK                            x       y       z     vdW  Elec       q    Type
REMARK                         _______ _______ _______ _____ _____    ______ ____
ROOT
ATOM      1  C   UNL     1      -6.554  19.847  69.648  0.00  0.00    +0.000 C 
ATOM      2  C   UNL     1      -7.257  19.244  68.567  0.00  0.00    +0.001 C 
ATOM      3  C   UNL     1      -6.901  17.775  68.496  0.00  0.00    +0.000 C 
ATOM      4  C   UNL     1      -7.554  17.167  67.278  0.00  0.00    +0.001 C 
ATOM      5  C   UNL     1      -7.136  17.887  66.025  0.00  0.00    +0.000 C 
ATOM      6  C   UNL     1      -7.469  19.354  66.098  0.00  0.00    +0.001 C 
ATOM      7  C   UNL     1      -8.965  19.512  66.266  0.00  0.00    +0.018 C 
ATOM      8  C   UNL     1      -9.394  18.754  67.493  0.00  0.00    +0.077 C 
ATOM      9  N   UNL     1     -10.830  18.850  67.630  0.00  0.00    -0.134 NA
ATOM     10  C   UNL     1      -7.220  15.711  67.125  0.00  0.00    +0.000 C 
ATOM     11  C   UNL     1      -9.044  17.290  67.426  0.00  0.00    +0.018 C 
ATOM     12  C   UNL     1      -8.762  19.402  68.699  0.00  0.00    +0.018 C 
ATOM     13  C   UNL     1      -6.783  19.949  67.305  0.00  0.00    +0.000 C 
ENDROOT
TORSDOF 0
ENDMDL
