MODEL 1
REMARK VINA RESULT:      -6.4      0.000      0.000
REMARK  Name = 
REMARK  7 active torsions:
REMARK  status: ('A' for Active; 'I' for Inactive)
REMARK    1  A    between atoms: C_2  and  C_3
REMARK    2  A    between atoms: C_6  and  C_7
REMARK    3  A    between atoms: C_7  and  C_8
REMARK    4  A    between atoms: C_8  and  O_9
REMARK    5  A    between atoms: O_9  and  C_10
REMARK    6  A    between atoms: C_13  and  C_14
REMARK    7  A    between atoms: C_14  and  C_15
REMARK                            x       y       z     vdW  Elec       q    Type
REMARK                         _______ _______ _______ _____ _____    ______ ____
ROOT
ATOM      1  C   UNL     1      -6.286  16.238  68.232  0.00  0.00    +0.139 A 
ATOM      2  C   UNL     1      -6.494  16.577  66.910  0.00  0.00    +0.037 A 
ATOM      3  C   UNL     1      -7.753  16.452  66.392  0.00  0.00    -0.001 A 
ATOM      4  C   UNL     1      -8.816  15.897  67.093  0.00  0.00    -0.021 A 
ATOM      5  C   UNL     1      -8.611  15.679  68.438  0.00  0.00    -0.001 A 
ATOM      6  C   UNL     1      -7.316  15.624  68.916  0.00  0.00    +0.037 A 
ENDROOT
BRANCH   4   7
ATOM      7  C   UNL     1     -10.146  16.067  66.480  0.00  0.00    +0.047 C 
BRANCH   7   8
ATOM      8  C   UNL     1     -10.350  14.932  65.382  0.00  0.00    +0.139 C 
ATOM      9  C   UNL     1     -11.534  15.648  64.657  0.00  0.00    +0.259 C 
ATOM     10  O   UNL     1     -11.422  16.802  64.154  0.00  0.00    -0.272 OA
ATOM     11  N   UNL     1     -12.356  14.645  64.107  0.00  0.00    -0.135 NA
ATOM     12  C   UNL     1     -12.783  13.708  65.103  0.00  0.00    +0.299 C 
ATOM     13  O   UNL     1     -13.169  12.548  64.759  0.00  0.00    -0.261 OA
ATOM     14  S   UNL     1     -11.566  13.886  66.417  0.00  0.00    -0.046 S 
ENDBRANCH   7   8
ENDBRANCH   4   7
BRANCH   1  15
ATOM     15  O   UNL     1      -5.218  16.731  68.984  0.00  0.00    -0.475 OA
BRANCH  15  16
ATOM     16  C   UNL     1      -4.650  17.970  68.564  0.00  0.00    +0.212 C 
BRANCH  16  17
ATOM     17  C   UNL     1      -5.218  19.024  69.469  0.00  0.00    +0.093 C 
BRANCH  17  21
ATOM     18  C   UNL     1      -8.554  20.070  67.274  0.00  0.00    -0.003 A 
ATOM     19  C   UNL     1      -7.388  20.753  67.064  0.00  0.00    +0.094 A 
ATOM     20  N   UNL     1      -6.325  20.614  67.893  0.00  0.00    -0.248 NA
ATOM     21  C   UNL     1      -6.369  19.743  68.901  0.00  0.00    +0.063 A 
ATOM     22  C   UNL     1      -7.623  19.315  69.310  0.00  0.00    +0.015 A 
ATOM     23  C   UNL     1      -8.751  19.529  68.531  0.00  0.00    -0.002 A 
BRANCH  18  25
ATOM     24  C   UNL     1     -10.461  19.602  66.500  0.00  0.00    +0.005 C 
ATOM     25  C   UNL     1      -9.513  19.716  66.182  0.00  0.00    +0.028 C 
ENDBRANCH  18  25
ENDBRANCH  17  21
ENDBRANCH  16  17
ENDBRANCH  15  16
ENDBRANCH   1  15
TORSDOF 7
ENDMDL
MODEL 2
REMARK VINA RESULT:      -6.3      6.300      9.438
REMARK  Name = 
REMARK  7 active torsions:
REMARK  status: ('A' for Active; 'I' for Inactive)
REMARK    1  A    between atoms: C_2  and  C_3
REMARK    2  A    between atoms: C_6  and  C_7
REMARK    3  A    between atoms: C_7  and  C_8
REMARK    4  A    between atoms: C_8  and  O_9
REMARK    5  A    between atoms: O_9  and  C_10
REMARK    6  A    between atoms: C_13  and  C_14
REMARK    7  A    between atoms: C_14  and  C_15
REMARK                            x       y       z     vdW  Elec       q    Type
REMARK                         _______ _______ _______ _____ _____    ______ ____
ROOT
ATOM      1  C   UNL     1     -12.145  11.387  70.527  0.00  0.00    +0.139 A 
ATOM      2  C   UNL     1     -12.072  12.714  70.156  0.00  0.00    +0.037 A 
ATOM      3  C   UNL     1     -11.685  13.017  68.880  0.00  0.00    -0.001 A 
ATOM      4  C   UNL     1     -11.253  12.064  67.966  0.00  0.00    -0.021 A 
ATOM      5  C   UNL     1     -11.448  10.747  68.322  0.00  0.00    -0.001 A 
ATOM      6  C   UNL     1     -11.655  10.438  69.652  0.00  0.00    +0.037 A 
ENDROOT
BRANCH   4   7
ATOM      7  C   UNL     1     -11.114  12.528  66.573  0.00  0.00    +0.047 C 
BRANCH   7   8
ATOM      8  C   UNL     1     -11.934  13.882  66.404  0.00  0.00    +0.139 C 
ATOM      9  C   UNL     1     -12.427  13.567  64.955  0.00  0.00    +0.259 C 
ATOM     10  O   UNL     1     -13.112  12.542  64.680  0.00  0.00    -0.272 OA
ATOM     11  N   UNL     1     -12.584  14.799  64.291  0.00  0.00    -0.135 NA
ATOM     12  C   UNL     1     -11.381  15.576  64.326  0.00  0.00    +0.299 C 
ATOM     13  O   UNL     1     -11.432  16.833  64.155  0.00  0.00    -0.261 OA
ATOM     14  S   UNL     1     -10.472  14.904  65.726  0.00  0.00    -0.046 S 
ENDBRANCH   7   8
ENDBRANCH   4   7
BRANCH   1  15
ATOM     15  O   UNL     1     -12.931  10.938  71.590  0.00  0.00    -0.475 OA
BRANCH  15  16
ATOM     16  C   UNL     1     -13.639   9.715  71.397  0.00  0.00    +0.212 C 
BRANCH  16  17
ATOM     17  C   UNL     1     -13.161   8.776  72.467  0.00  0.00    +0.093 C 
BRANCH  17  21
ATOM     18  C   UNL     1     -10.071   6.898  70.478  0.00  0.00    -0.003 A 
ATOM     19  C   UNL     1     -11.345   6.433  70.301  0.00  0.00    +0.094 A 
ATOM     20  N   UNL     1     -12.368   6.855  71.083  0.00  0.00    -0.248 NA
ATOM     21  C   UNL     1     -12.166   7.797  72.004  0.00  0.00    +0.063 A 
ATOM     22  C   UNL     1     -10.857   8.016  72.405  0.00  0.00    +0.015 A 
ATOM     23  C   UNL     1      -9.784   7.514  71.682  0.00  0.00    -0.002 A 
BRANCH  18  25
ATOM     24  C   UNL     1      -9.236   7.663  68.697  0.00  0.00    +0.005 C 
ATOM     25  C   UNL     1      -9.051   6.952  69.384  0.00  0.00    +0.028 C 
ENDBRANCH  18  25
ENDBRANCH  17  21
ENDBRANCH  16  17
ENDBRANCH  15  16
ENDBRANCH   1  15
TORSDOF 7
ENDMDL
MODEL 3
REMARK VINA RESULT:      -6.1      7.132     10.180
REMARK  Name = 
REMARK  7 active torsions:
REMARK  status: ('A' for Active; 'I' for Inactive)
REMARK    1  A    between atoms: C_2  and  C_3
REMARK    2  A    between atoms: C_6  and  C_7
REMARK    3  A    between atoms: C_7  and  C_8
REMARK    4  A    between atoms: C_8  and  O_9
REMARK    5  A    between atoms: O_9  and  C_10
REMARK    6  A    between atoms: C_13  and  C_14
REMARK    7  A    between atoms: C_14  and  C_15
REMARK                            x       y       z     vdW  Elec       q    Type
REMARK                         _______ _______ _______ _____ _____    ______ ____
ROOT
ATOM      1  C   UNL     1     -11.954  11.254  70.450  0.00  0.00    +0.139 A 
ATOM      2  C   UNL     1     -11.978  12.582  70.077  0.00  0.00    +0.037 A 
ATOM      3  C   UNL     1     -11.652  12.907  68.789  0.00  0.00    -0.001 A 
ATOM      4  C   UNL     1     -11.189  11.982  67.862  0.00  0.00    -0.021 A 
ATOM      5  C   UNL     1     -11.288  10.656  68.224  0.00  0.00    -0.001 A 
ATOM      6  C   UNL     1     -11.433  10.337  69.560  0.00  0.00    +0.037 A 
ENDROOT
BRANCH   4   7
ATOM      7  C   UNL     1     -11.124  12.451  66.466  0.00  0.00    +0.047 C 
BRANCH   7   8
ATOM      8  C   UNL     1     -11.922  13.824  66.353  0.00  0.00    +0.139 C 
ATOM      9  C   UNL     1     -12.459  13.556  64.911  0.00  0.00    +0.259 C 
ATOM     10  O   UNL     1     -13.170  12.551  64.629  0.00  0.00    -0.272 OA
ATOM     11  N   UNL     1     -12.610  14.807  64.282  0.00  0.00    -0.135 NA
ATOM     12  C   UNL     1     -11.391  15.560  64.304  0.00  0.00    +0.299 C 
ATOM     13  O   UNL     1     -11.423  16.822  64.167  0.00  0.00    -0.261 OA
ATOM     14  S   UNL     1     -10.459  14.836  65.662  0.00  0.00    -0.046 S 
ENDBRANCH   7   8
ENDBRANCH   4   7
BRANCH   1  15
ATOM     15  O   UNL     1     -12.676  10.757  71.538  0.00  0.00    -0.475 OA
BRANCH  15  16
ATOM     16  C   UNL     1     -13.541   9.651  71.287  0.00  0.00    +0.212 C 
BRANCH  16  17
ATOM     17  C   UNL     1     -13.272   8.649  72.372  0.00  0.00    +0.093 C 
BRANCH  17  21
ATOM     18  C   UNL     1     -10.542   5.566  72.095  0.00  0.00    -0.003 A 
ATOM     19  C   UNL     1     -10.357   6.525  73.053  0.00  0.00    +0.094 A 
ATOM     20  N   UNL     1     -11.081   7.670  73.060  0.00  0.00    -0.248 NA
ATOM     21  C   UNL     1     -12.051   7.857  72.165  0.00  0.00    +0.063 A 
ATOM     22  C   UNL     1     -12.014   7.071  71.023  0.00  0.00    +0.015 A 
ATOM     23  C   UNL     1     -11.208   5.945  70.944  0.00  0.00    -0.002 A 
BRANCH  18  25
ATOM     24  C   UNL     1     -10.198   3.852  73.277  0.00  0.00    +0.005 C 
ATOM     25  C   UNL     1     -10.244   4.115  72.308  0.00  0.00    +0.028 C 
ENDBRANCH  18  25
ENDBRANCH  17  21
ENDBRANCH  16  17
ENDBRANCH  15  16
ENDBRANCH   1  15
TORSDOF 7
ENDMDL
MODEL 4
REMARK VINA RESULT:      -6.0      4.428      7.217
REMARK  Name = 
REMARK  7 active torsions:
REMARK  status: ('A' for Active; 'I' for Inactive)
REMARK    1  A    between atoms: C_2  and  C_3
REMARK    2  A    between atoms: C_6  and  C_7
REMARK    3  A    between atoms: C_7  and  C_8
REMARK    4  A    between atoms: C_8  and  O_9
REMARK    5  A    between atoms: O_9  and  C_10
REMARK    6  A    between atoms: C_13  and  C_14
REMARK    7  A    between atoms: C_14  and  C_15
REMARK                            x       y       z     vdW  Elec       q    Type
REMARK                         _______ _______ _______ _____ _____    ______ ____
ROOT
ATOM      1  C   UNL     1     -11.137  11.757  66.834  0.00  0.00    +0.139 A 
ATOM      2  C   UNL     1      -9.783  12.019  66.831  0.00  0.00    +0.037 A 
ATOM      3  C   UNL     1      -9.362  13.292  66.560  0.00  0.00    -0.001 A 
ATOM      4  C   UNL     1     -10.221  14.315  66.179  0.00  0.00    -0.021 A 
ATOM      5  C   UNL     1     -11.569  14.057  66.306  0.00  0.00    -0.001 A 
ATOM      6  C   UNL     1     -11.993  12.746  66.393  0.00  0.00    +0.037 A 
ENDROOT
BRANCH   4   7
ATOM      7  C   UNL     1      -9.640  15.670  66.170  0.00  0.00    +0.047 C 
BRANCH   7   8
ATOM      8  C   UNL     1     -10.539  16.616  67.082  0.00  0.00    +0.139 C 
ATOM      9  C   UNL     1     -10.486  17.839  66.110  0.00  0.00    +0.259 C 
ATOM     10  O   UNL     1     -10.896  17.774  64.917  0.00  0.00    -0.272 OA
ATOM     11  N   UNL     1     -10.587  19.003  66.897  0.00  0.00    -0.135 NA
ATOM     12  C   UNL     1      -9.579  19.041  67.915  0.00  0.00    +0.299 C 
ATOM     13  O   UNL     1      -9.745  19.765  68.945  0.00  0.00    -0.261 OA
ATOM     14  S   UNL     1      -9.091  17.320  68.107  0.00  0.00    -0.046 S 
ENDBRANCH   7   8
ENDBRANCH   4   7
BRANCH   1  15
ATOM     15  O   UNL     1     -11.700  10.676  67.516  0.00  0.00    -0.475 OA
BRANCH  15  16
ATOM     16  C   UNL     1     -11.157  10.368  68.798  0.00  0.00    +0.212 C 
BRANCH  16  17
ATOM     17  C   UNL     1     -12.281  10.519  69.782  0.00  0.00    +0.093 C 
BRANCH  17  21
ATOM     18  C   UNL     1     -13.258  14.159  71.464  0.00  0.00    -0.003 A 
ATOM     19  C   UNL     1     -12.259  14.113  70.532  0.00  0.00    +0.094 A 
ATOM     20  N   UNL     1     -11.742  12.935  70.104  0.00  0.00    -0.248 NA
ATOM     21  C   UNL     1     -12.252  11.782  70.535  0.00  0.00    +0.063 A 
ATOM     22  C   UNL     1     -13.007  11.821  71.697  0.00  0.00    +0.015 A 
ATOM     23  C   UNL     1     -13.470  13.020  72.220  0.00  0.00    -0.002 A 
BRANCH  18  25
ATOM     24  C   UNL     1     -15.196  14.994  71.449  0.00  0.00    +0.005 C 
ATOM     25  C   UNL     1     -14.240  15.283  71.569  0.00  0.00    +0.028 C 
ENDBRANCH  18  25
ENDBRANCH  17  21
ENDBRANCH  16  17
ENDBRANCH  15  16
ENDBRANCH   1  15
TORSDOF 7
ENDMDL
MODEL 5
REMARK VINA RESULT:      -6.0      6.380      9.530
REMARK  Name = 
REMARK  7 active torsions:
REMARK  status: ('A' for Active; 'I' for Inactive)
REMARK    1  A    between atoms: C_2  and  C_3
REMARK    2  A    between atoms: C_6  and  C_7
REMARK    3  A    between atoms: C_7  and  C_8
REMARK    4  A    between atoms: C_8  and  O_9
REMARK    5  A    between atoms: O_9  and  C_10
REMARK    6  A    between atoms: C_13  and  C_14
REMARK    7  A    between atoms: C_14  and  C_15
REMARK                            x       y       z     vdW  Elec       q    Type
REMARK                         _______ _______ _______ _____ _____    ______ ____
ROOT
ATOM      1  C   UNL     1     -11.637  10.472  70.259  0.00  0.00    +0.139 A 
ATOM      2  C   UNL     1     -11.269   9.802  69.111  0.00  0.00    +0.037 A 
ATOM      3  C   UNL     1     -11.153  10.510  67.947  0.00  0.00    -0.001 A 
ATOM      4  C   UNL     1     -11.493  11.853  67.833  0.00  0.00    -0.021 A 
ATOM      5  C   UNL     1     -11.742  12.520  69.013  0.00  0.00    -0.001 A 
ATOM      6  C   UNL     1     -12.041  11.787  70.145  0.00  0.00    +0.037 A 
ENDROOT
BRANCH   4   7
ATOM      7  C   UNL     1     -11.074  12.516  66.585  0.00  0.00    +0.047 C 
BRANCH   7   8
ATOM      8  C   UNL     1     -11.897  13.870  66.428  0.00  0.00    +0.139 C 
ATOM      9  C   UNL     1     -12.406  13.558  64.984  0.00  0.00    +0.259 C 
ATOM     10  O   UNL     1     -13.094  12.533  64.715  0.00  0.00    -0.272 OA
ATOM     11  N   UNL     1     -12.572  14.791  64.323  0.00  0.00    -0.135 NA
ATOM     12  C   UNL     1     -11.368  15.567  64.345  0.00  0.00    +0.299 C 
ATOM     13  O   UNL     1     -11.421  16.825  64.178  0.00  0.00    -0.261 OA
ATOM     14  S   UNL     1     -10.443  14.893  65.734  0.00  0.00    -0.046 S 
ENDBRANCH   7   8
ENDBRANCH   4   7
BRANCH   1  15
ATOM     15  O   UNL     1     -11.355   9.995  71.541  0.00  0.00    -0.475 OA
BRANCH  15  16
ATOM     16  C   UNL     1     -12.097   8.860  71.985  0.00  0.00    +0.212 C 
BRANCH  16  17
ATOM     17  C   UNL     1     -11.087   7.832  72.405  0.00  0.00    +0.093 C 
BRANCH  17  21
ATOM     18  C   UNL     1      -9.895   6.320  68.754  0.00  0.00    -0.003 A 
ATOM     19  C   UNL     1     -11.094   5.916  69.273  0.00  0.00    +0.094 A 
ATOM     20  N   UNL     1     -11.444   6.197  70.552  0.00  0.00    -0.248 NA
ATOM     21  C   UNL     1     -10.649   6.944  71.317  0.00  0.00    +0.063 A 
ATOM     22  C   UNL     1      -9.325   7.064  70.923  0.00  0.00    +0.015 A 
ATOM     23  C   UNL     1      -8.911   6.692  69.652  0.00  0.00    -0.002 A 
BRANCH  18  25
ATOM     24  C   UNL     1     -10.442   7.008  66.836  0.00  0.00    +0.005 C 
ATOM     25  C   UNL     1      -9.665   6.565  67.296  0.00  0.00    +0.028 C 
ENDBRANCH  18  25
ENDBRANCH  17  21
ENDBRANCH  16  17
ENDBRANCH  15  16
ENDBRANCH   1  15
TORSDOF 7
ENDMDL
MODEL 6
REMARK VINA RESULT:      -5.6      2.324      4.056
REMARK  Name = 
REMARK  7 active torsions:
REMARK  status: ('A' for Active; 'I' for Inactive)
REMARK    1  A    between atoms: C_2  and  C_3
REMARK    2  A    between atoms: C_6  and  C_7
REMARK    3  A    between atoms: C_7  and  C_8
REMARK    4  A    between atoms: C_8  and  O_9
REMARK    5  A    between atoms: O_9  and  C_10
REMARK    6  A    between atoms: C_13  and  C_14
REMARK    7  A    between atoms: C_14  and  C_15
REMARK                            x       y       z     vdW  Elec       q    Type
REMARK                         _______ _______ _______ _____ _____    ______ ____
ROOT
ATOM      1  C   UNL     1     -10.733  17.127  67.500  0.00  0.00    +0.139 A 
ATOM      2  C   UNL     1     -10.361  16.772  66.220  0.00  0.00    +0.037 A 
ATOM      3  C   UNL     1     -10.659  15.514  65.776  0.00  0.00    -0.001 A 
ATOM      4  C   UNL     1     -11.218  14.532  66.585  0.00  0.00    -0.021 A 
ATOM      5  C   UNL     1     -11.684  14.947  67.813  0.00  0.00    -0.001 A 
ATOM      6  C   UNL     1     -11.227  16.143  68.332  0.00  0.00    +0.037 A 
ENDROOT
BRANCH   4   7
ATOM      7  C   UNL     1     -11.699  13.325  65.887  0.00  0.00    +0.047 C 
BRANCH   7   8
ATOM      8  C   UNL     1     -10.700  12.997  64.691  0.00  0.00    +0.139 C 
ATOM      9  C   UNL     1     -11.680  12.031  63.951  0.00  0.00    +0.259 C 
ATOM     10  O   UNL     1     -12.820  12.399  63.550  0.00  0.00    -0.272 OA
ATOM     11  N   UNL     1     -10.895  11.080  63.270  0.00  0.00    -0.135 NA
ATOM     12  C   UNL     1      -9.995  10.406  64.158  0.00  0.00    +0.299 C 
ATOM     13  O   UNL     1      -8.959   9.835  63.698  0.00  0.00    -0.261 OA
ATOM     14  S   UNL     1      -9.846  11.527  65.558  0.00  0.00    -0.046 S 
ENDBRANCH   7   8
ENDBRANCH   4   7
BRANCH   1  15
ATOM     15  O   UNL     1     -10.904  18.454  67.901  0.00  0.00    -0.475 OA
BRANCH  15  16
ATOM     16  C   UNL     1     -10.709  19.459  66.908  0.00  0.00    +0.212 C 
BRANCH  16  17
ATOM     17  C   UNL     1      -9.564  20.306  67.380  0.00  0.00    +0.093 C 
BRANCH  17  21
ATOM     18  C   UNL     1      -6.687  17.351  67.541  0.00  0.00    -0.003 A 
ATOM     19  C   UNL     1      -7.029  17.999  68.696  0.00  0.00    +0.094 A 
ATOM     20  N   UNL     1      -7.797  19.116  68.682  0.00  0.00    -0.248 NA
ATOM     21  C   UNL     1      -8.300  19.571  67.535  0.00  0.00    +0.063 A 
ATOM     22  C   UNL     1      -7.697  19.134  66.365  0.00  0.00    +0.015 A 
ATOM     23  C   UNL     1      -6.827  18.053  66.358  0.00  0.00    -0.002 A 
BRANCH  18  25
ATOM     24  C   UNL     1      -7.157  15.316  67.242  0.00  0.00    +0.005 C 
ATOM     25  C   UNL     1      -6.366  15.891  67.475  0.00  0.00    +0.028 C 
ENDBRANCH  18  25
ENDBRANCH  17  21
ENDBRANCH  16  17
ENDBRANCH  15  16
ENDBRANCH   1  15
TORSDOF 7
ENDMDL
MODEL 7
REMARK VINA RESULT:      -5.6      7.616     10.592
REMARK  Name = 
REMARK  7 active torsions:
REMARK  status: ('A' for Active; 'I' for Inactive)
REMARK    1  A    between atoms: C_2  and  C_3
REMARK    2  A    between atoms: C_6  and  C_7
REMARK    3  A    between atoms: C_7  and  C_8
REMARK    4  A    between atoms: C_8  and  O_9
REMARK    5  A    between atoms: O_9  and  C_10
REMARK    6  A    between atoms: C_13  and  C_14
REMARK    7  A    between atoms: C_14  and  C_15
REMARK                            x       y       z     vdW  Elec       q    Type
REMARK                         _______ _______ _______ _____ _____    ______ ____
ROOT
ATOM      1  C   UNL     1     -11.346  10.076  69.818  0.00  0.00    +0.139 A 
ATOM      2  C   UNL     1     -10.759   9.539  68.690  0.00  0.00    +0.037 A 
ATOM      3  C   UNL     1     -10.703  10.300  67.556  0.00  0.00    -0.001 A 
ATOM      4  C   UNL     1     -11.304  11.548  67.442  0.00  0.00    -0.021 A 
ATOM      5  C   UNL     1     -11.776  12.104  68.611  0.00  0.00    -0.001 A 
ATOM      6  C   UNL     1     -12.004  11.283  69.698  0.00  0.00    +0.037 A 
ENDROOT
BRANCH   4   7
ATOM      7  C   UNL     1     -10.936  12.330  66.247  0.00  0.00    +0.047 C 
BRANCH   7   8
ATOM      8  C   UNL     1     -11.733  13.708  66.276  0.00  0.00    +0.139 C 
ATOM      9  C   UNL     1     -12.404  13.510  64.879  0.00  0.00    +0.259 C 
ATOM     10  O   UNL     1     -13.145  12.522  64.617  0.00  0.00    -0.272 OA
ATOM     11  N   UNL     1     -12.606  14.791  64.328  0.00  0.00    -0.135 NA
ATOM     12  C   UNL     1     -11.385  15.540  64.272  0.00  0.00    +0.299 C 
ATOM     13  O   UNL     1     -11.422  16.808  64.199  0.00  0.00    -0.261 OA
ATOM     14  S   UNL     1     -10.335  14.749  65.500  0.00  0.00    -0.046 S 
ENDBRANCH   7   8
ENDBRANCH   4   7
BRANCH   1  15
ATOM     15  O   UNL     1     -11.071   9.618  71.108  0.00  0.00    -0.475 OA
BRANCH  15  16
ATOM     16  C   UNL     1     -12.190   9.357  71.952  0.00  0.00    +0.212 C 
BRANCH  16  17
ATOM     17  C   UNL     1     -12.515   7.901  71.787  0.00  0.00    +0.093 C 
BRANCH  17  21
ATOM     18  C   UNL     1     -10.173   4.592  72.563  0.00  0.00    -0.003 A 
ATOM     19  C   UNL     1     -10.265   5.570  73.514  0.00  0.00    +0.094 A 
ATOM     20  N   UNL     1     -10.832   6.771  73.244  0.00  0.00    -0.248 NA
ATOM     21  C   UNL     1     -11.383   7.001  72.053  0.00  0.00    +0.063 A 
ATOM     22  C   UNL     1     -11.002   6.169  71.011  0.00  0.00    +0.015 A 
ATOM     23  C   UNL     1     -10.331   4.977  71.244  0.00  0.00    -0.002 A 
BRANCH  18  25
ATOM     24  C   UNL     1     -10.073   2.543  72.066  0.00  0.00    +0.005 C 
ATOM     25  C   UNL     1     -10.111   3.131  72.881  0.00  0.00    +0.028 C 
ENDBRANCH  18  25
ENDBRANCH  17  21
ENDBRANCH  16  17
ENDBRANCH  15  16
ENDBRANCH   1  15
TORSDOF 7
ENDMDL
MODEL 8
REMARK VINA RESULT:      -5.6      4.422      8.062
REMARK  Name = 
REMARK  7 active torsions:
REMARK  status: ('A' for Active; 'I' for Inactive)
REMARK    1  A    between atoms: C_2  and  C_3
REMARK    2  A    between atoms: C_6  and  C_7
REMARK    3  A    between atoms: C_7  and  C_8
REMARK    4  A    between atoms: C_8  and  O_9
REMARK    5  A    between atoms: O_9  and  C_10
REMARK    6  A    between atoms: C_13  and  C_14
REMARK    7  A    between atoms: C_14  and  C_15
REMARK                            x       y       z     vdW  Elec       q    Type
REMARK                         _______ _______ _______ _____ _____    ______ ____
ROOT
ATOM      1  C   UNL     1      -9.533  15.784  68.003  0.00  0.00    +0.139 A 
ATOM      2  C   UNL     1      -9.854  17.105  68.236  0.00  0.00    +0.037 A 
ATOM      3  C   UNL     1      -8.840  18.007  68.397  0.00  0.00    -0.001 A 
ATOM      4  C   UNL     1      -7.499  17.647  68.449  0.00  0.00    -0.021 A 
ATOM      5  C   UNL     1      -7.203  16.348  68.098  0.00  0.00    -0.001 A 
ATOM      6  C   UNL     1      -8.211  15.404  68.119  0.00  0.00    +0.037 A 
ENDROOT
BRANCH   4   7
ATOM      7  C   UNL     1      -6.533  18.760  68.377  0.00  0.00    +0.047 C 
BRANCH   7   8
ATOM      8  C   UNL     1      -6.598  19.578  69.741  0.00  0.00    +0.139 C 
ATOM      9  C   UNL     1      -5.580  20.676  69.294  0.00  0.00    +0.259 C 
ATOM     10  O   UNL     1      -5.769  21.402  68.278  0.00  0.00    -0.272 OA
ATOM     11  N   UNL     1      -4.920  21.130  70.453  0.00  0.00    -0.135 NA
ATOM     12  C   UNL     1      -4.312  20.050  71.172  0.00  0.00    +0.299 C 
ATOM     13  O   UNL     1      -4.037  20.184  72.405  0.00  0.00    -0.261 OA
ATOM     14  S   UNL     1      -5.214  18.596  70.615  0.00  0.00    -0.046 S 
ENDBRANCH   7   8
ENDBRANCH   4   7
BRANCH   1  15
ATOM     15  O   UNL     1     -10.408  14.886  67.387  0.00  0.00    -0.475 OA
BRANCH  15  16
ATOM     16  C   UNL     1     -11.723  14.790  67.932  0.00  0.00    +0.212 C 
BRANCH  16  17
ATOM     17  C   UNL     1     -11.657  13.753  69.016  0.00  0.00    +0.093 C 
BRANCH  17  21
ATOM     18  C   UNL     1     -12.861  14.843  72.810  0.00  0.00    -0.003 A 
ATOM     19  C   UNL     1     -13.103  13.565  72.385  0.00  0.00    +0.094 A 
ATOM     20  N   UNL     1     -12.935  13.205  71.089  0.00  0.00    -0.248 NA
ATOM     21  C   UNL     1     -12.457  14.081  70.206  0.00  0.00    +0.063 A 
ATOM     22  C   UNL     1     -12.533  15.423  70.544  0.00  0.00    +0.015 A 
ATOM     23  C   UNL     1     -12.801  15.829  71.843  0.00  0.00    -0.002 A 
BRANCH  18  25
ATOM     24  C   UNL     1     -12.419  16.178  74.383  0.00  0.00    +0.005 C 
ATOM     25  C   UNL     1     -12.470  15.188  74.213  0.00  0.00    +0.028 C 
ENDBRANCH  18  25
ENDBRANCH  17  21
ENDBRANCH  16  17
ENDBRANCH  15  16
ENDBRANCH   1  15
TORSDOF 7
ENDMDL
MODEL 9
REMARK VINA RESULT:      -5.5      3.310      3.860
REMARK  Name = 
REMARK  7 active torsions:
REMARK  status: ('A' for Active; 'I' for Inactive)
REMARK    1  A    between atoms: C_2  and  C_3
REMARK    2  A    between atoms: C_6  and  C_7
REMARK    3  A    between atoms: C_7  and  C_8
REMARK    4  A    between atoms: C_8  and  O_9
REMARK    5  A    between atoms: O_9  and  C_10
REMARK    6  A    between atoms: C_13  and  C_14
REMARK    7  A    between atoms: C_14  and  C_15
REMARK                            x       y       z     vdW  Elec       q    Type
REMARK                         _______ _______ _______ _____ _____    ______ ____
ROOT
ATOM      1  C   UNL     1      -7.549  16.008  67.348  0.00  0.00    +0.139 A 
ATOM      2  C   UNL     1      -7.882  16.147  68.679  0.00  0.00    +0.037 A 
ATOM      3  C   UNL     1      -9.192  16.006  69.045  0.00  0.00    -0.001 A 
ATOM      4  C   UNL     1     -10.226  15.838  68.133  0.00  0.00    -0.021 A 
ATOM      5  C   UNL     1      -9.853  15.585  66.830  0.00  0.00    -0.001 A 
ATOM      6  C   UNL     1      -8.572  15.908  66.427  0.00  0.00    +0.037 A 
ENDROOT
BRANCH   4   7
ATOM      7  C   UNL     1     -11.530  15.455  68.705  0.00  0.00    +0.047 C 
BRANCH   7   8
ATOM      8  C   UNL     1     -11.285  14.805  70.138  0.00  0.00    +0.139 C 
ATOM      9  C   UNL     1     -12.006  13.460  69.806  0.00  0.00    +0.259 C 
ATOM     10  O   UNL     1     -11.638  12.709  68.858  0.00  0.00    -0.272 OA
ATOM     11  N   UNL     1     -12.550  12.969  71.009  0.00  0.00    -0.135 NA
ATOM     12  C   UNL     1     -13.406  13.934  71.634  0.00  0.00    +0.299 C 
ATOM     13  O   UNL     1     -13.653  13.852  72.877  0.00  0.00    -0.261 OA
ATOM     14  S   UNL     1     -12.872  15.504  70.934  0.00  0.00    -0.046 S 
ENDBRANCH   7   8
ENDBRANCH   4   7
BRANCH   1  15
ATOM     15  O   UNL     1      -6.261  15.679  66.917  0.00  0.00    -0.475 OA
BRANCH  15  16
ATOM     16  C   UNL     1      -5.215  16.585  67.259  0.00  0.00    +0.212 C 
BRANCH  16  17
ATOM     17  C   UNL     1      -5.196  17.635  66.187  0.00  0.00    +0.093 C 
BRANCH  17  21
ATOM     18  C   UNL     1      -8.513  19.827  67.294  0.00  0.00    -0.003 A 
ATOM     19  C   UNL     1      -8.287  19.603  65.964  0.00  0.00    +0.094 A 
ATOM     20  N   UNL     1      -7.115  19.087  65.521  0.00  0.00    -0.248 NA
ATOM     21  C   UNL     1      -6.175  18.714  66.388  0.00  0.00    +0.063 A 
ATOM     22  C   UNL     1      -6.257  19.236  67.670  0.00  0.00    +0.015 A 
ATOM     23  C   UNL     1      -7.409  19.861  68.126  0.00  0.00    -0.002 A 
BRANCH  18  25
ATOM     24  C   UNL     1     -10.572  19.365  67.358  0.00  0.00    +0.005 C 
ATOM     25  C   UNL     1      -9.877  19.836  67.911  0.00  0.00    +0.028 C 
ENDBRANCH  18  25
ENDBRANCH  17  21
ENDBRANCH  16  17
ENDBRANCH  15  16
ENDBRANCH   1  15
TORSDOF 7
ENDMDL
