MODEL 1
REMARK VINA RESULT:      -6.9      0.000      0.000
REMARK  Name = 
REMARK  1 active torsions:
REMARK  status: ('A' for Active; 'I' for Inactive)
REMARK    1  A    between atoms: C_10  and  C_11
REMARK                            x       y       z     vdW  Elec       q    Type
REMARK                         _______ _______ _______ _____ _____    ______ ____
ROOT
ATOM      1  C   UNL     1     -12.084  12.650  65.790  0.00  0.00    +0.120 C 
ATOM      2  N   UNL     1     -11.487  13.289  66.875  0.00  0.00    -0.253 N 
ATOM      3  C   UNL     1     -11.553  14.728  66.909  0.00  0.00    +0.284 C 
ATOM      4  O   UNL     1     -11.432  15.192  65.738  0.00  0.00    -0.270 OA
ATOM      5  C   UNL     1     -10.348  15.437  67.823  0.00  0.00    +0.331 C 
ATOM      6  O   UNL     1     -10.865  16.870  67.474  0.00  0.00    -0.186 OA
ATOM      7  N   UNL     1     -11.271  15.382  69.157  0.00  0.00    -0.233 NA
ATOM      8  C   UNL     1     -11.321  14.275  69.841  0.00  0.00    +0.080 C 
ATOM      9  C   UNL     1     -11.368  12.879  69.375  0.00  0.00    +0.032 A 
ATOM     10  C   UNL     1     -11.762  11.986  70.368  0.00  0.00    +0.014 A 
ATOM     11  C   UNL     1     -12.174  10.719  69.972  0.00  0.00    +0.058 A 
ATOM     12 CL   UNL     1     -13.456   9.836  70.782  0.00  0.00    -0.082 Cl
ATOM     13  C   UNL     1     -11.614  10.255  68.784  0.00  0.00    +0.013 A 
ATOM     14  C   UNL     1     -11.327  11.114  67.728  0.00  0.00    +0.016 A 
ATOM     15  C   UNL     1     -11.300  12.468  68.042  0.00  0.00    +0.055 A 
ENDROOT
BRANCH   8  16
ATOM     16  C   UNL     1     -12.135  14.495  71.049  0.00  0.00    +0.017 A 
ATOM     17  C   UNL     1     -13.514  14.496  70.869  0.00  0.00    +0.001 A 
ATOM     18  C   UNL     1     -14.276  15.386  71.622  0.00  0.00    +0.000 A 
ATOM     19  C   UNL     1     -13.749  15.743  72.857  0.00  0.00    +0.000 A 
ATOM     20  C   UNL     1     -12.382  15.874  72.998  0.00  0.00    +0.000 A 
ATOM     21  C   UNL     1     -11.567  15.285  72.040  0.00  0.00    +0.001 A 
ENDBRANCH   8  16
TORSDOF 1
ENDMDL
MODEL 2
REMARK VINA RESULT:      -6.9      3.079      4.318
REMARK  Name = 
REMARK  1 active torsions:
REMARK  status: ('A' for Active; 'I' for Inactive)
REMARK    1  A    between atoms: C_10  and  C_11
REMARK                            x       y       z     vdW  Elec       q    Type
REMARK                         _______ _______ _______ _____ _____    ______ ____
ROOT
ATOM      1  C   UNL     1      -8.452  13.055  67.359  0.00  0.00    +0.120 C 
ATOM      2  N   UNL     1      -9.774  13.107  67.798  0.00  0.00    -0.253 N 
ATOM      3  C   UNL     1     -10.190  12.111  68.752  0.00  0.00    +0.284 C 
ATOM      4  O   UNL     1      -9.640  11.003  68.486  0.00  0.00    -0.270 OA
ATOM      5  C   UNL     1     -11.836  11.827  68.758  0.00  0.00    +0.331 C 
ATOM      6  O   UNL     1     -11.688  10.724  69.856  0.00  0.00    -0.186 OA
ATOM      7  N   UNL     1     -12.070  12.975  69.883  0.00  0.00    -0.233 NA
ATOM      8  C   UNL     1     -12.152  14.218  69.503  0.00  0.00    +0.080 C 
ATOM      9  C   UNL     1     -11.385  14.944  68.476  0.00  0.00    +0.032 A 
ATOM     10  C   UNL     1     -11.501  16.327  68.586  0.00  0.00    +0.014 A 
ATOM     11  C   UNL     1     -10.571  17.109  67.912  0.00  0.00    +0.058 A 
ATOM     12 CL   UNL     1      -9.960  18.626  68.548  0.00  0.00    -0.082 Cl
ATOM     13  C   UNL     1     -10.026  16.533  66.767  0.00  0.00    +0.013 A 
ATOM     14  C   UNL     1      -9.786  15.165  66.682  0.00  0.00    +0.016 A 
ATOM     15  C   UNL     1     -10.424  14.380  67.635  0.00  0.00    +0.055 A 
ENDROOT
BRANCH   8  16
ATOM     16  C   UNL     1     -12.461  15.056  70.675  0.00  0.00    +0.017 A 
ATOM     17  C   UNL     1     -11.462  15.160  71.638  0.00  0.00    +0.001 A 
ATOM     18  C   UNL     1     -11.841  15.208  72.977  0.00  0.00    +0.000 A 
ATOM     19  C   UNL     1     -13.095  15.746  73.235  0.00  0.00    +0.000 A 
ATOM     20  C   UNL     1     -14.125  15.525  72.341  0.00  0.00    +0.000 A 
ATOM     21  C   UNL     1     -13.796  15.117  71.054  0.00  0.00    +0.001 A 
ENDBRANCH   8  16
TORSDOF 1
ENDMDL
MODEL 3
REMARK VINA RESULT:      -6.6      4.188      5.302
REMARK  Name = 
REMARK  1 active torsions:
REMARK  status: ('A' for Active; 'I' for Inactive)
REMARK    1  A    between atoms: C_10  and  C_11
REMARK                            x       y       z     vdW  Elec       q    Type
REMARK                         _______ _______ _______ _____ _____    ______ ____
ROOT
ATOM      1  C   UNL     1     -11.508  12.392  66.848  0.00  0.00    +0.120 C 
ATOM      2  N   UNL     1     -10.965  13.469  66.151  0.00  0.00    -0.253 N 
ATOM      3  C   UNL     1     -11.888  14.397  65.548  0.00  0.00    +0.284 C 
ATOM      4  O   UNL     1     -12.889  13.772  65.094  0.00  0.00    -0.270 OA
ATOM      5  C   UNL     1     -11.245  15.250  64.265  0.00  0.00    +0.331 C 
ATOM      6  O   UNL     1     -12.601  15.988  64.018  0.00  0.00    -0.186 OA
ATOM      7  N   UNL     1     -10.734  16.432  65.254  0.00  0.00    -0.233 NA
ATOM      8  C   UNL     1      -9.607  16.277  65.887  0.00  0.00    +0.080 C 
ATOM      9  C   UNL     1      -9.037  15.075  66.521  0.00  0.00    +0.032 A 
ATOM     10  C   UNL     1      -7.990  15.363  67.393  0.00  0.00    +0.014 A 
ATOM     11  C   UNL     1      -7.612  14.377  68.296  0.00  0.00    +0.058 A 
ATOM     12 CL   UNL     1      -7.062  14.733  69.924  0.00  0.00    -0.082 Cl
ATOM     13  C   UNL     1      -7.849  13.068  67.882  0.00  0.00    +0.013 A 
ATOM     14  C   UNL     1      -8.959  12.736  67.112  0.00  0.00    +0.016 A 
ATOM     15  C   UNL     1      -9.609  13.801  66.499  0.00  0.00    +0.055 A 
ENDROOT
BRANCH   8  16
ATOM     16  C   UNL     1      -9.307  17.508  66.639  0.00  0.00    +0.017 A 
ATOM     17  C   UNL     1     -10.359  18.056  67.366  0.00  0.00    +0.001 A 
ATOM     18  C   UNL     1     -10.462  19.443  67.431  0.00  0.00    +0.000 A 
ATOM     19  C   UNL     1      -9.269  20.147  67.322  0.00  0.00    +0.000 A 
ATOM     20  C   UNL     1      -8.275  19.670  66.491  0.00  0.00    +0.000 A 
ATOM     21  C   UNL     1      -8.333  18.338  66.100  0.00  0.00    +0.001 A 
ENDBRANCH   8  16
TORSDOF 1
ENDMDL
MODEL 4
REMARK VINA RESULT:      -6.6      2.347      4.657
REMARK  Name = 
REMARK  1 active torsions:
REMARK  status: ('A' for Active; 'I' for Inactive)
REMARK    1  A    between atoms: C_10  and  C_11
REMARK                            x       y       z     vdW  Elec       q    Type
REMARK                         _______ _______ _______ _____ _____    ______ ____
ROOT
ATOM      1  C   UNL     1      -9.761  15.073  67.814  0.00  0.00    +0.120 C 
ATOM      2  N   UNL     1     -10.616  13.977  67.916  0.00  0.00    -0.253 N 
ATOM      3  C   UNL     1     -10.159  12.732  67.353  0.00  0.00    +0.284 C 
ATOM      4  O   UNL     1      -9.515  12.952  66.287  0.00  0.00    -0.270 OA
ATOM      5  C   UNL     1     -11.394  11.682  66.947  0.00  0.00    +0.331 C 
ATOM      6  O   UNL     1     -10.378  10.630  66.395  0.00  0.00    -0.186 OA
ATOM      7  N   UNL     1     -11.359  11.006  68.422  0.00  0.00    -0.233 NA
ATOM      8  C   UNL     1     -11.997  11.590  69.396  0.00  0.00    +0.080 C 
ATOM      9  C   UNL     1     -12.126  13.022  69.715  0.00  0.00    +0.032 A 
ATOM     10  C   UNL     1     -12.585  13.252  71.010  0.00  0.00    +0.014 A 
ATOM     11  C   UNL     1     -12.418  14.527  71.537  0.00  0.00    +0.058 A 
ATOM     12 CL   UNL     1     -12.066  14.821  73.231  0.00  0.00    -0.082 Cl
ATOM     13  C   UNL     1     -12.389  15.559  70.602  0.00  0.00    +0.013 A 
ATOM     14  C   UNL     1     -11.822  15.387  69.344  0.00  0.00    +0.016 A 
ATOM     15  C   UNL     1     -11.610  14.071  68.951  0.00  0.00    +0.055 A 
ENDROOT
BRANCH   8  16
ATOM     16  C   UNL     1     -11.904  10.748  70.602  0.00  0.00    +0.017 A 
ATOM     17  C   UNL     1     -10.758   9.967  70.719  0.00  0.00    +0.001 A 
ATOM     18  C   UNL     1     -10.882   8.696  71.273  0.00  0.00    +0.000 A 
ATOM     19  C   UNL     1     -11.919   8.526  72.182  0.00  0.00    +0.000 A 
ATOM     20  C   UNL     1     -13.108   9.200  71.986  0.00  0.00    +0.000 A 
ATOM     21  C   UNL     1     -13.105  10.297  71.133  0.00  0.00    +0.001 A 
ENDBRANCH   8  16
TORSDOF 1
ENDMDL
MODEL 5
REMARK VINA RESULT:      -6.5      3.170      6.305
REMARK  Name = 
REMARK  1 active torsions:
REMARK  status: ('A' for Active; 'I' for Inactive)
REMARK    1  A    between atoms: C_10  and  C_11
REMARK                            x       y       z     vdW  Elec       q    Type
REMARK                         _______ _______ _______ _____ _____    ______ ____
ROOT
ATOM      1  C   UNL     1     -12.288  15.605  70.807  0.00  0.00    +0.120 C 
ATOM      2  N   UNL     1     -11.621  14.690  69.995  0.00  0.00    -0.253 N 
ATOM      3  C   UNL     1     -12.200  13.377  69.870  0.00  0.00    +0.284 C 
ATOM      4  O   UNL     1     -12.694  13.018  70.978  0.00  0.00    -0.270 OA
ATOM      5  C   UNL     1     -11.102  12.193  69.441  0.00  0.00    +0.331 C 
ATOM      6  O   UNL     1     -12.203  11.086  69.503  0.00  0.00    -0.186 OA
ATOM      7  N   UNL     1     -11.385  12.447  67.863  0.00  0.00    -0.233 NA
ATOM      8  C   UNL     1     -10.767  13.424  67.263  0.00  0.00    +0.080 C 
ATOM      9  C   UNL     1     -10.458  14.782  67.743  0.00  0.00    +0.032 A 
ATOM     10  C   UNL     1     -10.101  15.654  66.719  0.00  0.00    +0.014 A 
ATOM     11  C   UNL     1     -10.127  17.016  66.992  0.00  0.00    +0.058 A 
ATOM     12 CL   UNL     1     -10.600  18.219  65.804  0.00  0.00    -0.082 Cl
ATOM     13  C   UNL     1      -9.909  17.361  68.323  0.00  0.00    +0.013 A 
ATOM     14  C   UNL     1     -10.366  16.565  69.368  0.00  0.00    +0.016 A 
ATOM     15  C   UNL     1     -10.732  15.269  69.023  0.00  0.00    +0.055 A 
ENDROOT
BRANCH   8  16
ATOM     16  C   UNL     1     -11.105  13.395  65.829  0.00  0.00    +0.017 A 
ATOM     17  C   UNL     1     -12.461  13.383  65.517  0.00  0.00    +0.001 A 
ATOM     18  C   UNL     1     -12.879  12.624  64.427  0.00  0.00    +0.000 A 
ATOM     19  C   UNL     1     -11.945  12.449  63.414  0.00  0.00    +0.000 A 
ATOM     20  C   UNL     1     -10.608  12.325  63.739  0.00  0.00    +0.000 A 
ATOM     21  C   UNL     1     -10.198  12.756  64.995  0.00  0.00    +0.001 A 
ENDBRANCH   8  16
TORSDOF 1
ENDMDL
MODEL 6
REMARK VINA RESULT:      -6.5      3.030      4.175
REMARK  Name = 
REMARK  1 active torsions:
REMARK  status: ('A' for Active; 'I' for Inactive)
REMARK    1  A    between atoms: C_10  and  C_11
REMARK                            x       y       z     vdW  Elec       q    Type
REMARK                         _______ _______ _______ _____ _____    ______ ____
ROOT
ATOM      1  C   UNL     1     -11.743  12.243  65.122  0.00  0.00    +0.120 C 
ATOM      2  N   UNL     1     -11.286  12.181  66.437  0.00  0.00    -0.253 N 
ATOM      3  C   UNL     1     -11.935  13.031  67.401  0.00  0.00    +0.284 C 
ATOM      4  O   UNL     1     -12.224  14.142  66.869  0.00  0.00    -0.270 OA
ATOM      5  C   UNL     1     -10.993  13.381  68.736  0.00  0.00    +0.331 C 
ATOM      6  O   UNL     1     -12.110  14.290  69.342  0.00  0.00    -0.186 OA
ATOM      7  N   UNL     1     -11.562  12.082  69.527  0.00  0.00    -0.233 NA
ATOM      8  C   UNL     1     -11.028  10.919  69.290  0.00  0.00    +0.080 C 
ATOM      9  C   UNL     1     -10.572  10.330  68.018  0.00  0.00    +0.032 A 
ATOM     10  C   UNL     1     -10.380   8.953  68.092  0.00  0.00    +0.014 A 
ATOM     11  C   UNL     1     -10.293   8.248  66.898  0.00  0.00    +0.058 A 
ATOM     12 CL   UNL     1     -10.930   6.625  66.700  0.00  0.00    -0.082 Cl
ATOM     13  C   UNL     1      -9.808   8.973  65.812  0.00  0.00    +0.013 A 
ATOM     14  C   UNL     1     -10.092  10.325  65.652  0.00  0.00    +0.016 A 
ATOM     15  C   UNL     1     -10.575  10.978  66.781  0.00  0.00    +0.055 A 
ENDROOT
BRANCH   8  16
ATOM     16  C   UNL     1     -11.635   9.920  70.188  0.00  0.00    +0.017 A 
ATOM     17  C   UNL     1     -12.944  10.169  70.587  0.00  0.00    +0.001 A 
ATOM     18  C   UNL     1     -13.311   9.834  71.888  0.00  0.00    +0.000 A 
ATOM     19  C   UNL     1     -12.610   8.782  72.465  0.00  0.00    +0.000 A 
ATOM     20  C   UNL     1     -11.271   8.618  72.172  0.00  0.00    +0.000 A 
ATOM     21  C   UNL     1     -10.768   9.250  71.041  0.00  0.00    +0.001 A 
ENDBRANCH   8  16
TORSDOF 1
ENDMDL
MODEL 7
REMARK VINA RESULT:      -6.3      1.836      4.931
REMARK  Name = 
REMARK  1 active torsions:
REMARK  status: ('A' for Active; 'I' for Inactive)
REMARK    1  A    between atoms: C_10  and  C_11
REMARK                            x       y       z     vdW  Elec       q    Type
REMARK                         _______ _______ _______ _____ _____    ______ ____
ROOT
ATOM      1  C   UNL     1     -11.786  15.160  72.049  0.00  0.00    +0.120 C 
ATOM      2  N   UNL     1     -11.871  14.762  70.716  0.00  0.00    -0.253 N 
ATOM      3  C   UNL     1     -11.102  15.512  69.756  0.00  0.00    +0.284 C 
ATOM      4  O   UNL     1     -11.105  16.739  70.067  0.00  0.00    -0.270 OA
ATOM      5  C   UNL     1     -11.697  15.422  68.197  0.00  0.00    +0.331 C 
ATOM      6  O   UNL     1     -10.582  16.382  67.669  0.00  0.00    -0.186 OA
ATOM      7  N   UNL     1     -10.782  14.118  67.882  0.00  0.00    -0.233 NA
ATOM      8  C   UNL     1     -11.210  12.946  68.254  0.00  0.00    +0.080 C 
ATOM      9  C   UNL     1     -11.907  12.544  69.489  0.00  0.00    +0.032 A 
ATOM     10  C   UNL     1     -11.899  11.167  69.695  0.00  0.00    +0.014 A 
ATOM     11  C   UNL     1     -12.208  10.702  70.967  0.00  0.00    +0.058 A 
ATOM     12 CL   UNL     1     -11.447   9.289  71.679  0.00  0.00    -0.082 Cl
ATOM     13  C   UNL     1     -13.047  11.525  71.714  0.00  0.00    +0.013 A 
ATOM     14  C   UNL     1     -12.987  12.911  71.616  0.00  0.00    +0.016 A 
ATOM     15  C   UNL     1     -12.310  13.408  70.508  0.00  0.00    +0.055 A 
ENDROOT
BRANCH   8  16
ATOM     16  C   UNL     1     -10.269  11.918  67.776  0.00  0.00    +0.017 A 
ATOM     17  C   UNL     1      -8.930  12.113  68.100  0.00  0.00    +0.001 A 
ATOM     18  C   UNL     1      -7.966  11.753  67.162  0.00  0.00    +0.000 A 
ATOM     19  C   UNL     1      -8.315  10.724  66.296  0.00  0.00    +0.000 A 
ATOM     20  C   UNL     1      -9.624  10.615  65.867  0.00  0.00    +0.000 A 
ATOM     21  C   UNL     1     -10.607  11.275  66.593  0.00  0.00    +0.001 A 
ENDBRANCH   8  16
TORSDOF 1
ENDMDL
MODEL 8
REMARK VINA RESULT:      -6.3      3.350      4.615
REMARK  Name = 
REMARK  1 active torsions:
REMARK  status: ('A' for Active; 'I' for Inactive)
REMARK    1  A    between atoms: C_10  and  C_11
REMARK                            x       y       z     vdW  Elec       q    Type
REMARK                         _______ _______ _______ _____ _____    ______ ____
ROOT
ATOM      1  C   UNL     1      -9.267  10.623  65.037  0.00  0.00    +0.120 C 
ATOM      2  N   UNL     1     -10.169  10.884  66.068  0.00  0.00    -0.253 N 
ATOM      3  C   UNL     1      -9.743  10.575  67.408  0.00  0.00    +0.284 C 
ATOM      4  O   UNL     1      -9.053   9.514  67.407  0.00  0.00    -0.270 OA
ATOM      5  C   UNL     1     -11.004  10.312  68.473  0.00  0.00    +0.331 C 
ATOM      6  O   UNL     1     -10.012  10.003  69.641  0.00  0.00    -0.186 OA
ATOM      7  N   UNL     1     -11.049  11.885  68.871  0.00  0.00    -0.233 NA
ATOM      8  C   UNL     1     -11.697  12.710  68.099  0.00  0.00    +0.080 C 
ATOM      9  C   UNL     1     -11.780  12.760  66.629  0.00  0.00    +0.032 A 
ATOM     10  C   UNL     1     -12.275  13.971  66.153  0.00  0.00    +0.014 A 
ATOM     11  C   UNL     1     -12.076  14.267  64.810  0.00  0.00    +0.058 A 
ATOM     12 CL   UNL     1     -11.773  15.894  64.225  0.00  0.00    -0.082 Cl
ATOM     13  C   UNL     1     -11.972  13.164  63.966  0.00  0.00    +0.013 A 
ATOM     14  C   UNL     1     -11.368  11.982  64.382  0.00  0.00    +0.016 A 
ATOM     15  C   UNL     1     -11.195  11.843  65.754  0.00  0.00    +0.055 A 
ENDROOT
BRANCH   8  16
ATOM     16  C   UNL     1     -11.681  14.051  68.711  0.00  0.00    +0.017 A 
ATOM     17  C   UNL     1     -10.478  14.745  68.638  0.00  0.00    +0.001 A 
ATOM     18  C   UNL     1     -10.106  15.532  69.724  0.00  0.00    +0.000 A 
ATOM     19  C   UNL     1     -11.146  16.050  70.485  0.00  0.00    +0.000 A 
ATOM     20  C   UNL     1     -12.290  15.298  70.669  0.00  0.00    +0.000 A 
ATOM     21  C   UNL     1     -12.526  14.243  69.796  0.00  0.00    +0.001 A 
ENDBRANCH   8  16
TORSDOF 1
ENDMDL
MODEL 9
REMARK VINA RESULT:      -6.3      3.358      4.315
REMARK  Name = 
REMARK  1 active torsions:
REMARK  status: ('A' for Active; 'I' for Inactive)
REMARK    1  A    between atoms: C_10  and  C_11
REMARK                            x       y       z     vdW  Elec       q    Type
REMARK                         _______ _______ _______ _____ _____    ______ ____
ROOT
ATOM      1  C   UNL     1      -9.414  10.546  68.732  0.00  0.00    +0.120 C 
ATOM      2  N   UNL     1     -10.675  10.998  69.118  0.00  0.00    -0.253 N 
ATOM      3  C   UNL     1     -11.188  10.523  70.377  0.00  0.00    +0.284 C 
ATOM      4  O   UNL     1     -10.853   9.315  70.549  0.00  0.00    -0.270 OA
ATOM      5  C   UNL     1     -12.854  10.569  70.487  0.00  0.00    +0.331 C 
ATOM      6  O   UNL     1     -12.821   9.946  71.921  0.00  0.00    -0.186 OA
ATOM      7  N   UNL     1     -12.812  12.074  71.095  0.00  0.00    -0.233 NA
ATOM      8  C   UNL     1     -12.706  13.079  70.274  0.00  0.00    +0.080 C 
ATOM      9  C   UNL     1     -11.899  13.218  69.049  0.00  0.00    +0.032 A 
ATOM     10  C   UNL     1     -11.770  14.539  68.628  0.00  0.00    +0.014 A 
ATOM     11  C   UNL     1     -10.768  14.829  67.711  0.00  0.00    +0.058 A 
ATOM     12 CL   UNL     1      -9.865  16.335  67.727  0.00  0.00    -0.082 Cl
ATOM     13  C   UNL     1     -10.409  13.779  66.868  0.00  0.00    +0.013 A 
ATOM     14  C   UNL     1     -10.411  12.459  67.307  0.00  0.00    +0.016 A 
ATOM     15  C   UNL     1     -11.108  12.216  68.485  0.00  0.00    +0.055 A 
ENDROOT
BRANCH   8  16
ATOM     16  C   UNL     1     -12.788  14.335  71.042  0.00  0.00    +0.017 A 
ATOM     17  C   UNL     1     -11.666  14.670  71.793  0.00  0.00    +0.001 A 
ATOM     18  C   UNL     1     -11.859  15.274  73.032  0.00  0.00    +0.000 A 
ATOM     19  C   UNL     1     -13.019  16.026  73.167  0.00  0.00    +0.000 A 
ATOM     20  C   UNL     1     -14.172  15.615  72.527  0.00  0.00    +0.000 A 
ATOM     21  C   UNL     1     -14.051  14.707  71.483  0.00  0.00    +0.001 A 
ENDBRANCH   8  16
TORSDOF 1
ENDMDL
