MODEL 1
REMARK VINA RESULT:      -5.8      0.000      0.000
REMARK  Name = 
REMARK  7 active torsions:
REMARK  status: ('A' for Active; 'I' for Inactive)
REMARK    1  A    between atoms: C_2  and  N_3
REMARK    2  A    between atoms: N_3  and  C_4
REMARK    3  A    between atoms: N_3  and  C_6
REMARK    4  A    between atoms: C_6  and  C_7
REMARK    5  A    between atoms: C_7  and  O_8
REMARK    6  A    between atoms: O_8  and  C_9
REMARK    7  A    between atoms: C_9  and  C_11
REMARK                            x       y       z     vdW  Elec       q    Type
REMARK                         _______ _______ _______ _____ _____    ______ ____
ROOT
ATOM      1  C   UNL     1     -10.765  16.030  68.327  0.00  0.00    +0.342 C 
ATOM      2  O   UNL     1     -11.172  17.204  68.077  0.00  0.00    -0.245 OA
ENDROOT
BRANCH   1   3
ATOM      3  C   UNL     1     -10.825  14.962  67.320  0.00  0.00    +0.086 A 
ATOM      4  C   UNL     1     -10.057  15.033  66.164  0.00  0.00    +0.065 A 
ATOM      5 CL   UNL     1      -8.655  16.078  66.220  0.00  0.00    -0.082 Cl
ATOM      6  C   UNL     1     -10.513  14.514  64.959  0.00  0.00    +0.030 A 
ATOM      7  C   UNL     1     -11.819  14.052  64.875  0.00  0.00    +0.090 A 
ATOM      8  N   UNL     1     -12.538  14.091  63.643  0.00  0.00    -0.128 NA
ATOM      9  C   UNL     1     -12.388  13.610  66.057  0.00  0.00    +0.018 A 
ATOM     10  C   UNL     1     -11.914  14.104  67.249  0.00  0.00    +0.009 A 
ENDBRANCH   1   3
BRANCH   1  11
ATOM     11  O   UNL     1     -10.531  15.742  69.663  0.00  0.00    -0.444 OA
BRANCH  11  12
ATOM     12  C   UNL     1     -11.349  16.143  70.728  0.00  0.00    +0.226 C 
BRANCH  12  13
ATOM     13  C   UNL     1     -12.714  15.526  70.725  0.00  0.00    +0.120 C 
BRANCH  13  14
ATOM     14  N   UNL     1     -13.130  15.339  72.089  0.00  0.00    -0.270 NA
BRANCH  14  15
ATOM     15  C   UNL     1     -12.048  15.256  73.029  0.00  0.00    +0.072 C 
ATOM     16  C   UNL     1     -12.523  15.760  74.386  0.00  0.00    +0.019 C 
ENDBRANCH  14  15
BRANCH  14  18
ATOM     17  C   UNL     1     -13.448  12.902  72.087  0.00  0.00    +0.019 C 
ATOM     18  C   UNL     1     -14.084  14.265  72.196  0.00  0.00    +0.072 C 
ENDBRANCH  14  18
ENDBRANCH  13  14
ENDBRANCH  12  13
ENDBRANCH  11  12
ENDBRANCH   1  11
TORSDOF 7
ENDMDL
MODEL 2
REMARK VINA RESULT:      -5.7      1.988      2.484
REMARK  Name = 
REMARK  7 active torsions:
REMARK  status: ('A' for Active; 'I' for Inactive)
REMARK    1  A    between atoms: C_2  and  N_3
REMARK    2  A    between atoms: N_3  and  C_4
REMARK    3  A    between atoms: N_3  and  C_6
REMARK    4  A    between atoms: C_6  and  C_7
REMARK    5  A    between atoms: C_7  and  O_8
REMARK    6  A    between atoms: O_8  and  C_9
REMARK    7  A    between atoms: C_9  and  C_11
REMARK                            x       y       z     vdW  Elec       q    Type
REMARK                         _______ _______ _______ _____ _____    ______ ____
ROOT
ATOM      1  C   UNL     1     -11.710  12.515  67.667  0.00  0.00    +0.342 C 
ATOM      2  O   UNL     1     -12.013  11.294  67.824  0.00  0.00    -0.245 OA
ENDROOT
BRANCH   1   3
ATOM      3  C   UNL     1     -11.446  13.079  66.336  0.00  0.00    +0.086 A 
ATOM      4  C   UNL     1     -10.211  13.642  66.036  0.00  0.00    +0.065 A 
ATOM      5 CL   UNL     1      -8.864  13.150  67.041  0.00  0.00    -0.082 Cl
ATOM      6  C   UNL     1     -10.097  14.718  65.167  0.00  0.00    +0.030 A 
ATOM      7  C   UNL     1     -11.251  15.339  64.708  0.00  0.00    +0.090 A 
ATOM      8  N   UNL     1     -11.256  16.723  64.360  0.00  0.00    -0.128 NA
ATOM      9  C   UNL     1     -12.390  14.554  64.662  0.00  0.00    +0.018 A 
ATOM     10  C   UNL     1     -12.485  13.471  65.505  0.00  0.00    +0.009 A 
ENDBRANCH   1   3
BRANCH   1  11
ATOM     11  O   UNL     1     -11.369  13.208  68.819  0.00  0.00    -0.444 OA
BRANCH  11  12
ATOM     12  C   UNL     1     -12.214  14.089  69.508  0.00  0.00    +0.226 C 
BRANCH  12  13
ATOM     13  C   UNL     1     -12.147  13.968  70.999  0.00  0.00    +0.120 C 
BRANCH  13  14
ATOM     14  N   UNL     1     -12.864  15.075  71.575  0.00  0.00    -0.270 NA
BRANCH  14  15
ATOM     15  C   UNL     1     -12.076  15.893  72.455  0.00  0.00    +0.072 C 
ATOM     16  C   UNL     1     -12.481  15.612  73.896  0.00  0.00    +0.019 C 
ENDBRANCH  14  15
BRANCH  14  18
ATOM     17  C   UNL     1     -15.311  15.121  71.355  0.00  0.00    +0.019 C 
ATOM     18  C   UNL     1     -14.116  14.643  72.141  0.00  0.00    +0.072 C 
ENDBRANCH  14  18
ENDBRANCH  13  14
ENDBRANCH  12  13
ENDBRANCH  11  12
ENDBRANCH   1  11
TORSDOF 7
ENDMDL
MODEL 3
REMARK VINA RESULT:      -5.6      0.451      1.576
REMARK  Name = 
REMARK  7 active torsions:
REMARK  status: ('A' for Active; 'I' for Inactive)
REMARK    1  A    between atoms: C_2  and  N_3
REMARK    2  A    between atoms: N_3  and  C_4
REMARK    3  A    between atoms: N_3  and  C_6
REMARK    4  A    between atoms: C_6  and  C_7
REMARK    5  A    between atoms: C_7  and  O_8
REMARK    6  A    between atoms: O_8  and  C_9
REMARK    7  A    between atoms: C_9  and  C_11
REMARK                            x       y       z     vdW  Elec       q    Type
REMARK                         _______ _______ _______ _____ _____    ______ ____
ROOT
ATOM      1  C   UNL     1     -10.740  16.144  68.327  0.00  0.00    +0.342 C 
ATOM      2  O   UNL     1     -11.155  17.312  68.064  0.00  0.00    -0.245 OA
ENDROOT
BRANCH   1   3
ATOM      3  C   UNL     1     -10.797  15.064  67.333  0.00  0.00    +0.086 A 
ATOM      4  C   UNL     1     -10.046  15.134  66.165  0.00  0.00    +0.065 A 
ATOM      5 CL   UNL     1      -8.660  16.202  66.191  0.00  0.00    -0.082 Cl
ATOM      6  C   UNL     1     -10.509  14.595  64.972  0.00  0.00    +0.030 A 
ATOM      7  C   UNL     1     -11.809  14.112  64.911  0.00  0.00    +0.090 A 
ATOM      8  N   UNL     1     -12.545  14.125  63.689  0.00  0.00    -0.128 NA
ATOM      9  C   UNL     1     -12.355  13.673  66.105  0.00  0.00    +0.018 A 
ATOM     10  C   UNL     1     -11.873  14.188  67.285  0.00  0.00    +0.009 A 
ENDBRANCH   1   3
BRANCH   1  11
ATOM     11  O   UNL     1     -10.502  15.872  69.666  0.00  0.00    -0.444 OA
BRANCH  11  12
ATOM     12  C   UNL     1     -11.434  16.039  70.700  0.00  0.00    +0.226 C 
BRANCH  12  13
ATOM     13  C   UNL     1     -12.468  14.959  70.778  0.00  0.00    +0.120 C 
BRANCH  13  14
ATOM     14  N   UNL     1     -12.675  14.630  72.163  0.00  0.00    -0.270 NA
BRANCH  14  15
ATOM     15  C   UNL     1     -13.611  13.563  72.382  0.00  0.00    +0.072 C 
ATOM     16  C   UNL     1     -13.109  12.305  71.685  0.00  0.00    +0.019 C 
ENDBRANCH  14  15
BRANCH  14  18
ATOM     17  C   UNL     1     -12.488  15.684  74.376  0.00  0.00    +0.019 C 
ATOM     18  C   UNL     1     -12.941  15.811  72.943  0.00  0.00    +0.072 C 
ENDBRANCH  14  18
ENDBRANCH  13  14
ENDBRANCH  12  13
ENDBRANCH  11  12
ENDBRANCH   1  11
TORSDOF 7
ENDMDL
MODEL 4
REMARK VINA RESULT:      -5.5      2.142      6.870
REMARK  Name = 
REMARK  7 active torsions:
REMARK  status: ('A' for Active; 'I' for Inactive)
REMARK    1  A    between atoms: C_2  and  N_3
REMARK    2  A    between atoms: N_3  and  C_4
REMARK    3  A    between atoms: N_3  and  C_6
REMARK    4  A    between atoms: C_6  and  C_7
REMARK    5  A    between atoms: C_7  and  O_8
REMARK    6  A    between atoms: O_8  and  C_9
REMARK    7  A    between atoms: C_9  and  C_11
REMARK                            x       y       z     vdW  Elec       q    Type
REMARK                         _______ _______ _______ _____ _____    ______ ____
ROOT
ATOM      1  C   UNL     1     -12.194  13.320  69.924  0.00  0.00    +0.342 C 
ATOM      2  O   UNL     1     -12.130  12.191  70.496  0.00  0.00    -0.245 OA
ENDROOT
BRANCH   1   3
ATOM      3  C   UNL     1     -12.621  14.527  70.646  0.00  0.00    +0.086 A 
ATOM      4  C   UNL     1     -11.709  15.528  70.958  0.00  0.00    +0.065 A 
ATOM      5 CL   UNL     1     -10.245  15.577  70.001  0.00  0.00    -0.082 Cl
ATOM      6  C   UNL     1     -11.828  16.278  72.120  0.00  0.00    +0.030 A 
ATOM      7  C   UNL     1     -12.786  15.921  73.059  0.00  0.00    +0.090 A 
ATOM      8  N   UNL     1     -12.596  16.189  74.448  0.00  0.00    -0.128 NA
ATOM      9  C   UNL     1     -13.896  15.251  72.574  0.00  0.00    +0.018 A 
ATOM     10  C   UNL     1     -13.782  14.533  71.407  0.00  0.00    +0.009 A 
ENDBRANCH   1   3
BRANCH   1  11
ATOM     11  O   UNL     1     -12.116  13.304  68.540  0.00  0.00    -0.444 OA
BRANCH  11  12
ATOM     12  C   UNL     1     -11.565  12.265  67.777  0.00  0.00    +0.226 C 
BRANCH  12  13
ATOM     13  C   UNL     1     -10.772  12.722  66.593  0.00  0.00    +0.120 C 
BRANCH  13  14
ATOM     14  N   UNL     1     -11.646  13.454  65.716  0.00  0.00    -0.270 NA
BRANCH  14  15
ATOM     15  C   UNL     1     -12.481  12.627  64.890  0.00  0.00    +0.072 C 
ATOM     16  C   UNL     1     -12.035  12.756  63.440  0.00  0.00    +0.019 C 
ENDBRANCH  14  15
BRANCH  14  18
ATOM     17  C   UNL     1      -9.762  15.032  65.770  0.00  0.00    +0.019 C 
ATOM     18  C   UNL     1     -10.923  14.467  64.991  0.00  0.00    +0.072 C 
ENDBRANCH  14  18
ENDBRANCH  13  14
ENDBRANCH  12  13
ENDBRANCH  11  12
ENDBRANCH   1  11
TORSDOF 7
ENDMDL
MODEL 5
REMARK VINA RESULT:      -5.5      3.928      5.563
REMARK  Name = 
REMARK  7 active torsions:
REMARK  status: ('A' for Active; 'I' for Inactive)
REMARK    1  A    between atoms: C_2  and  N_3
REMARK    2  A    between atoms: N_3  and  C_4
REMARK    3  A    between atoms: N_3  and  C_6
REMARK    4  A    between atoms: C_6  and  C_7
REMARK    5  A    between atoms: C_7  and  O_8
REMARK    6  A    between atoms: O_8  and  C_9
REMARK    7  A    between atoms: C_9  and  C_11
REMARK                            x       y       z     vdW  Elec       q    Type
REMARK                         _______ _______ _______ _____ _____    ______ ____
ROOT
ATOM      1  C   UNL     1     -11.828  11.738  69.377  0.00  0.00    +0.342 C 
ATOM      2  O   UNL     1     -12.221  11.348  68.236  0.00  0.00    -0.245 OA
ENDROOT
BRANCH   1   3
ATOM      3  C   UNL     1     -11.822  10.838  70.539  0.00  0.00    +0.086 A 
ATOM      4  C   UNL     1     -10.868   9.834  70.655  0.00  0.00    +0.065 A 
ATOM      5 CL   UNL     1      -9.399  10.041  69.725  0.00  0.00    -0.082 Cl
ATOM      6  C   UNL     1     -11.163   8.621  71.262  0.00  0.00    +0.030 A 
ATOM      7  C   UNL     1     -12.476   8.350  71.623  0.00  0.00    +0.090 A 
ATOM      8  N   UNL     1     -12.971   7.012  71.660  0.00  0.00    -0.128 NA
ATOM      9  C   UNL     1     -13.275   9.448  71.889  0.00  0.00    +0.018 A 
ATOM     10  C   UNL     1     -12.962  10.655  71.309  0.00  0.00    +0.009 A 
ENDBRANCH   1   3
BRANCH   1  11
ATOM     11  O   UNL     1     -11.677  13.108  69.531  0.00  0.00    -0.444 OA
BRANCH  11  12
ATOM     12  C   UNL     1     -12.060  13.836  70.666  0.00  0.00    +0.226 C 
BRANCH  12  13
ATOM     13  C   UNL     1     -12.623  15.191  70.368  0.00  0.00    +0.120 C 
BRANCH  13  14
ATOM     14  N   UNL     1     -13.093  15.767  71.600  0.00  0.00    -0.270 NA
BRANCH  14  15
ATOM     15  C   UNL     1     -12.056  16.043  72.555  0.00  0.00    +0.072 C 
ATOM     16  C   UNL     1     -12.521  15.607  73.939  0.00  0.00    +0.019 C 
ENDBRANCH  14  15
BRANCH  14  18
ATOM     17  C   UNL     1     -15.448  15.130  71.301  0.00  0.00    +0.019 C 
ATOM     18  C   UNL     1     -14.197  15.014  72.136  0.00  0.00    +0.072 C 
ENDBRANCH  14  18
ENDBRANCH  13  14
ENDBRANCH  12  13
ENDBRANCH  11  12
ENDBRANCH   1  11
TORSDOF 7
ENDMDL
MODEL 6
REMARK VINA RESULT:      -5.3      3.906      6.238
REMARK  Name = 
REMARK  7 active torsions:
REMARK  status: ('A' for Active; 'I' for Inactive)
REMARK    1  A    between atoms: C_2  and  N_3
REMARK    2  A    between atoms: N_3  and  C_4
REMARK    3  A    between atoms: N_3  and  C_6
REMARK    4  A    between atoms: C_6  and  C_7
REMARK    5  A    between atoms: C_7  and  O_8
REMARK    6  A    between atoms: O_8  and  C_9
REMARK    7  A    between atoms: C_9  and  C_11
REMARK                            x       y       z     vdW  Elec       q    Type
REMARK                         _______ _______ _______ _____ _____    ______ ____
ROOT
ATOM      1  C   UNL     1     -12.313  13.307  69.899  0.00  0.00    +0.342 C 
ATOM      2  O   UNL     1     -12.121  13.314  68.646  0.00  0.00    -0.245 OA
ENDROOT
BRANCH   1   3
ATOM      3  C   UNL     1     -12.689  14.525  70.629  0.00  0.00    +0.086 A 
ATOM      4  C   UNL     1     -11.733  15.478  70.961  0.00  0.00    +0.065 A 
ATOM      5 CL   UNL     1     -10.259  15.466  70.018  0.00  0.00    -0.082 Cl
ATOM      6  C   UNL     1     -11.827  16.222  72.129  0.00  0.00    +0.030 A 
ATOM      7  C   UNL     1     -12.811  15.901  73.055  0.00  0.00    +0.090 A 
ATOM      8  N   UNL     1     -12.622  16.145  74.448  0.00  0.00    -0.128 NA
ATOM      9  C   UNL     1     -13.947  15.291  72.552  0.00  0.00    +0.018 A 
ATOM     10  C   UNL     1     -13.855  14.579  71.379  0.00  0.00    +0.009 A 
ENDBRANCH   1   3
BRANCH   1  11
ATOM     11  O   UNL     1     -11.878  12.175  70.572  0.00  0.00    -0.444 OA
BRANCH  11  12
ATOM     12  C   UNL     1     -12.621  10.996  70.727  0.00  0.00    +0.226 C 
BRANCH  12  13
ATOM     13  C   UNL     1     -11.792   9.764  70.916  0.00  0.00    +0.120 C 
BRANCH  13  14
ATOM     14  N   UNL     1     -12.270   9.070  72.082  0.00  0.00    -0.270 NA
BRANCH  14  15
ATOM     15  C   UNL     1     -11.713   7.758  72.256  0.00  0.00    +0.072 C 
ATOM     16  C   UNL     1     -10.333   7.879  72.890  0.00  0.00    +0.019 C 
ENDBRANCH  14  15
BRANCH  14  18
ATOM     17  C   UNL     1     -14.358   7.847  71.653  0.00  0.00    +0.019 C 
ATOM     18  C   UNL     1     -13.707   9.111  72.156  0.00  0.00    +0.072 C 
ENDBRANCH  14  18
ENDBRANCH  13  14
ENDBRANCH  12  13
ENDBRANCH  11  12
ENDBRANCH   1  11
TORSDOF 7
ENDMDL
MODEL 7
REMARK VINA RESULT:      -5.3      3.185      4.153
REMARK  Name = 
REMARK  7 active torsions:
REMARK  status: ('A' for Active; 'I' for Inactive)
REMARK    1  A    between atoms: C_2  and  N_3
REMARK    2  A    between atoms: N_3  and  C_4
REMARK    3  A    between atoms: N_3  and  C_6
REMARK    4  A    between atoms: C_6  and  C_7
REMARK    5  A    between atoms: C_7  and  O_8
REMARK    6  A    between atoms: O_8  and  C_9
REMARK    7  A    between atoms: C_9  and  C_11
REMARK                            x       y       z     vdW  Elec       q    Type
REMARK                         _______ _______ _______ _____ _____    ______ ____
ROOT
ATOM      1  C   UNL     1     -10.712  16.792  67.977  0.00  0.00    +0.342 C 
ATOM      2  O   UNL     1     -11.167  15.737  67.441  0.00  0.00    -0.245 OA
ENDROOT
BRANCH   1   3
ATOM      3  C   UNL     1     -10.142  17.881  67.172  0.00  0.00    +0.086 A 
ATOM      4  C   UNL     1      -8.890  17.749  66.582  0.00  0.00    +0.065 A 
ATOM      5 CL   UNL     1      -8.306  16.116  66.348  0.00  0.00    -0.082 Cl
ATOM      6  C   UNL     1      -8.044  18.839  66.427  0.00  0.00    +0.030 A 
ATOM      7  C   UNL     1      -8.393  20.051  67.006  0.00  0.00    +0.090 A 
ATOM      8  N   UNL     1      -7.397  20.982  67.427  0.00  0.00    -0.128 NA
ATOM      9  C   UNL     1      -9.747  20.271  67.195  0.00  0.00    +0.018 A 
ATOM     10  C   UNL     1     -10.585  19.188  67.319  0.00  0.00    +0.009 A 
ENDBRANCH   1   3
BRANCH   1  11
ATOM     11  O   UNL     1     -10.522  16.741  69.349  0.00  0.00    -0.444 OA
BRANCH  11  12
ATOM     12  C   UNL     1     -10.907  15.677  70.177  0.00  0.00    +0.226 C 
BRANCH  12  13
ATOM     13  C   UNL     1     -12.337  15.724  70.618  0.00  0.00    +0.120 C 
BRANCH  13  14
ATOM     14  N   UNL     1     -12.425  15.140  71.930  0.00  0.00    -0.270 NA
BRANCH  14  15
ATOM     15  C   UNL     1     -13.603  14.346  72.143  0.00  0.00    +0.072 C 
ATOM     16  C   UNL     1     -14.804  15.057  71.533  0.00  0.00    +0.019 C 
ENDBRANCH  14  15
BRANCH  14  18
ATOM     17  C   UNL     1     -12.428  15.595  74.345  0.00  0.00    +0.019 C 
ATOM     18  C   UNL     1     -12.190  16.125  72.953  0.00  0.00    +0.072 C 
ENDBRANCH  14  18
ENDBRANCH  13  14
ENDBRANCH  12  13
ENDBRANCH  11  12
ENDBRANCH   1  11
TORSDOF 7
ENDMDL
MODEL 8
REMARK VINA RESULT:      -5.3      3.469      4.378
REMARK  Name = 
REMARK  7 active torsions:
REMARK  status: ('A' for Active; 'I' for Inactive)
REMARK    1  A    between atoms: C_2  and  N_3
REMARK    2  A    between atoms: N_3  and  C_4
REMARK    3  A    between atoms: N_3  and  C_6
REMARK    4  A    between atoms: C_6  and  C_7
REMARK    5  A    between atoms: C_7  and  O_8
REMARK    6  A    between atoms: O_8  and  C_9
REMARK    7  A    between atoms: C_9  and  C_11
REMARK                            x       y       z     vdW  Elec       q    Type
REMARK                         _______ _______ _______ _____ _____    ______ ____
ROOT
ATOM      1  C   UNL     1     -11.823  12.836  68.025  0.00  0.00    +0.342 C 
ATOM      2  O   UNL     1     -12.145  13.673  68.921  0.00  0.00    -0.245 OA
ENDROOT
BRANCH   1   3
ATOM      3  C   UNL     1     -11.427  13.266  66.676  0.00  0.00    +0.086 A 
ATOM      4  C   UNL     1     -10.213  13.908  66.463  0.00  0.00    +0.065 A 
ATOM      5 CL   UNL     1      -8.979  13.671  67.682  0.00  0.00    -0.082 Cl
ATOM      6  C   UNL     1     -10.070  14.882  65.484  0.00  0.00    +0.030 A 
ATOM      7  C   UNL     1     -11.198  15.329  64.809  0.00  0.00    +0.090 A 
ATOM      8  N   UNL     1     -11.270  16.656  64.289  0.00  0.00    -0.128 NA
ATOM      9  C   UNL     1     -12.252  14.436  64.722  0.00  0.00    +0.018 A 
ATOM     10  C   UNL     1     -12.372  13.454  65.678  0.00  0.00    +0.009 A 
ENDBRANCH   1   3
BRANCH   1  11
ATOM     11  O   UNL     1     -12.133  11.511  68.292  0.00  0.00    -0.444 OA
BRANCH  11  12
ATOM     12  C   UNL     1     -11.504  10.717  69.260  0.00  0.00    +0.226 C 
BRANCH  12  13
ATOM     13  C   UNL     1     -12.181  10.718  70.595  0.00  0.00    +0.120 C 
BRANCH  13  14
ATOM     14  N   UNL     1     -12.546   9.365  70.919  0.00  0.00    -0.270 NA
BRANCH  14  15
ATOM     15  C   UNL     1     -13.318   9.234  72.123  0.00  0.00    +0.072 C 
ATOM     16  C   UNL     1     -14.471   8.271  71.877  0.00  0.00    +0.019 C 
ENDBRANCH  14  15
BRANCH  14  18
ATOM     17  C   UNL     1     -10.604   8.480  72.138  0.00  0.00    +0.019 C 
ATOM     18  C   UNL     1     -11.402   8.491  70.859  0.00  0.00    +0.072 C 
ENDBRANCH  14  18
ENDBRANCH  13  14
ENDBRANCH  12  13
ENDBRANCH  11  12
ENDBRANCH   1  11
TORSDOF 7
ENDMDL
MODEL 9
REMARK VINA RESULT:      -5.1      3.042      3.740
REMARK  Name = 
REMARK  7 active torsions:
REMARK  status: ('A' for Active; 'I' for Inactive)
REMARK    1  A    between atoms: C_2  and  N_3
REMARK    2  A    between atoms: N_3  and  C_4
REMARK    3  A    between atoms: N_3  and  C_6
REMARK    4  A    between atoms: C_6  and  C_7
REMARK    5  A    between atoms: C_7  and  O_8
REMARK    6  A    between atoms: O_8  and  C_9
REMARK    7  A    between atoms: C_9  and  C_11
REMARK                            x       y       z     vdW  Elec       q    Type
REMARK                         _______ _______ _______ _____ _____    ______ ____
ROOT
ATOM      1  C   UNL     1     -10.447  16.888  68.001  0.00  0.00    +0.342 C 
ATOM      2  O   UNL     1     -10.928  16.066  67.164  0.00  0.00    -0.245 OA
ENDROOT
BRANCH   1   3
ATOM      3  C   UNL     1      -9.117  17.484  67.817  0.00  0.00    +0.086 A 
ATOM      4  C   UNL     1      -8.981  18.827  67.486  0.00  0.00    +0.065 A 
ATOM      5 CL   UNL     1     -10.340  19.865  67.859  0.00  0.00    -0.082 Cl
ATOM      6  C   UNL     1      -7.943  19.273  66.678  0.00  0.00    +0.030 A 
ATOM      7  C   UNL     1      -7.116  18.341  66.067  0.00  0.00    +0.090 A 
ATOM      8  N   UNL     1      -6.480  18.622  64.821  0.00  0.00    -0.128 NA
ATOM      9  C   UNL     1      -6.994  17.120  66.708  0.00  0.00    +0.018 A 
ATOM     10  C   UNL     1      -8.011  16.696  67.531  0.00  0.00    +0.009 A 
ENDBRANCH   1   3
BRANCH   1  11
ATOM     11  O   UNL     1     -11.107  16.972  69.217  0.00  0.00    -0.444 OA
BRANCH  11  12
ATOM     12  C   UNL     1     -11.189  15.940  70.162  0.00  0.00    +0.226 C 
BRANCH  12  13
ATOM     13  C   UNL     1     -12.572  15.406  70.375  0.00  0.00    +0.120 C 
BRANCH  13  14
ATOM     14  N   UNL     1     -13.040  15.860  71.657  0.00  0.00    -0.270 NA
BRANCH  14  15
ATOM     15  C   UNL     1     -11.995  16.111  72.611  0.00  0.00    +0.072 C 
ATOM     16  C   UNL     1     -12.587  16.108  74.014  0.00  0.00    +0.019 C 
ENDBRANCH  14  15
BRANCH  14  18
ATOM     17  C   UNL     1     -13.746  13.547  72.096  0.00  0.00    +0.019 C 
ATOM     18  C   UNL     1     -14.094  15.014  72.153  0.00  0.00    +0.072 C 
ENDBRANCH  14  18
ENDBRANCH  13  14
ENDBRANCH  12  13
ENDBRANCH  11  12
ENDBRANCH   1  11
TORSDOF 7
ENDMDL
