MODEL 1
REMARK VINA RESULT:      -7.6      0.000      0.000
REMARK  Name = 
REMARK  1 active torsions:
REMARK  status: ('A' for Active; 'I' for Inactive)
REMARK    1  A    between atoms: N_14  and  C_15
REMARK                            x       y       z     vdW  Elec       q    Type
REMARK                         _______ _______ _______ _____ _____    ______ ____
ROOT
ATOM      1  O   UNL     1     -11.218  15.842  69.198  0.00  0.00    -0.270 OA
ATOM      2  C   UNL     1     -11.426  14.670  69.277  0.00  0.00    +0.249 C 
ATOM      3  N   UNL     1     -11.259  13.858  68.102  0.00  0.00    -0.276 N 
ATOM      4  C   UNL     1     -11.807  12.499  68.126  0.00  0.00    +0.098 C 
ATOM      5  C   UNL     1     -11.322  12.021  69.638  0.00  0.00    +0.042 C 
ATOM      6  C   UNL     1     -12.237  10.640  69.538  0.00  0.00    +0.006 C 
ATOM      7  C   UNL     1     -12.081  10.024  70.916  0.00  0.00    +0.005 C 
ATOM      8  C   UNL     1     -12.923  10.834  71.855  0.00  0.00    +0.026 C 
ATOM      9  C   UNL     1     -12.955  12.265  71.543  0.00  0.00    -0.026 A 
ATOM     10  C   UNL     1     -13.746  13.075  72.346  0.00  0.00    -0.005 A 
ATOM     11  C   UNL     1     -13.576  14.448  72.255  0.00  0.00    -0.000 A 
ATOM     12  C   UNL     1     -12.504  14.946  71.526  0.00  0.00    +0.004 A 
ATOM     13  C   UNL     1     -12.547  12.835  70.345  0.00  0.00    -0.020 A 
ATOM     14  C   UNL     1     -12.091  14.145  70.479  0.00  0.00    +0.049 A 
ENDROOT
BRANCH   3  15
ATOM     15  C   UNL     1     -11.961  14.525  66.826  0.00  0.00    +0.092 C 
ATOM     16  C   UNL     1     -10.482  14.872  66.135  0.00  0.00    +0.022 C 
ATOM     17  C   UNL     1      -9.824  13.576  65.852  0.00  0.00    +0.019 C 
ATOM     18  C   UNL     1     -10.403  13.113  64.516  0.00  0.00    +0.072 C 
ATOM     19  N   UNL     1     -11.836  13.369  64.656  0.00  0.00    -0.271 NA
ATOM     20  C   UNL     1     -12.167  14.760  64.413  0.00  0.00    +0.072 C 
ATOM     21  C   UNL     1     -10.973  15.579  64.878  0.00  0.00    +0.019 C 
ATOM     22  C   UNL     1     -12.108  13.050  66.057  0.00  0.00    +0.092 C 
ENDBRANCH   3  15
TORSDOF 1
ENDMDL
MODEL 2
REMARK VINA RESULT:      -7.3      2.746      4.389
REMARK  Name = 
REMARK  1 active torsions:
REMARK  status: ('A' for Active; 'I' for Inactive)
REMARK    1  A    between atoms: N_14  and  C_15
REMARK                            x       y       z     vdW  Elec       q    Type
REMARK                         _______ _______ _______ _____ _____    ______ ____
ROOT
ATOM      1  O   UNL     1     -10.884  14.641  66.621  0.00  0.00    -0.270 OA
ATOM      2  C   UNL     1     -11.235  14.893  67.732  0.00  0.00    +0.249 C 
ATOM      3  N   UNL     1     -10.938  16.192  68.272  0.00  0.00    -0.276 N 
ATOM      4  C   UNL     1     -11.093  16.385  69.716  0.00  0.00    +0.098 C 
ATOM      5  C   UNL     1     -12.539  15.609  69.956  0.00  0.00    +0.042 C 
ATOM      6  C   UNL     1     -12.372  15.723  71.604  0.00  0.00    +0.006 C 
ATOM      7  C   UNL     1     -13.561  14.936  72.125  0.00  0.00    +0.005 C 
ATOM      8  C   UNL     1     -13.247  13.485  71.924  0.00  0.00    +0.026 C 
ATOM      9  C   UNL     1     -12.487  13.202  70.703  0.00  0.00    -0.026 A 
ATOM     10  C   UNL     1     -12.126  11.882  70.469  0.00  0.00    -0.005 A 
ATOM     11  C   UNL     1     -11.663  11.548  69.205  0.00  0.00    -0.000 A 
ATOM     12  C   UNL     1     -11.767  12.483  68.183  0.00  0.00    +0.004 A 
ATOM     13  C   UNL     1     -11.816  14.146  69.939  0.00  0.00    -0.020 A 
ATOM     14  C   UNL     1     -11.714  13.800  68.593  0.00  0.00    +0.049 A 
ENDROOT
BRANCH   3  15
ATOM     15  C   UNL     1      -9.415  16.605  67.997  0.00  0.00    +0.092 C 
ATOM     16  C   UNL     1      -9.862  17.584  66.722  0.00  0.00    +0.022 C 
ATOM     17  C   UNL     1     -10.690  18.675  67.284  0.00  0.00    +0.019 C 
ATOM     18  C   UNL     1      -9.693  19.711  67.804  0.00  0.00    +0.072 C 
ATOM     19  N   UNL     1      -8.693  18.904  68.503  0.00  0.00    -0.271 NA
ATOM     20  C   UNL     1      -7.733  18.316  67.589  0.00  0.00    +0.072 C 
ATOM     21  C   UNL     1      -8.477  18.049  66.289  0.00  0.00    +0.019 C 
ATOM     22  C   UNL     1      -9.481  17.839  69.122  0.00  0.00    +0.092 C 
ENDBRANCH   3  15
TORSDOF 1
ENDMDL
MODEL 3
REMARK VINA RESULT:      -7.3      3.097      5.507
REMARK  Name = 
REMARK  1 active torsions:
REMARK  status: ('A' for Active; 'I' for Inactive)
REMARK    1  A    between atoms: N_14  and  C_15
REMARK                            x       y       z     vdW  Elec       q    Type
REMARK                         _______ _______ _______ _____ _____    ______ ____
ROOT
ATOM      1  O   UNL     1     -11.191  16.652  64.383  0.00  0.00    -0.270 OA
ATOM      2  C   UNL     1     -11.101  15.954  65.345  0.00  0.00    +0.249 C 
ATOM      3  N   UNL     1     -10.514  16.498  66.541  0.00  0.00    -0.276 N 
ATOM      4  C   UNL     1     -10.129  15.563  67.600  0.00  0.00    +0.098 C 
ATOM      5  C   UNL     1     -11.462  14.575  67.610  0.00  0.00    +0.042 C 
ATOM      6  C   UNL     1     -10.712  13.508  68.637  0.00  0.00    +0.006 C 
ATOM      7  C   UNL     1     -11.708  12.365  68.730  0.00  0.00    +0.005 C 
ATOM      8  C   UNL     1     -11.620  11.603  67.443  0.00  0.00    +0.026 C 
ATOM      9  C   UNL     1     -11.371  12.443  66.269  0.00  0.00    -0.026 A 
ATOM     10  C   UNL     1     -11.239  11.802  65.044  0.00  0.00    -0.005 A 
ATOM     11  C   UNL     1     -11.287  12.578  63.895  0.00  0.00    -0.000 A 
ATOM     12  C   UNL     1     -11.659  13.912  64.000  0.00  0.00    +0.004 A 
ATOM     13  C   UNL     1     -10.930  13.758  66.301  0.00  0.00    -0.020 A 
ATOM     14  C   UNL     1     -11.344  14.510  65.203  0.00  0.00    +0.049 A 
ENDROOT
BRANCH   3  15
ATOM     15  C   UNL     1      -9.156  17.284  66.219  0.00  0.00    +0.092 C 
ATOM     16  C   UNL     1      -9.905  18.759  66.429  0.00  0.00    +0.022 C 
ATOM     17  C   UNL     1     -10.323  18.834  67.848  0.00  0.00    +0.019 C 
ATOM     18  C   UNL     1      -9.080  19.292  68.610  0.00  0.00    +0.072 C 
ATOM     19  N   UNL     1      -8.008  18.476  68.041  0.00  0.00    -0.271 NA
ATOM     20  C   UNL     1      -7.531  19.007  66.779  0.00  0.00    +0.072 C 
ATOM     21  C   UNL     1      -8.725  19.668  66.106  0.00  0.00    +0.019 C 
ATOM     22  C   UNL     1      -8.648  17.182  67.807  0.00  0.00    +0.092 C 
ENDBRANCH   3  15
TORSDOF 1
ENDMDL
MODEL 4
REMARK VINA RESULT:      -7.0      3.390      6.535
REMARK  Name = 
REMARK  1 active torsions:
REMARK  status: ('A' for Active; 'I' for Inactive)
REMARK    1  A    between atoms: N_14  and  C_15
REMARK                            x       y       z     vdW  Elec       q    Type
REMARK                         _______ _______ _______ _____ _____    ______ ____
ROOT
ATOM      1  O   UNL     1     -13.376   9.648  72.445  0.00  0.00    -0.270 OA
ATOM      2  C   UNL     1     -12.798  10.085  71.498  0.00  0.00    +0.249 C 
ATOM      3  N   UNL     1     -11.878   9.230  70.796  0.00  0.00    -0.276 N 
ATOM      4  C   UNL     1     -10.957   9.853  69.843  0.00  0.00    +0.098 C 
ATOM      5  C   UNL     1     -11.997  10.893  69.076  0.00  0.00    +0.042 C 
ATOM      6  C   UNL     1     -10.738  11.628  68.281  0.00  0.00    +0.006 C 
ATOM      7  C   UNL     1     -11.416  12.776  67.554  0.00  0.00    +0.005 C 
ATOM      8  C   UNL     1     -11.728  13.821  68.582  0.00  0.00    +0.026 C 
ATOM      9  C   UNL     1     -12.108  13.277  69.889  0.00  0.00    -0.026 A 
ATOM     10  C   UNL     1     -12.375  14.185  70.904  0.00  0.00    -0.005 A 
ATOM     11  C   UNL     1     -13.003  13.717  72.049  0.00  0.00    -0.000 A 
ATOM     12  C   UNL     1     -13.511  12.424  72.056  0.00  0.00    +0.004 A 
ATOM     13  C   UNL     1     -11.908  11.967  70.302  0.00  0.00    -0.020 A 
ATOM     14  C   UNL     1     -12.842  11.532  71.242  0.00  0.00    +0.049 A 
ENDROOT
BRANCH   3  15
ATOM     15  C   UNL     1     -10.908   8.459  71.811  0.00  0.00    +0.092 C 
ATOM     16  C   UNL     1     -11.830   7.073  71.714  0.00  0.00    +0.022 C 
ATOM     17  C   UNL     1     -11.744   6.593  70.316  0.00  0.00    +0.019 C 
ATOM     18  C   UNL     1     -10.440   5.799  70.242  0.00  0.00    +0.072 C 
ATOM     19  N   UNL     1      -9.482   6.645  70.951  0.00  0.00    -0.271 NA
ATOM     20  C   UNL     1      -9.587   6.499  72.390  0.00  0.00    +0.072 C 
ATOM     21  C   UNL     1     -11.049   6.204  72.692  0.00  0.00    +0.019 C 
ATOM     22  C   UNL     1      -9.878   8.003  70.577  0.00  0.00    +0.092 C 
ENDBRANCH   3  15
TORSDOF 1
ENDMDL
MODEL 5
REMARK VINA RESULT:      -6.8      3.482      6.085
REMARK  Name = 
REMARK  1 active torsions:
REMARK  status: ('A' for Active; 'I' for Inactive)
REMARK    1  A    between atoms: N_14  and  C_15
REMARK                            x       y       z     vdW  Elec       q    Type
REMARK                         _______ _______ _______ _____ _____    ______ ____
ROOT
ATOM      1  O   UNL     1      -8.743  14.379  68.748  0.00  0.00    -0.270 OA
ATOM      2  C   UNL     1      -9.120  15.364  68.191  0.00  0.00    +0.249 C 
ATOM      3  N   UNL     1     -10.138  15.241  67.182  0.00  0.00    -0.276 N 
ATOM      4  C   UNL     1     -10.369  16.387  66.300  0.00  0.00    +0.098 C 
ATOM      5  C   UNL     1     -10.336  17.617  67.413  0.00  0.00    +0.042 C 
ATOM      6  C   UNL     1     -10.349  18.760  66.209  0.00  0.00    +0.006 C 
ATOM      7  C   UNL     1     -10.187  20.063  66.971  0.00  0.00    +0.005 C 
ATOM      8  C   UNL     1      -8.754  20.143  67.399  0.00  0.00    +0.026 C 
ATOM      9  C   UNL     1      -8.164  18.850  67.758  0.00  0.00    -0.026 A 
ATOM     10  C   UNL     1      -6.827  18.840  68.129  0.00  0.00    -0.005 A 
ATOM     11  C   UNL     1      -6.328  17.698  68.736  0.00  0.00    -0.000 A 
ATOM     12  C   UNL     1      -7.214  16.702  69.125  0.00  0.00    +0.004 A 
ATOM     13  C   UNL     1      -8.705  17.609  67.449  0.00  0.00    -0.020 A 
ATOM     14  C   UNL     1      -8.360  16.612  68.360  0.00  0.00    +0.049 A 
ENDROOT
BRANCH   3  15
ATOM     15  C   UNL     1      -9.813  14.044  66.169  0.00  0.00    +0.092 C 
ATOM     16  C   UNL     1     -11.042  13.111  66.803  0.00  0.00    +0.022 C 
ATOM     17  C   UNL     1     -12.312  13.816  66.517  0.00  0.00    +0.019 C 
ATOM     18  C   UNL     1     -12.676  13.423  65.085  0.00  0.00    +0.072 C 
ATOM     19  N   UNL     1     -11.410  13.544  64.363  0.00  0.00    -0.271 NA
ATOM     20  C   UNL     1     -10.561  12.384  64.554  0.00  0.00    +0.072 C 
ATOM     21  C   UNL     1     -10.848  11.861  65.953  0.00  0.00    +0.019 C 
ATOM     22  C   UNL     1     -10.774  14.710  64.976  0.00  0.00    +0.092 C 
ENDBRANCH   3  15
TORSDOF 1
ENDMDL
MODEL 6
REMARK VINA RESULT:      -6.7      1.028      1.522
REMARK  Name = 
REMARK  1 active torsions:
REMARK  status: ('A' for Active; 'I' for Inactive)
REMARK    1  A    between atoms: N_14  and  C_15
REMARK                            x       y       z     vdW  Elec       q    Type
REMARK                         _______ _______ _______ _____ _____    ______ ____
ROOT
ATOM      1  O   UNL     1     -11.887  14.692  69.242  0.00  0.00    -0.270 OA
ATOM      2  C   UNL     1     -11.631  13.532  69.146  0.00  0.00    +0.249 C 
ATOM      3  N   UNL     1     -11.183  13.027  67.876  0.00  0.00    -0.276 N 
ATOM      4  C   UNL     1     -11.170  11.574  67.683  0.00  0.00    +0.098 C 
ATOM      5  C   UNL     1     -10.518  11.099  69.133  0.00  0.00    +0.042 C 
ATOM      6  C   UNL     1     -10.838   9.504  68.798  0.00  0.00    +0.006 C 
ATOM      7  C   UNL     1     -10.439   8.798  70.081  0.00  0.00    +0.005 C 
ATOM      8  C   UNL     1     -11.514   9.080  71.087  0.00  0.00    +0.026 C 
ATOM      9  C   UNL     1     -12.094  10.421  70.980  0.00  0.00    -0.026 A 
ATOM     10  C   UNL     1     -13.123  10.742  71.855  0.00  0.00    -0.005 A 
ATOM     11  C   UNL     1     -13.492  12.074  71.966  0.00  0.00    -0.000 A 
ATOM     12  C   UNL     1     -12.701  13.043  71.362  0.00  0.00    +0.004 A 
ATOM     13  C   UNL     1     -11.951  11.273  69.893  0.00  0.00    -0.020 A 
ATOM     14  C   UNL     1     -12.028  12.623  70.232  0.00  0.00    +0.049 A 
ENDROOT
BRANCH   3  15
ATOM     15  C   UNL     1     -12.104  13.558  66.678  0.00  0.00    +0.092 C 
ATOM     16  C   UNL     1     -10.841  14.438  66.035  0.00  0.00    +0.022 C 
ATOM     17  C   UNL     1      -9.807  13.466  65.614  0.00  0.00    +0.019 C 
ATOM     18  C   UNL     1     -10.247  12.981  64.233  0.00  0.00    +0.072 C 
ATOM     19  N   UNL     1     -11.681  12.739  64.395  0.00  0.00    -0.271 NA
ATOM     20  C   UNL     1     -12.453  13.963  64.304  0.00  0.00    +0.072 C 
ATOM     21  C   UNL     1     -11.575  15.074  64.861  0.00  0.00    +0.019 C 
ATOM     22  C   UNL     1     -11.788  12.204  65.752  0.00  0.00    +0.092 C 
ENDBRANCH   3  15
TORSDOF 1
ENDMDL
MODEL 7
REMARK VINA RESULT:      -6.6      3.120      5.383
REMARK  Name = 
REMARK  1 active torsions:
REMARK  status: ('A' for Active; 'I' for Inactive)
REMARK    1  A    between atoms: N_14  and  C_15
REMARK                            x       y       z     vdW  Elec       q    Type
REMARK                         _______ _______ _______ _____ _____    ______ ____
ROOT
ATOM      1  O   UNL     1      -8.155  14.802  68.464  0.00  0.00    -0.270 OA
ATOM      2  C   UNL     1      -8.967  14.766  67.592  0.00  0.00    +0.249 C 
ATOM      3  N   UNL     1      -9.307  15.989  66.914  0.00  0.00    -0.276 N 
ATOM      4  C   UNL     1     -10.507  15.994  66.073  0.00  0.00    +0.098 C 
ATOM      5  C   UNL     1     -10.316  14.543  65.291  0.00  0.00    +0.042 C 
ATOM      6  C   UNL     1     -11.840  14.649  64.641  0.00  0.00    +0.006 C 
ATOM      7  C   UNL     1     -12.003  13.316  63.933  0.00  0.00    +0.005 C 
ATOM      8  C   UNL     1     -12.237  12.284  64.994  0.00  0.00    +0.026 C 
ATOM      9  C   UNL     1     -11.491  12.522  66.233  0.00  0.00    -0.026 A 
ATOM     10  C   UNL     1     -11.686  11.627  67.276  0.00  0.00    -0.005 A 
ATOM     11  C   UNL     1     -10.797  11.663  68.340  0.00  0.00    -0.000 A 
ATOM     12  C   UNL     1      -9.650  12.438  68.231  0.00  0.00    +0.004 A 
ATOM     13  C   UNL     1     -10.875  13.716  66.582  0.00  0.00    -0.020 A 
ATOM     14  C   UNL     1      -9.774  13.549  67.419  0.00  0.00    +0.049 A 
ENDROOT
BRANCH   3  15
ATOM     15  C   UNL     1      -9.569  17.179  67.953  0.00  0.00    +0.092 C 
ATOM     16  C   UNL     1      -8.046  17.808  67.688  0.00  0.00    +0.022 C 
ATOM     17  C   UNL     1      -7.998  18.242  66.274  0.00  0.00    +0.019 C 
ATOM     18  C   UNL     1      -8.636  19.631  66.257  0.00  0.00    +0.072 C 
ATOM     19  N   UNL     1      -9.822  19.474  67.098  0.00  0.00    -0.271 NA
ATOM     20  C   UNL     1      -9.502  19.547  68.510  0.00  0.00    +0.072 C 
ATOM     21  C   UNL     1      -8.102  18.973  68.669  0.00  0.00    +0.019 C 
ATOM     22  C   UNL     1     -10.292  18.125  66.782  0.00  0.00    +0.092 C 
ENDBRANCH   3  15
TORSDOF 1
ENDMDL
MODEL 8
REMARK VINA RESULT:      -6.5      3.903      5.886
REMARK  Name = 
REMARK  1 active torsions:
REMARK  status: ('A' for Active; 'I' for Inactive)
REMARK    1  A    between atoms: N_14  and  C_15
REMARK                            x       y       z     vdW  Elec       q    Type
REMARK                         _______ _______ _______ _____ _____    ______ ____
ROOT
ATOM      1  O   UNL     1     -11.276  17.049  64.566  0.00  0.00    -0.270 OA
ATOM      2  C   UNL     1     -10.390  16.869  65.343  0.00  0.00    +0.249 C 
ATOM      3  N   UNL     1      -9.991  15.519  65.635  0.00  0.00    -0.276 N 
ATOM      4  C   UNL     1      -9.132  15.296  66.800  0.00  0.00    +0.098 C 
ATOM      5  C   UNL     1      -8.053  16.541  66.604  0.00  0.00    +0.042 C 
ATOM      6  C   UNL     1      -7.390  16.254  68.099  0.00  0.00    +0.006 C 
ATOM      7  C   UNL     1      -6.398  17.392  68.258  0.00  0.00    +0.005 C 
ATOM      8  C   UNL     1      -7.193  18.628  68.551  0.00  0.00    +0.026 C 
ATOM      9  C   UNL     1      -8.479  18.690  67.850  0.00  0.00    -0.026 A 
ATOM     10  C   UNL     1      -9.289  19.789  68.102  0.00  0.00    -0.005 A 
ATOM     11  C   UNL     1     -10.363  20.014  67.254  0.00  0.00    -0.000 A 
ATOM     12  C   UNL     1     -10.470  19.263  66.091  0.00  0.00    +0.004 A 
ATOM     13  C   UNL     1      -9.106  17.620  67.228  0.00  0.00    -0.020 A 
ATOM     14  C   UNL     1      -9.923  17.997  66.163  0.00  0.00    +0.049 A 
ENDROOT
BRANCH   3  15
ATOM     15  C   UNL     1     -11.260  14.583  65.917  0.00  0.00    +0.092 C 
ATOM     16  C   UNL     1     -11.094  13.832  64.436  0.00  0.00    +0.022 C 
ATOM     17  C   UNL     1      -9.799  13.114  64.458  0.00  0.00    +0.019 C 
ATOM     18  C   UNL     1     -10.085  11.788  65.162  0.00  0.00    +0.072 C 
ATOM     19  N   UNL     1     -10.904  12.178  66.309  0.00  0.00    -0.271 NA
ATOM     20  C   UNL     1     -12.293  12.379  65.943  0.00  0.00    +0.072 C 
ATOM     21  C   UNL     1     -12.295  12.897  64.513  0.00  0.00    +0.019 C 
ATOM     22  C   UNL     1     -10.328  13.457  66.725  0.00  0.00    +0.092 C 
ENDBRANCH   3  15
TORSDOF 1
ENDMDL
MODEL 9
REMARK VINA RESULT:      -6.5      2.201      6.521
REMARK  Name = 
REMARK  1 active torsions:
REMARK  status: ('A' for Active; 'I' for Inactive)
REMARK    1  A    between atoms: N_14  and  C_15
REMARK                            x       y       z     vdW  Elec       q    Type
REMARK                         _______ _______ _______ _____ _____    ______ ____
ROOT
ATOM      1  O   UNL     1     -11.407  12.492  68.791  0.00  0.00    -0.270 OA
ATOM      2  C   UNL     1     -11.041  13.627  68.779  0.00  0.00    +0.249 C 
ATOM      3  N   UNL     1     -11.375  14.472  69.894  0.00  0.00    -0.276 N 
ATOM      4  C   UNL     1     -11.196  15.917  69.734  0.00  0.00    +0.098 C 
ATOM      5  C   UNL     1      -9.717  15.942  68.984  0.00  0.00    +0.042 C 
ATOM      6  C   UNL     1      -9.853  17.570  68.685  0.00  0.00    +0.006 C 
ATOM      7  C   UNL     1      -8.624  17.868  67.845  0.00  0.00    +0.005 C 
ATOM      8  C   UNL     1      -8.888  17.323  66.475  0.00  0.00    +0.026 C 
ATOM      9  C   UNL     1      -9.663  16.079  66.467  0.00  0.00    -0.026 A 
ATOM     10  C   UNL     1      -9.980  15.533  65.231  0.00  0.00    -0.005 A 
ATOM     11  C   UNL     1     -10.457  14.231  65.196  0.00  0.00    -0.000 A 
ATOM     12  C   UNL     1     -10.411  13.468  66.356  0.00  0.00    +0.004 A 
ATOM     13  C   UNL     1     -10.385  15.577  67.541  0.00  0.00    -0.020 A 
ATOM     14  C   UNL     1     -10.503  14.188  67.530  0.00  0.00    +0.049 A 
ENDROOT
BRANCH   3  15
ATOM     15  C   UNL     1     -12.917  14.324  70.298  0.00  0.00    +0.092 C 
ATOM     16  C   UNL     1     -12.516  13.661  71.775  0.00  0.00    +0.022 C 
ATOM     17  C   UNL     1     -11.791  14.705  72.535  0.00  0.00    +0.019 C 
ATOM     18  C   UNL     1     -12.879  15.578  73.158  0.00  0.00    +0.072 C 
ATOM     19  N   UNL     1     -13.831  15.774  72.066  0.00  0.00    -0.271 NA
ATOM     20  C   UNL     1     -14.718  14.638  71.905  0.00  0.00    +0.072 C 
ATOM     21  C   UNL     1     -13.921  13.405  72.305  0.00  0.00    +0.019 C 
ATOM     22  C   UNL     1     -12.978  15.888  70.882  0.00  0.00    +0.092 C 
ENDBRANCH   3  15
TORSDOF 1
ENDMDL
