MODEL 1
REMARK VINA RESULT:      -7.0      0.000      0.000
REMARK  Name = 
REMARK  9 active torsions:
REMARK  status: ('A' for Active; 'I' for Inactive)
REMARK    1  A    between atoms: O_2  and  C_3
REMARK    2  A    between atoms: C_5  and  C_6
REMARK    3  A    between atoms: C_6  and  C_7
REMARK    4  A    between atoms: C_7  and  C_9
REMARK    5  A    between atoms: C_20  and  O_21
REMARK    6  A    between atoms: C_37  and  O_38
REMARK    7  A    between atoms: C_64  and  O_65
REMARK    8  A    between atoms: O_65  and  C_66
REMARK    9  A    between atoms: C_66  and  C_67
REMARK                            x       y       z     vdW  Elec       q    Type
REMARK                         _______ _______ _______ _____ _____    ______ ____
ROOT
ATOM      1  C   UNL     1      -9.339   9.117  69.088  0.00  0.00    +0.176 C 
ATOM      2  O   UNL     1     -10.044   7.833  69.519  0.00  0.00    -0.451 OA
ATOM      3  C   UNL     1      -9.738   7.409  70.833  0.00  0.00    +0.335 C 
ATOM      4  O   UNL     1     -10.662   6.731  71.295  0.00  0.00    -0.248 OA
ATOM      5  C   UNL     1      -8.388   6.609  70.406  0.00  0.00    +0.175 C 
ATOM      6  N   UNL     1      -8.125   5.788  71.726  0.00  0.00    -0.265 N 
ATOM      7  C   UNL     1      -8.314   6.233  73.015  0.00  0.00    +0.094 C 
ATOM      8  C   UNL     1      -8.572   7.683  73.273  0.00  0.00    +0.022 C 
ATOM      9  C   UNL     1      -7.841   8.346  72.216  0.00  0.00    +0.004 C 
ATOM     10  C   UNL     1      -6.881   5.147  71.348  0.00  0.00    +0.289 C 
ATOM     11  O   UNL     1      -5.876   5.040  72.122  0.00  0.00    -0.267 OA
ATOM     12  C   UNL     1      -6.896   4.542  69.990  0.00  0.00    +0.279 C 
ATOM     13  O   UNL     1      -5.883   3.768  69.819  0.00  0.00    -0.281 OA
ATOM     14  C   UNL     1      -8.136   3.998  69.548  0.00  0.00    +0.279 C 
ATOM     15  O   UNL     1      -7.862   3.362  68.297  0.00  0.00    -0.329 OA
ATOM     16  C   UNL     1      -9.241   2.912  67.815  0.00  0.00    +0.121 C 
ATOM     17  C   UNL     1      -9.142   1.484  68.623  0.00  0.00    +0.030 C 
ATOM     18  C   UNL     1      -8.154   1.497  69.621  0.00  0.00    +0.008 C 
ATOM     19  C   UNL     1      -8.735   2.336  66.371  0.00  0.00    +0.063 C 
ATOM     20  C   UNL     1      -7.574   1.238  66.746  0.00  0.00    +0.136 C 
ATOM     21  C   UNL     1      -7.576   0.820  65.181  0.00  0.00    -0.017 C 
ATOM     22  C   UNL     1      -8.806  -0.039  65.021  0.00  0.00    +0.029 C 
ATOM     23  C   UNL     1      -6.526   0.774  64.483  0.00  0.00    -0.006 C 
ATOM     24  C   UNL     1      -6.072   1.734  63.463  0.00  0.00    -0.001 C 
ATOM     25  C   UNL     1      -6.321   2.976  63.733  0.00  0.00    -0.000 C 
ATOM     26  C   UNL     1      -5.323   3.929  63.223  0.00  0.00    -0.005 C 
ATOM     27  C   UNL     1      -5.284   3.997  61.905  0.00  0.00    -0.026 C 
ATOM     28  C   UNL     1      -6.730   3.900  61.214  0.00  0.00    +0.022 C 
ATOM     29  C   UNL     1      -6.165   2.970  59.994  0.00  0.00    +0.005 C 
ATOM     30  C   UNL     1      -6.527   5.272  60.360  0.00  0.00    +0.012 C 
ATOM     31  C   UNL     1      -6.669   6.414  61.524  0.00  0.00    +0.061 C 
ATOM     32  C   UNL     1      -8.089   5.820  62.081  0.00  0.00    +0.008 C 
ATOM     33  C   UNL     1      -7.379   7.444  60.534  0.00  0.00    +0.180 C 
ATOM     34  O   UNL     1      -8.278   7.083  59.856  0.00  0.00    -0.293 OA
ATOM     35  C   UNL     1      -7.415   8.956  61.073  0.00  0.00    +0.206 C 
ATOM     36  C   UNL     1      -8.006   8.492  62.625  0.00  0.00    +0.204 C 
ATOM     37  O   UNL     1      -9.437   8.579  62.148  0.00  0.00    -0.216 OA
ATOM     38  C   UNL     1      -8.010  10.005  63.179  0.00  0.00    -0.015 C 
ATOM     39  C   UNL     1      -8.505  11.063  62.285  0.00  0.00    +0.029 C 
ATOM     40  C   UNL     1      -8.207  10.143  64.493  0.00  0.00    -0.025 C 
ATOM     41  C   UNL     1      -8.256   8.768  65.333  0.00  0.00    +0.079 C 
ATOM     42  C   UNL     1      -6.621   8.697  65.427  0.00  0.00    +0.012 C 
ATOM     43  C   UNL     1      -8.412   9.477  66.769  0.00  0.00    +0.158 C 
ATOM     44  O   UNL     1      -7.761  10.418  67.027  0.00  0.00    -0.296 OA
ATOM     45  O   UNL     1      -9.346   4.421  69.321  0.00  0.00    -0.187 OA
ATOM     46  C   UNL     1      -8.191   2.755  70.638  0.00  0.00    +0.062 C 
ATOM     47  C   UNL     1      -9.813   2.684  70.822  0.00  0.00    +0.006 C 
ATOM     48  C   UNL     1      -7.479   7.865  70.957  0.00  0.00    +0.031 C 
ATOM     49  C   UNL     1      -9.432   8.745  67.500  0.00  0.00    +0.108 C 
ENDROOT
BRANCH  35  50
ATOM     50  O   UNL     1      -5.986   8.942  61.565  0.00  0.00    -0.343 OA
ATOM     51  C   UNL     1      -5.301   9.707  60.600  0.00  0.00    +0.175 C 
ENDBRANCH  35  50
BRANCH   1  52
ATOM     52  C   UNL     1     -10.883   9.870  69.007  0.00  0.00    +0.041 C 
ATOM     53  C   UNL     1     -11.003   9.888  70.625  0.00  0.00    +0.004 C 
BRANCH  52  54
ATOM     54  C   UNL     1     -10.259  11.334  68.750  0.00  0.00    +0.004 C 
BRANCH  54  59
ATOM     55  C   UNL     1     -12.049  14.389  67.812  0.00  0.00    +0.142 C 
ATOM     56  C   UNL     1     -11.301  14.751  66.303  0.00  0.00    +0.142 C 
ATOM     57  C   UNL     1     -10.202  13.551  66.277  0.00  0.00    +0.032 C 
ATOM     58  C   UNL     1     -10.688  12.263  66.589  0.00  0.00    +0.003 C 
ATOM     59  C   UNL     1     -11.431  12.189  68.032  0.00  0.00    +0.003 C 
ATOM     60  C   UNL     1     -10.779  13.615  68.501  0.00  0.00    +0.032 C 
BRANCH  55  62
ATOM     61  C   UNL     1     -11.737  15.739  69.107  0.00  0.00    +0.174 C 
ATOM     62  O   UNL     1     -11.621  15.721  68.372  0.00  0.00    -0.351 OA
ENDBRANCH  55  62
BRANCH  56  63
ATOM     63  O   UNL     1     -12.348  13.937  65.584  0.00  0.00    -0.351 OA
BRANCH  63  64
ATOM     64  C   UNL     1     -12.231  14.144  64.250  0.00  0.00    +0.178 C 
BRANCH  64  65
ATOM     65  C   UNL     1     -12.146  12.950  63.384  0.00  0.00    +0.214 C 
ATOM     66  O   UNL     1     -13.188  12.050  63.501  0.00  0.00    -0.218 OA
ENDBRANCH  64  65
ENDBRANCH  63  64
ENDBRANCH  56  63
ENDBRANCH  54  59
ENDBRANCH  52  54
ENDBRANCH   1  52
BRANCH  20  67
ATOM     67  O   UNL     1      -6.458   2.257  66.585  0.00  0.00    -0.349 OA
ATOM     68  C   UNL     1      -5.345   1.724  67.189  0.00  0.00    +0.174 C 
ENDBRANCH  20  67
TORSDOF 9
ENDMDL
MODEL 2
REMARK VINA RESULT:      -7.0      1.809      2.230
REMARK  Name = 
REMARK  9 active torsions:
REMARK  status: ('A' for Active; 'I' for Inactive)
REMARK    1  A    between atoms: O_2  and  C_3
REMARK    2  A    between atoms: C_5  and  C_6
REMARK    3  A    between atoms: C_6  and  C_7
REMARK    4  A    between atoms: C_7  and  C_9
REMARK    5  A    between atoms: C_20  and  O_21
REMARK    6  A    between atoms: C_37  and  O_38
REMARK    7  A    between atoms: C_64  and  O_65
REMARK    8  A    between atoms: O_65  and  C_66
REMARK    9  A    between atoms: C_66  and  C_67
REMARK                            x       y       z     vdW  Elec       q    Type
REMARK                         _______ _______ _______ _____ _____    ______ ____
ROOT
ATOM      1  C   UNL     1      -9.691   7.976  70.528  0.00  0.00    +0.176 C 
ATOM      2  O   UNL     1     -10.465   6.681  70.765  0.00  0.00    -0.451 OA
ATOM      3  C   UNL     1     -10.469   6.237  72.107  0.00  0.00    +0.335 C 
ATOM      4  O   UNL     1     -11.469   5.546  72.332  0.00  0.00    -0.248 OA
ATOM      5  C   UNL     1      -9.050   5.451  71.994  0.00  0.00    +0.175 C 
ATOM      6  N   UNL     1      -9.093   4.611  73.327  0.00  0.00    -0.265 N 
ATOM      7  C   UNL     1      -9.580   5.033  74.543  0.00  0.00    +0.094 C 
ATOM      8  C   UNL     1      -9.904   6.478  74.755  0.00  0.00    +0.022 C 
ATOM      9  C   UNL     1      -8.953   7.162  73.906  0.00  0.00    +0.004 C 
ATOM     10  C   UNL     1      -7.789   3.983  73.239  0.00  0.00    +0.289 C 
ATOM     11  O   UNL     1      -6.990   3.869  74.224  0.00  0.00    -0.267 OA
ATOM     12  C   UNL     1      -7.482   3.400  71.906  0.00  0.00    +0.279 C 
ATOM     13  O   UNL     1      -6.450   2.634  71.964  0.00  0.00    -0.281 OA
ATOM     14  C   UNL     1      -8.581   2.857  71.180  0.00  0.00    +0.279 C 
ATOM     15  O   UNL     1      -8.018   2.242  70.018  0.00  0.00    -0.329 OA
ATOM     16  C   UNL     1      -9.243   1.792  69.223  0.00  0.00    +0.121 C 
ATOM     17  C   UNL     1      -9.322   0.352  70.010  0.00  0.00    +0.030 C 
ATOM     18  C   UNL     1      -8.593   0.354  71.210  0.00  0.00    +0.008 C 
ATOM     19  C   UNL     1      -8.410   1.243  67.927  0.00  0.00    +0.063 C 
ATOM     20  C   UNL     1      -7.359   0.146  68.545  0.00  0.00    +0.136 C 
ATOM     21  C   UNL     1      -6.993  -0.247  67.017  0.00  0.00    -0.017 C 
ATOM     22  C   UNL     1      -8.144  -1.110  66.563  0.00  0.00    +0.029 C 
ATOM     23  C   UNL     1      -5.809  -0.276  66.581  0.00  0.00    -0.006 C 
ATOM     24  C   UNL     1      -5.140   0.703  65.709  0.00  0.00    -0.001 C 
ATOM     25  C   UNL     1      -5.456   1.939  65.932  0.00  0.00    -0.000 C 
ATOM     26  C   UNL     1      -4.375   2.905  65.681  0.00  0.00    -0.005 C 
ATOM     27  C   UNL     1      -4.033   2.995  64.410  0.00  0.00    -0.026 C 
ATOM     28  C   UNL     1      -5.277   2.902  63.400  0.00  0.00    +0.022 C 
ATOM     29  C   UNL     1      -4.436   1.994  62.331  0.00  0.00    +0.005 C 
ATOM     30  C   UNL     1      -4.894   4.289  62.637  0.00  0.00    +0.012 C 
ATOM     31  C   UNL     1      -5.313   5.410  63.752  0.00  0.00    +0.061 C 
ATOM     32  C   UNL     1      -6.818   4.799  63.955  0.00  0.00    +0.008 C 
ATOM     33  C   UNL     1      -5.783   6.453  62.640  0.00  0.00    +0.180 C 
ATOM     34  O   UNL     1      -6.497   6.097  61.766  0.00  0.00    -0.293 OA
ATOM     35  C   UNL     1      -5.957   7.956  63.178  0.00  0.00    +0.206 C 
ATOM     36  C   UNL     1      -6.889   7.463  64.542  0.00  0.00    +0.204 C 
ATOM     37  O   UNL     1      -8.170   7.549  63.747  0.00  0.00    -0.216 OA
ATOM     38  C   UNL     1      -7.035   8.966  65.103  0.00  0.00    -0.015 C 
ATOM     39  C   UNL     1      -7.318  10.036  64.133  0.00  0.00    +0.029 C 
ATOM     40  C   UNL     1      -7.533   9.082  66.336  0.00  0.00    -0.025 C 
ATOM     41  C   UNL     1      -7.763   7.694  67.122  0.00  0.00    +0.079 C 
ATOM     42  C   UNL     1      -6.194   7.630  67.593  0.00  0.00    +0.012 C 
ATOM     43  C   UNL     1      -8.255   8.378  68.492  0.00  0.00    +0.158 C 
ATOM     44  O   UNL     1      -7.690   9.318  68.908  0.00  0.00    -0.296 OA
ATOM     45  O   UNL     1      -9.709   3.277  70.684  0.00  0.00    -0.187 OA
ATOM     46  C   UNL     1      -8.876   1.595  72.210  0.00  0.00    +0.062 C 
ATOM     47  C   UNL     1     -10.495   1.513  72.010  0.00  0.00    +0.006 C 
ATOM     48  C   UNL     1      -8.305   6.704  72.759  0.00  0.00    +0.031 C 
ATOM     49  C   UNL     1      -9.409   7.629  68.957  0.00  0.00    +0.108 C 
ENDROOT
BRANCH  35  50
ATOM     50  O   UNL     1      -4.682   7.941  63.988  0.00  0.00    -0.343 OA
ATOM     51  C   UNL     1      -3.797   8.720  63.217  0.00  0.00    +0.175 C 
ENDBRANCH  35  50
BRANCH   1  52
ATOM     52  C   UNL     1     -11.182   8.721  70.101  0.00  0.00    +0.041 C 
ATOM     53  C   UNL     1     -11.544   8.979  71.661  0.00  0.00    +0.004 C 
BRANCH  52  54
ATOM     54  C   UNL     1     -10.481  10.126  69.735  0.00  0.00    +0.004 C 
BRANCH  54  59
ATOM     55  C   UNL     1     -11.934  13.071  68.113  0.00  0.00    +0.142 C 
ATOM     56  C   UNL     1     -11.126  13.033  66.591  0.00  0.00    +0.142 C 
ATOM     57  C   UNL     1     -10.155  11.755  66.858  0.00  0.00    +0.032 C 
ATOM     58  C   UNL     1     -10.774  10.615  67.412  0.00  0.00    +0.003 C 
ATOM     59  C   UNL     1     -11.547  10.918  68.809  0.00  0.00    +0.003 C 
ATOM     60  C   UNL     1     -10.762  12.342  68.996  0.00  0.00    +0.032 C 
BRANCH  55  62
ATOM     61  C   UNL     1     -11.627  14.685  69.060  0.00  0.00    +0.174 C 
ATOM     62  O   UNL     1     -11.384  14.444  68.399  0.00  0.00    -0.351 OA
ENDBRANCH  55  62
BRANCH  56  63
ATOM     63  O   UNL     1     -12.237  12.190  66.018  0.00  0.00    -0.351 OA
BRANCH  63  64
ATOM     64  C   UNL     1     -12.448  12.552  64.729  0.00  0.00    +0.178 C 
BRANCH  64  65
ATOM     65  C   UNL     1     -11.842  13.820  64.272  0.00  0.00    +0.214 C 
ATOM     66  O   UNL     1     -12.733  14.808  63.900  0.00  0.00    -0.218 OA
ENDBRANCH  64  65
ENDBRANCH  63  64
ENDBRANCH  56  63
ENDBRANCH  54  59
ENDBRANCH  52  54
ENDBRANCH   1  52
BRANCH  20  67
ATOM     67  O   UNL     1      -6.245   1.173  68.663  0.00  0.00    -0.349 OA
ATOM     68  C   UNL     1      -5.298   0.637  69.503  0.00  0.00    +0.174 C 
ENDBRANCH  20  67
TORSDOF 9
ENDMDL
MODEL 3
REMARK VINA RESULT:      -6.4      2.511      7.878
REMARK  Name = 
REMARK  9 active torsions:
REMARK  status: ('A' for Active; 'I' for Inactive)
REMARK    1  A    between atoms: O_2  and  C_3
REMARK    2  A    between atoms: C_5  and  C_6
REMARK    3  A    between atoms: C_6  and  C_7
REMARK    4  A    between atoms: C_7  and  C_9
REMARK    5  A    between atoms: C_20  and  O_21
REMARK    6  A    between atoms: C_37  and  O_38
REMARK    7  A    between atoms: C_64  and  O_65
REMARK    8  A    between atoms: O_65  and  C_66
REMARK    9  A    between atoms: C_66  and  C_67
REMARK                            x       y       z     vdW  Elec       q    Type
REMARK                         _______ _______ _______ _____ _____    ______ ____
ROOT
ATOM      1  C   UNL     1      -8.170   8.253  65.049  0.00  0.00    +0.176 C 
ATOM      2  O   UNL     1      -6.742   7.712  65.050  0.00  0.00    -0.451 OA
ATOM      3  C   UNL     1      -6.353   7.082  63.845  0.00  0.00    +0.335 C 
ATOM      4  O   UNL     1      -5.126   7.138  63.705  0.00  0.00    -0.248 OA
ATOM      5  C   UNL     1      -6.977   5.634  64.240  0.00  0.00    +0.175 C 
ATOM      6  N   UNL     1      -6.312   4.735  63.131  0.00  0.00    -0.265 N 
ATOM      7  C   UNL     1      -6.095   5.085  61.817  0.00  0.00    +0.094 C 
ATOM      8  C   UNL     1      -6.725   6.322  61.262  0.00  0.00    +0.022 C 
ATOM      9  C   UNL     1      -7.961   6.432  62.006  0.00  0.00    +0.004 C 
ATOM     10  C   UNL     1      -6.942   3.471  63.457  0.00  0.00    +0.289 C 
ATOM     11  O   UNL     1      -7.413   2.669  62.587  0.00  0.00    -0.267 OA
ATOM     12  C   UNL     1      -6.928   3.138  64.906  0.00  0.00    +0.279 C 
ATOM     13  O   UNL     1      -7.250   1.909  65.101  0.00  0.00    -0.281 OA
ATOM     14  C   UNL     1      -5.794   3.577  65.649  0.00  0.00    +0.279 C 
ATOM     15  O   UNL     1      -5.945   3.024  66.959  0.00  0.00    -0.329 OA
ATOM     16  C   UNL     1      -4.777   3.626  67.738  0.00  0.00    +0.121 C 
ATOM     17  C   UNL     1      -3.755   2.421  67.289  0.00  0.00    +0.030 C 
ATOM     18  C   UNL     1      -4.225   1.701  66.179  0.00  0.00    +0.008 C 
ATOM     19  C   UNL     1      -5.190   2.984  69.184  0.00  0.00    +0.063 C 
ATOM     20  C   UNL     1      -5.274   1.368  68.910  0.00  0.00    +0.136 C 
ATOM     21  C   UNL     1      -5.440   1.185  70.510  0.00  0.00    -0.017 C 
ATOM     22  C   UNL     1      -4.044   1.356  71.057  0.00  0.00    +0.029 C 
ATOM     23  C   UNL     1      -6.379   0.523  71.032  0.00  0.00    -0.006 C 
ATOM     24  C   UNL     1      -7.581   1.034  71.711  0.00  0.00    -0.001 C 
ATOM     25  C   UNL     1      -8.086   2.108  71.193  0.00  0.00    -0.000 C 
ATOM     26  C   UNL     1      -9.549   2.215  71.303  0.00  0.00    -0.005 C 
ATOM     27  C   UNL     1      -9.976   2.352  72.544  0.00  0.00    -0.026 C 
ATOM     28  C   UNL     1      -9.032   3.281  73.451  0.00  0.00    +0.022 C 
ATOM     29  C   UNL     1      -9.210   2.314  74.757  0.00  0.00    +0.005 C 
ATOM     30  C   UNL     1     -10.256   4.252  73.911  0.00  0.00    +0.012 C 
ATOM     31  C   UNL     1     -10.537   5.107  72.544  0.00  0.00    +0.061 C 
ATOM     32  C   UNL     1      -8.968   5.541  72.368  0.00  0.00    +0.008 C 
ATOM     33  C   UNL     1     -10.911   6.429  73.354  0.00  0.00    +0.180 C 
ATOM     34  O   UNL     1     -10.206   6.801  74.229  0.00  0.00    -0.293 OA
ATOM     35  C   UNL     1     -11.667   7.545  72.482  0.00  0.00    +0.206 C 
ATOM     36  C   UNL     1     -10.523   7.452  71.195  0.00  0.00    +0.204 C 
ATOM     37  O   UNL     1      -9.644   8.492  71.849  0.00  0.00    -0.216 OA
ATOM     38  C   UNL     1     -11.299   8.546  70.303  0.00  0.00    -0.015 C 
ATOM     39  C   UNL     1     -11.824   9.740  70.983  0.00  0.00    +0.029 C 
ATOM     40  C   UNL     1     -10.882   8.669  69.040  0.00  0.00    -0.025 C 
ATOM     41  C   UNL     1      -9.774   7.597  68.569  0.00  0.00    +0.079 C 
ATOM     42  C   UNL     1     -10.918   6.467  68.247  0.00  0.00    +0.012 C 
ATOM     43  C   UNL     1      -9.705   8.112  67.047  0.00  0.00    +0.158 C 
ATOM     44  O   UNL     1     -10.696   8.373  66.476  0.00  0.00    -0.296 OA
ATOM     45  O   UNL     1      -5.218   4.705  65.949  0.00  0.00    -0.187 OA
ATOM     46  C   UNL     1      -4.695   2.586  64.908  0.00  0.00    +0.062 C 
ATOM     47  C   UNL     1      -3.399   3.578  64.996  0.00  0.00    +0.006 C 
ATOM     48  C   UNL     1      -8.274   5.939  63.274  0.00  0.00    +0.031 C 
ATOM     49  C   UNL     1      -8.302   8.166  66.675  0.00  0.00    +0.108 C 
ENDROOT
BRANCH  35  50
ATOM     50  O   UNL     1     -12.584   6.559  71.796  0.00  0.00    -0.343 OA
ATOM     51  C   UNL     1     -13.871   7.057  72.082  0.00  0.00    +0.175 C 
ENDBRANCH  35  50
BRANCH   1  52
ATOM     52  C   UNL     1      -7.508   9.835  65.183  0.00  0.00    +0.041 C 
ATOM     53  C   UNL     1      -7.851  10.151  63.629  0.00  0.00    +0.004 C 
BRANCH  52  54
ATOM     54  C   UNL     1      -8.829  10.427  65.893  0.00  0.00    +0.004 C 
BRANCH  54  59
ATOM     55  C   UNL     1     -10.954  12.910  64.239  0.00  0.00    +0.142 C 
ATOM     56  C   UNL     1     -11.388  13.906  65.577  0.00  0.00    +0.142 C 
ATOM     57  C   UNL     1     -10.649  13.069  66.759  0.00  0.00    +0.032 C 
ATOM     58  C   UNL     1      -9.314  12.688  66.503  0.00  0.00    +0.003 C 
ATOM     59  C   UNL     1      -9.142  11.824  65.138  0.00  0.00    +0.003 C 
ATOM     60  C   UNL     1     -10.748  11.513  65.070  0.00  0.00    +0.032 C 
BRANCH  55  62
ATOM     61  C   UNL     1     -12.460  12.087  63.432  0.00  0.00    +0.174 C 
ATOM     62  O   UNL     1     -12.404  12.606  63.963  0.00  0.00    -0.351 OA
ENDBRANCH  55  62
BRANCH  56  63
ATOM     63  O   UNL     1     -10.190  14.784  65.317  0.00  0.00    -0.351 OA
BRANCH  63  64
ATOM     64  C   UNL     1     -10.292  15.906  66.069  0.00  0.00    +0.178 C 
BRANCH  64  65
ATOM     65  C   UNL     1     -10.667  17.156  65.375  0.00  0.00    +0.214 C 
ATOM     66  O   UNL     1     -11.379  16.999  64.202  0.00  0.00    -0.218 OA
ENDBRANCH  64  65
ENDBRANCH  63  64
ENDBRANCH  56  63
ENDBRANCH  54  59
ENDBRANCH  52  54
ENDBRANCH   1  52
BRANCH  20  67
ATOM     67  O   UNL     1      -6.771   1.419  68.651  0.00  0.00    -0.349 OA
ATOM     68  C   UNL     1      -7.106   0.239  68.029  0.00  0.00    +0.174 C 
ENDBRANCH  20  67
TORSDOF 9
ENDMDL
MODEL 4
REMARK VINA RESULT:      -6.1      4.448      7.243
REMARK  Name = 
REMARK  9 active torsions:
REMARK  status: ('A' for Active; 'I' for Inactive)
REMARK    1  A    between atoms: O_2  and  C_3
REMARK    2  A    between atoms: C_5  and  C_6
REMARK    3  A    between atoms: C_6  and  C_7
REMARK    4  A    between atoms: C_7  and  C_9
REMARK    5  A    between atoms: C_20  and  O_21
REMARK    6  A    between atoms: C_37  and  O_38
REMARK    7  A    between atoms: C_64  and  O_65
REMARK    8  A    between atoms: O_65  and  C_66
REMARK    9  A    between atoms: C_66  and  C_67
REMARK                            x       y       z     vdW  Elec       q    Type
REMARK                         _______ _______ _______ _____ _____    ______ ____
ROOT
ATOM      1  C   UNL     1      -4.894  12.882  71.166  0.00  0.00    +0.176 C 
ATOM      2  O   UNL     1      -5.629  12.727  72.495  0.00  0.00    -0.451 OA
ATOM      3  C   UNL     1      -4.819  12.914  73.639  0.00  0.00    +0.335 C 
ATOM      4  O   UNL     1      -5.504  13.287  74.598  0.00  0.00    -0.248 OA
ATOM      5  C   UNL     1      -4.282  11.381  73.678  0.00  0.00    +0.175 C 
ATOM      6  N   UNL     1      -3.633  11.351  75.114  0.00  0.00    -0.265 N 
ATOM      7  C   UNL     1      -2.927  12.371  75.712  0.00  0.00    +0.094 C 
ATOM      8  C   UNL     1      -2.500  13.555  74.905  0.00  0.00    +0.022 C 
ATOM      9  C   UNL     1      -2.294  13.003  73.583  0.00  0.00    +0.004 C 
ATOM     10  C   UNL     1      -3.097  10.005  75.091  0.00  0.00    +0.289 C 
ATOM     11  O   UNL     1      -1.938   9.697  75.518  0.00  0.00    -0.267 OA
ATOM     12  C   UNL     1      -4.051   8.977  74.596  0.00  0.00    +0.279 C 
ATOM     13  O   UNL     1      -3.624   7.791  74.850  0.00  0.00    -0.281 OA
ATOM     14  C   UNL     1      -5.427   9.187  74.898  0.00  0.00    +0.279 C 
ATOM     15  O   UNL     1      -6.111   8.015  74.448  0.00  0.00    -0.329 OA
ATOM     16  C   UNL     1      -7.584   8.348  74.681  0.00  0.00    +0.121 C 
ATOM     17  C   UNL     1      -7.544   7.794  76.228  0.00  0.00    +0.030 C 
ATOM     18  C   UNL     1      -6.236   7.680  76.726  0.00  0.00    +0.008 C 
ATOM     19  C   UNL     1      -8.175   6.978  74.014  0.00  0.00    +0.063 C 
ATOM     20  C   UNL     1      -7.445   5.765  74.844  0.00  0.00    +0.136 C 
ATOM     21  C   UNL     1      -8.439   4.745  74.073  0.00  0.00    -0.017 C 
ATOM     22  C   UNL     1      -9.759   4.890  74.790  0.00  0.00    +0.029 C 
ATOM     23  C   UNL     1      -8.028   3.731  73.444  0.00  0.00    -0.006 C 
ATOM     24  C   UNL     1      -7.915   3.553  71.987  0.00  0.00    -0.001 C 
ATOM     25  C   UNL     1      -7.545   4.608  71.334  0.00  0.00    -0.000 C 
ATOM     26  C   UNL     1      -6.737   4.338  70.134  0.00  0.00    -0.005 C 
ATOM     27  C   UNL     1      -7.404   3.716  69.180  0.00  0.00    -0.026 C 
ATOM     28  C   UNL     1      -8.925   4.208  69.032  0.00  0.00    +0.022 C 
ATOM     29  C   UNL     1      -9.466   2.690  68.759  0.00  0.00    +0.005 C 
ATOM     30  C   UNL     1      -8.776   4.520  67.440  0.00  0.00    +0.012 C 
ATOM     31  C   UNL     1      -7.870   5.882  67.449  0.00  0.00    +0.061 C 
ATOM     32  C   UNL     1      -8.856   6.657  68.502  0.00  0.00    +0.008 C 
ATOM     33  C   UNL     1      -8.611   6.477  66.169  0.00  0.00    +0.180 C 
ATOM     34  O   UNL     1      -9.793   6.475  66.121  0.00  0.00    -0.293 OA
ATOM     35  C   UNL     1      -7.841   7.701  65.470  0.00  0.00    +0.206 C 
ATOM     36  C   UNL     1      -7.604   8.530  66.963  0.00  0.00    +0.204 C 
ATOM     37  O   UNL     1      -8.935   9.232  66.829  0.00  0.00    -0.216 OA
ATOM     38  C   UNL     1      -6.800   9.742  66.269  0.00  0.00    -0.015 C 
ATOM     39  C   UNL     1      -7.315  10.268  64.996  0.00  0.00    +0.029 C 
ATOM     40  C   UNL     1      -6.189  10.588  67.102  0.00  0.00    -0.025 C 
ATOM     41  C   UNL     1      -6.227  10.173  68.660  0.00  0.00    +0.079 C 
ATOM     42  C   UNL     1      -4.942   9.170  68.486  0.00  0.00    +0.012 C 
ATOM     43  C   UNL     1      -5.327  11.407  69.165  0.00  0.00    +0.158 C 
ATOM     44  O   UNL     1      -4.372  11.717  68.559  0.00  0.00    -0.296 OA
ATOM     45  O   UNL     1      -6.340  10.083  74.657  0.00  0.00    -0.187 OA
ATOM     46  C   UNL     1      -5.289   8.979  76.535  0.00  0.00    +0.062 C 
ATOM     47  C   UNL     1      -6.460  10.021  76.996  0.00  0.00    +0.006 C 
ATOM     48  C   UNL     1      -2.863  11.870  73.002  0.00  0.00    +0.031 C 
ATOM     49  C   UNL     1      -5.956  11.935  70.363  0.00  0.00    +0.108 C 
ENDROOT
BRANCH  35  50
ATOM     50  O   UNL     1      -6.479   7.053  65.564  0.00  0.00    -0.343 OA
ATOM     51  C   UNL     1      -6.169   6.749  64.224  0.00  0.00    +0.175 C 
ENDBRANCH  35  50
BRANCH   1  52
ATOM     52  C   UNL     1      -5.875  14.259  70.850  0.00  0.00    +0.041 C 
ATOM     53  C   UNL     1      -4.937  15.191  71.790  0.00  0.00    +0.004 C 
BRANCH  52  54
ATOM     54  C   UNL     1      -5.196  14.527  69.413  0.00  0.00    +0.004 C 
BRANCH  54  59
ATOM     55  C   UNL     1      -5.571  17.375  67.139  0.00  0.00    +0.142 C 
ATOM     56  C   UNL     1      -7.166  17.105  66.545  0.00  0.00    +0.142 C 
ATOM     57  C   UNL     1      -7.479  15.701  67.304  0.00  0.00    +0.032 C 
ATOM     58  C   UNL     1      -7.170  15.661  68.680  0.00  0.00    +0.003 C 
ATOM     59  C   UNL     1      -5.621  16.034  69.002  0.00  0.00    +0.003 C 
ATOM     60  C   UNL     1      -5.187  15.810  67.440  0.00  0.00    +0.032 C 
BRANCH  55  62
ATOM     61  C   UNL     1      -4.281  17.450  65.751  0.00  0.00    +0.174 C 
ATOM     62  O   UNL     1      -5.012  17.309  65.741  0.00  0.00    -0.351 OA
ENDBRANCH  55  62
BRANCH  56  63
ATOM     63  O   UNL     1      -7.729  17.946  67.663  0.00  0.00    -0.351 OA
BRANCH  63  64
ATOM     64  C   UNL     1      -8.733  18.714  67.177  0.00  0.00    +0.178 C 
BRANCH  64  65
ATOM     65  C   UNL     1      -9.900  18.940  68.054  0.00  0.00    +0.214 C 
ATOM     66  O   UNL     1     -10.625  17.813  68.388  0.00  0.00    -0.218 OA
ENDBRANCH  64  65
ENDBRANCH  63  64
ENDBRANCH  56  63
ENDBRANCH  54  59
ENDBRANCH  52  54
ENDBRANCH   1  52
BRANCH  20  67
ATOM     67  O   UNL     1      -6.334   5.633  73.815  0.00  0.00    -0.349 OA
ATOM     68  C   UNL     1      -5.379   4.812  74.365  0.00  0.00    +0.174 C 
ENDBRANCH  20  67
TORSDOF 9
ENDMDL
MODEL 5
REMARK VINA RESULT:      -6.1      1.476      1.720
REMARK  Name = 
REMARK  9 active torsions:
REMARK  status: ('A' for Active; 'I' for Inactive)
REMARK    1  A    between atoms: O_2  and  C_3
REMARK    2  A    between atoms: C_5  and  C_6
REMARK    3  A    between atoms: C_6  and  C_7
REMARK    4  A    between atoms: C_7  and  C_9
REMARK    5  A    between atoms: C_20  and  O_21
REMARK    6  A    between atoms: C_37  and  O_38
REMARK    7  A    between atoms: C_64  and  O_65
REMARK    8  A    between atoms: O_65  and  C_66
REMARK    9  A    between atoms: C_66  and  C_67
REMARK                            x       y       z     vdW  Elec       q    Type
REMARK                         _______ _______ _______ _____ _____    ______ ____
ROOT
ATOM      1  C   UNL     1      -9.174   7.518  69.763  0.00  0.00    +0.176 C 
ATOM      2  O   UNL     1      -9.916   6.203  69.988  0.00  0.00    -0.451 OA
ATOM      3  C   UNL     1      -9.770   5.661  71.286  0.00  0.00    +0.335 C 
ATOM      4  O   UNL     1     -10.739   4.947  71.568  0.00  0.00    -0.248 OA
ATOM      5  C   UNL     1      -8.372   4.899  70.959  0.00  0.00    +0.175 C 
ATOM      6  N   UNL     1      -8.266   3.963  72.222  0.00  0.00    -0.265 N 
ATOM      7  C   UNL     1      -8.616   4.291  73.513  0.00  0.00    +0.094 C 
ATOM      8  C   UNL     1      -8.915   5.713  73.866  0.00  0.00    +0.022 C 
ATOM      9  C   UNL     1      -8.065   6.466  72.969  0.00  0.00    +0.004 C 
ATOM     10  C   UNL     1      -6.980   3.355  71.945  0.00  0.00    +0.289 C 
ATOM     11  O   UNL     1      -6.077   3.177  72.824  0.00  0.00    -0.267 OA
ATOM     12  C   UNL     1      -6.822   2.873  70.547  0.00  0.00    +0.279 C 
ATOM     13  O   UNL     1      -5.790   2.115  70.434  0.00  0.00    -0.281 OA
ATOM     14  C   UNL     1      -7.995   2.375  69.909  0.00  0.00    +0.279 C 
ATOM     15  O   UNL     1      -7.564   1.852  68.650  0.00  0.00    -0.329 OA
ATOM     16  C   UNL     1      -8.869   1.451  67.964  0.00  0.00    +0.121 C 
ATOM     17  C   UNL     1      -8.858  -0.044  68.647  0.00  0.00    +0.030 C 
ATOM     18  C   UNL     1      -8.001  -0.123  69.756  0.00  0.00    +0.008 C 
ATOM     19  C   UNL     1      -8.185   1.005  66.547  0.00  0.00    +0.063 C 
ATOM     20  C   UNL     1      -7.070  -0.125  66.963  0.00  0.00    +0.136 C 
ATOM     21  C   UNL     1      -6.876  -0.402  65.379  0.00  0.00    -0.017 C 
ATOM     22  C   UNL     1      -8.070  -1.240  64.993  0.00  0.00    +0.029 C 
ATOM     23  C   UNL     1      -5.748  -0.388  64.813  0.00  0.00    -0.006 C 
ATOM     24  C   UNL     1      -5.180   0.658  63.947  0.00  0.00    -0.001 C 
ATOM     25  C   UNL     1      -5.471   1.872  64.294  0.00  0.00    -0.000 C 
ATOM     26  C   UNL     1      -4.425   2.864  63.997  0.00  0.00    -0.005 C 
ATOM     27  C   UNL     1      -4.226   3.049  62.706  0.00  0.00    -0.026 C 
ATOM     28  C   UNL     1      -5.574   3.018  61.836  0.00  0.00    +0.022 C 
ATOM     29  C   UNL     1      -4.856   2.199  60.617  0.00  0.00    +0.005 C 
ATOM     30  C   UNL     1      -5.280   4.461  61.139  0.00  0.00    +0.012 C 
ATOM     31  C   UNL     1      -5.573   5.494  62.374  0.00  0.00    +0.061 C 
ATOM     32  C   UNL     1      -7.046   4.857  62.697  0.00  0.00    +0.008 C 
ATOM     33  C   UNL     1      -6.165   6.611  61.400  0.00  0.00    +0.180 C 
ATOM     34  O   UNL     1      -6.971   6.314  60.587  0.00  0.00    -0.293 OA
ATOM     35  C   UNL     1      -6.279   8.069  62.063  0.00  0.00    +0.206 C 
ATOM     36  C   UNL     1      -7.053   7.469  63.482  0.00  0.00    +0.204 C 
ATOM     37  O   UNL     1      -8.415   7.602  62.843  0.00  0.00    -0.216 OA
ATOM     38  C   UNL     1      -7.138   8.927  64.165  0.00  0.00    -0.015 C 
ATOM     39  C   UNL     1      -7.527  10.061  63.314  0.00  0.00    +0.029 C 
ATOM     40  C   UNL     1      -7.496   8.947  65.451  0.00  0.00    -0.025 C 
ATOM     41  C   UNL     1      -7.636   7.503  66.153  0.00  0.00    +0.079 C 
ATOM     42  C   UNL     1      -6.024   7.420  66.441  0.00  0.00    +0.012 C 
ATOM     43  C   UNL     1      -7.973   8.081  67.616  0.00  0.00    +0.158 C 
ATOM     44  O   UNL     1      -7.367   8.993  68.035  0.00  0.00    -0.296 OA
ATOM     45  O   UNL     1      -9.171   2.820  69.574  0.00  0.00    -0.187 OA
ATOM     46  C   UNL     1      -8.172   1.039  70.870  0.00  0.00    +0.062 C 
ATOM     47  C   UNL     1      -9.804   0.957  70.845  0.00  0.00    +0.006 C 
ATOM     48  C   UNL     1      -7.548   6.099  71.727  0.00  0.00    +0.031 C 
ATOM     49  C   UNL     1      -9.068   7.289  68.149  0.00  0.00    +0.108 C 
ENDROOT
BRANCH  35  50
ATOM     50  O   UNL     1      -4.922   8.007  62.724  0.00  0.00    -0.343 OA
ATOM     51  C   UNL     1      -4.129   8.851  61.921  0.00  0.00    +0.175 C 
ENDBRANCH  35  50
BRANCH   1  52
ATOM     52  C   UNL     1     -10.704   8.279  69.560  0.00  0.00    +0.041 C 
ATOM     53  C   UNL     1     -10.888   8.425  71.165  0.00  0.00    +0.004 C 
BRANCH  52  54
ATOM     54  C   UNL     1     -10.049   9.711  69.216  0.00  0.00    +0.004 C 
BRANCH  54  59
ATOM     55  C   UNL     1     -11.747  12.782  68.164  0.00  0.00    +0.142 C 
ATOM     56  C   UNL     1     -11.096  12.984  66.581  0.00  0.00    +0.142 C 
ATOM     57  C   UNL     1     -10.065  11.726  66.574  0.00  0.00    +0.032 C 
ATOM     58  C   UNL     1     -10.590  10.496  67.022  0.00  0.00    +0.003 C 
ATOM     59  C   UNL     1     -11.226  10.573  68.516  0.00  0.00    +0.003 C 
ATOM     60  C   UNL     1     -10.470  11.992  68.821  0.00  0.00    +0.032 C 
BRANCH  55  62
ATOM     61  C   UNL     1     -11.365  14.251  69.301  0.00  0.00    +0.174 C 
ATOM     62  O   UNL     1     -11.212  14.126  68.583  0.00  0.00    -0.351 OA
ENDBRANCH  55  62
BRANCH  56  63
ATOM     63  O   UNL     1     -12.234  12.179  66.006  0.00  0.00    -0.351 OA
BRANCH  63  64
ATOM     64  C   UNL     1     -12.558  12.677  64.789  0.00  0.00    +0.178 C 
BRANCH  64  65
ATOM     65  C   UNL     1     -11.892  13.927  64.367  0.00  0.00    +0.214 C 
ATOM     66  O   UNL     1     -12.729  14.925  63.909  0.00  0.00    -0.218 OA
ENDBRANCH  64  65
ENDBRANCH  63  64
ENDBRANCH  56  63
ENDBRANCH  54  59
ENDBRANCH  52  54
ENDBRANCH   1  52
BRANCH  20  67
ATOM     67  O   UNL     1      -5.951   0.901  67.032  0.00  0.00    -0.349 OA
ATOM     68  C   UNL     1      -4.917   0.314  67.722  0.00  0.00    +0.174 C 
ENDBRANCH  20  67
TORSDOF 9
ENDMDL
MODEL 6
REMARK VINA RESULT:      -6.0      1.397      2.076
REMARK  Name = 
REMARK  9 active torsions:
REMARK  status: ('A' for Active; 'I' for Inactive)
REMARK    1  A    between atoms: O_2  and  C_3
REMARK    2  A    between atoms: C_5  and  C_6
REMARK    3  A    between atoms: C_6  and  C_7
REMARK    4  A    between atoms: C_7  and  C_9
REMARK    5  A    between atoms: C_20  and  O_21
REMARK    6  A    between atoms: C_37  and  O_38
REMARK    7  A    between atoms: C_64  and  O_65
REMARK    8  A    between atoms: O_65  and  C_66
REMARK    9  A    between atoms: C_66  and  C_67
REMARK                            x       y       z     vdW  Elec       q    Type
REMARK                         _______ _______ _______ _____ _____    ______ ____
ROOT
ATOM      1  C   UNL     1      -9.362   9.086  67.889  0.00  0.00    +0.176 C 
ATOM      2  O   UNL     1     -10.054   7.893  68.544  0.00  0.00    -0.451 OA
ATOM      3  C   UNL     1      -9.730   7.704  69.907  0.00  0.00    +0.335 C 
ATOM      4  O   UNL     1     -10.645   7.112  70.491  0.00  0.00    -0.248 OA
ATOM      5  C   UNL     1      -8.380   6.848  69.609  0.00  0.00    +0.175 C 
ATOM      6  N   UNL     1      -8.097   6.269  71.047  0.00  0.00    -0.265 N 
ATOM      7  C   UNL     1      -8.273   6.929  72.242  0.00  0.00    +0.094 C 
ATOM      8  C   UNL     1      -8.537   8.401  72.249  0.00  0.00    +0.022 C 
ATOM      9  C   UNL     1      -7.823   8.875  71.083  0.00  0.00    +0.004 C 
ATOM     10  C   UNL     1      -6.853   5.578  70.770  0.00  0.00    +0.289 C 
ATOM     11  O   UNL     1      -5.838   5.611  71.538  0.00  0.00    -0.267 OA
ATOM     12  C   UNL     1      -6.879   4.746  69.538  0.00  0.00    +0.279 C 
ATOM     13  O   UNL     1      -5.864   3.959  69.490  0.00  0.00    -0.281 OA
ATOM     14  C   UNL     1      -8.121   4.129  69.212  0.00  0.00    +0.279 C 
ATOM     15  O   UNL     1      -7.858   3.287  68.087  0.00  0.00    -0.329 OA
ATOM     16  C   UNL     1      -9.239   2.754  67.707  0.00  0.00    +0.121 C 
ATOM     17  C   UNL     1      -9.122   1.489  68.749  0.00  0.00    +0.030 C 
ATOM     18  C   UNL     1      -8.123   1.678  69.717  0.00  0.00    +0.008 C 
ATOM     19  C   UNL     1      -8.746   1.940  66.378  0.00  0.00    +0.063 C 
ATOM     20  C   UNL     1      -7.574   0.928  66.923  0.00  0.00    +0.136 C 
ATOM     21  C   UNL     1      -7.591   0.245  65.454  0.00  0.00    -0.017 C 
ATOM     22  C   UNL     1      -8.818  -0.634  65.461  0.00  0.00    +0.029 C 
ATOM     23  C   UNL     1      -6.549   0.084  64.761  0.00  0.00    -0.006 C 
ATOM     24  C   UNL     1      -6.114   0.855  63.586  0.00  0.00    -0.001 C 
ATOM     25  C   UNL     1      -6.367   2.124  63.639  0.00  0.00    -0.000 C 
ATOM     26  C   UNL     1      -5.381   2.978  62.959  0.00  0.00    -0.005 C 
ATOM     27  C   UNL     1      -5.359   2.817  61.650  0.00  0.00    -0.026 C 
ATOM     28  C   UNL     1      -6.811   2.596  61.003  0.00  0.00    +0.022 C 
ATOM     29  C   UNL     1      -6.255   1.471  59.956  0.00  0.00    +0.005 C 
ATOM     30  C   UNL     1      -6.627   3.800  59.922  0.00  0.00    +0.012 C 
ATOM     31  C   UNL     1      -6.763   5.126  60.873  0.00  0.00    +0.061 C 
ATOM     32  C   UNL     1      -8.173   4.631  61.542  0.00  0.00    +0.008 C 
ATOM     33  C   UNL     1      -7.491   5.966  59.729  0.00  0.00    +0.180 C 
ATOM     34  O   UNL     1      -8.396   5.488  59.135  0.00  0.00    -0.293 OA
ATOM     35  C   UNL     1      -7.531   7.548  59.999  0.00  0.00    +0.206 C 
ATOM     36  C   UNL     1      -8.101   7.357  61.614  0.00  0.00    +0.204 C 
ATOM     37  O   UNL     1      -9.538   7.354  61.148  0.00  0.00    -0.216 OA
ATOM     38  C   UNL     1      -8.108   8.943  61.899  0.00  0.00    -0.015 C 
ATOM     39  C   UNL     1      -8.620   9.828  60.841  0.00  0.00    +0.029 C 
ATOM     40  C   UNL     1      -8.291   9.306  63.171  0.00  0.00    -0.025 C 
ATOM     41  C   UNL     1      -8.321   8.097  64.237  0.00  0.00    +0.079 C 
ATOM     42  C   UNL     1      -6.685   8.051  64.322  0.00  0.00    +0.012 C 
ATOM     43  C   UNL     1      -8.465   9.043  65.530  0.00  0.00    +0.158 C 
ATOM     44  O   UNL     1      -7.817  10.017  65.613  0.00  0.00    -0.296 OA
ATOM     45  O   UNL     1      -9.336   4.501  68.930  0.00  0.00    -0.187 OA
ATOM     46  C   UNL     1      -8.155   3.093  70.502  0.00  0.00    +0.062 C 
ATOM     47  C   UNL     1      -9.774   3.048  70.715  0.00  0.00    +0.006 C 
ATOM     48  C   UNL     1      -7.473   8.185  69.922  0.00  0.00    +0.031 C 
ATOM     49  C   UNL     1      -9.471   8.444  66.390  0.00  0.00    +0.108 C 
ENDROOT
BRANCH  35  50
ATOM     50  O   UNL     1      -6.096   7.625  60.468  0.00  0.00    -0.343 OA
ATOM     51  C   UNL     1      -5.430   8.225  59.381  0.00  0.00    +0.175 C 
ENDBRANCH  35  50
BRANCH   1  52
ATOM     52  C   UNL     1     -10.912   9.806  67.698  0.00  0.00    +0.041 C 
ATOM     53  C   UNL     1     -10.812  10.502  69.160  0.00  0.00    +0.004 C 
BRANCH  52  54
ATOM     54  C   UNL     1     -10.347  11.000  66.774  0.00  0.00    +0.004 C 
BRANCH  54  59
ATOM     55  C   UNL     1      -8.949  14.175  67.949  0.00  0.00    +0.142 C 
ATOM     56  C   UNL     1      -9.927  15.299  67.083  0.00  0.00    +0.142 C 
ATOM     57  C   UNL     1     -10.808  14.242  66.214  0.00  0.00    +0.032 C 
ATOM     58  C   UNL     1     -11.359  13.161  66.934  0.00  0.00    +0.003 C 
ATOM     59  C   UNL     1     -10.247  12.293  67.742  0.00  0.00    +0.003 C 
ATOM     60  C   UNL     1      -9.026  12.946  66.869  0.00  0.00    +0.032 C 
BRANCH  55  62
ATOM     61  C   UNL     1      -7.100  14.386  67.584  0.00  0.00    +0.174 C 
ATOM     62  O   UNL     1      -7.701  14.735  67.317  0.00  0.00    -0.351 OA
ENDBRANCH  55  62
BRANCH  56  63
ATOM     63  O   UNL     1     -10.911  15.329  68.224  0.00  0.00    -0.351 OA
BRANCH  63  64
ATOM     64  C   UNL     1     -11.198  16.618  68.527  0.00  0.00    +0.178 C 
BRANCH  64  65
ATOM     65  C   UNL     1     -10.321  17.661  67.956  0.00  0.00    +0.214 C 
ATOM     66  O   UNL     1     -10.929  18.871  67.685  0.00  0.00    -0.218 OA
ENDBRANCH  64  65
ENDBRANCH  63  64
ENDBRANCH  56  63
ENDBRANCH  54  59
ENDBRANCH  52  54
ENDBRANCH   1  52
BRANCH  20  67
ATOM     67  O   UNL     1      -6.467   1.908  66.574  0.00  0.00    -0.349 OA
ATOM     68  C   UNL     1      -5.344   1.496  67.251  0.00  0.00    +0.174 C 
ENDBRANCH  20  67
TORSDOF 9
ENDMDL
MODEL 7
REMARK VINA RESULT:      -5.9      2.981      8.508
REMARK  Name = 
REMARK  9 active torsions:
REMARK  status: ('A' for Active; 'I' for Inactive)
REMARK    1  A    between atoms: O_2  and  C_3
REMARK    2  A    between atoms: C_5  and  C_6
REMARK    3  A    between atoms: C_6  and  C_7
REMARK    4  A    between atoms: C_7  and  C_9
REMARK    5  A    between atoms: C_20  and  O_21
REMARK    6  A    between atoms: C_37  and  O_38
REMARK    7  A    between atoms: C_64  and  O_65
REMARK    8  A    between atoms: O_65  and  C_66
REMARK    9  A    between atoms: C_66  and  C_67
REMARK                            x       y       z     vdW  Elec       q    Type
REMARK                         _______ _______ _______ _____ _____    ______ ____
ROOT
ATOM      1  C   UNL     1      -8.540   5.825  64.950  0.00  0.00    +0.176 C 
ATOM      2  O   UNL     1      -7.387   4.826  64.986  0.00  0.00    -0.451 OA
ATOM      3  C   UNL     1      -7.436   3.837  63.977  0.00  0.00    +0.335 C 
ATOM      4  O   UNL     1      -6.301   3.416  63.728  0.00  0.00    -0.248 OA
ATOM      5  C   UNL     1      -8.417   2.842  64.808  0.00  0.00    +0.175 C 
ATOM      6  N   UNL     1      -8.280   1.532  63.943  0.00  0.00    -0.265 N 
ATOM      7  C   UNL     1      -8.193   1.466  62.571  0.00  0.00    +0.094 C 
ATOM      8  C   UNL     1      -8.475   2.681  61.746  0.00  0.00    +0.022 C 
ATOM      9  C   UNL     1      -9.460   3.395  62.528  0.00  0.00    +0.004 C 
ATOM     10  C   UNL     1      -9.219   0.691  64.658  0.00  0.00    +0.289 C 
ATOM     11  O   UNL     1     -10.066  -0.069  64.087  0.00  0.00    -0.267 OA
ATOM     12  C   UNL     1      -9.063   0.723  66.136  0.00  0.00    +0.279 C 
ATOM     13  O   UNL     1      -9.726  -0.229  66.691  0.00  0.00    -0.281 OA
ATOM     14  C   UNL     1      -7.738   0.887  66.633  0.00  0.00    +0.279 C 
ATOM     15  O   UNL     1      -7.830   0.746  68.053  0.00  0.00    -0.329 OA
ATOM     16  C   UNL     1      -6.414   1.055  68.537  0.00  0.00    +0.121 C 
ATOM     17  C   UNL     1      -5.931  -0.506  68.360  0.00  0.00    +0.030 C 
ATOM     18  C   UNL     1      -6.792  -1.247  67.536  0.00  0.00    +0.008 C 
ATOM     19  C   UNL     1      -6.756   0.958  70.133  0.00  0.00    +0.063 C 
ATOM     20  C   UNL     1      -7.405  -0.537  70.327  0.00  0.00    +0.136 C 
ATOM     21  C   UNL     1      -7.341  -0.270  71.924  0.00  0.00    -0.017 C 
ATOM     22  C   UNL     1      -5.892  -0.487  72.285  0.00  0.00    +0.029 C 
ATOM     23  C   UNL     1      -8.339  -0.412  72.683  0.00  0.00    -0.006 C 
ATOM     24  C   UNL     1      -9.175   0.638  73.288  0.00  0.00    -0.001 C 
ATOM     25  C   UNL     1      -9.387   1.669  72.534  0.00  0.00    -0.000 C 
ATOM     26  C   UNL     1     -10.695   2.315  72.728  0.00  0.00    -0.005 C 
ATOM     27  C   UNL     1     -10.833   2.880  73.912  0.00  0.00    -0.026 C 
ATOM     28  C   UNL     1      -9.498   3.594  74.445  0.00  0.00    +0.022 C 
ATOM     29  C   UNL     1      -9.750   3.088  75.978  0.00  0.00    +0.005 C 
ATOM     30  C   UNL     1     -10.244   5.017  74.714  0.00  0.00    +0.012 C 
ATOM     31  C   UNL     1     -10.465   5.572  73.190  0.00  0.00    +0.061 C 
ATOM     32  C   UNL     1      -8.895   5.363  72.774  0.00  0.00    +0.008 C 
ATOM     33  C   UNL     1     -10.245   7.090  73.628  0.00  0.00    +0.180 C 
ATOM     34  O   UNL     1      -9.318   7.378  74.304  0.00  0.00    -0.293 OA
ATOM     35  C   UNL     1     -10.739   8.166  72.544  0.00  0.00    +0.206 C 
ATOM     36  C   UNL     1      -9.927   7.374  71.245  0.00  0.00    +0.204 C 
ATOM     37  O   UNL     1      -8.660   8.153  71.511  0.00  0.00    -0.216 OA
ATOM     38  C   UNL     1     -10.449   8.433  70.149  0.00  0.00    -0.015 C 
ATOM     39  C   UNL     1     -10.434   9.859  70.510  0.00  0.00    +0.029 C 
ATOM     40  C   UNL     1     -10.240   8.101  68.873  0.00  0.00    -0.025 C 
ATOM     41  C   UNL     1      -9.637   6.626  68.632  0.00  0.00    +0.079 C 
ATOM     42  C   UNL     1     -11.122   5.937  68.730  0.00  0.00    +0.012 C 
ATOM     43  C   UNL     1      -9.669   6.712  67.026  0.00  0.00    +0.158 C 
ATOM     44  O   UNL     1     -10.605   7.169  66.487  0.00  0.00    -0.296 OA
ATOM     45  O   UNL     1      -6.785   1.771  66.560  0.00  0.00    -0.187 OA
ATOM     46  C   UNL     1      -7.163  -0.575  66.112  0.00  0.00    +0.062 C 
ATOM     47  C   UNL     1      -5.622  -0.120  65.815  0.00  0.00    +0.006 C 
ATOM     48  C   UNL     1      -9.692   3.357  63.903  0.00  0.00    +0.031 C 
ATOM     49  C   UNL     1      -8.410   6.173  66.541  0.00  0.00    +0.108 C 
ENDROOT
BRANCH  35  50
ATOM     50  O   UNL     1     -12.029   7.443  72.236  0.00  0.00    -0.343 OA
ATOM     51  C   UNL     1     -13.017   8.414  72.495  0.00  0.00    +0.175 C 
ENDBRANCH  35  50
BRANCH   1  52
ATOM     52  C   UNL     1      -7.390   7.051  64.584  0.00  0.00    +0.041 C 
ATOM     53  C   UNL     1      -7.436   6.677  63.006  0.00  0.00    +0.004 C 
BRANCH  52  54
ATOM     54  C   UNL     1      -8.492   8.228  64.630  0.00  0.00    +0.004 C 
BRANCH  54  59
ATOM     55  C   UNL     1      -7.884  11.484  66.194  0.00  0.00    +0.142 C 
ATOM     56  C   UNL     1      -6.958  11.013  67.569  0.00  0.00    +0.142 C 
ATOM     57  C   UNL     1      -7.004   9.401  67.360  0.00  0.00    +0.032 C 
ATOM     58  C   UNL     1      -6.711   8.939  66.059  0.00  0.00    +0.003 C 
ATOM     59  C   UNL     1      -7.665   9.589  64.915  0.00  0.00    +0.003 C 
ATOM     60  C   UNL     1      -8.746  10.100  66.033  0.00  0.00    +0.032 C 
BRANCH  55  62
ATOM     61  C   UNL     1      -9.490  12.373  66.668  0.00  0.00    +0.174 C 
ATOM     62  O   UNL     1      -8.931  12.107  67.080  0.00  0.00    -0.351 OA
ENDBRANCH  55  62
BRANCH  56  63
ATOM     63  O   UNL     1      -5.687  11.177  66.775  0.00  0.00    -0.351 OA
BRANCH  63  64
ATOM     64  C   UNL     1      -4.729  11.702  67.575  0.00  0.00    +0.178 C 
BRANCH  64  65
ATOM     65  C   UNL     1      -4.980  13.042  68.146  0.00  0.00    +0.214 C 
ATOM     66  O   UNL     1      -4.608  14.109  67.352  0.00  0.00    -0.218 OA
ENDBRANCH  64  65
ENDBRANCH  63  64
ENDBRANCH  56  63
ENDBRANCH  54  59
ENDBRANCH  52  54
ENDBRANCH   1  52
BRANCH  20  67
ATOM     67  O   UNL     1      -8.825  -0.017  70.186  0.00  0.00    -0.349 OA
ATOM     68  C   UNL     1      -9.626  -1.108  69.946  0.00  0.00    +0.174 C 
ENDBRANCH  20  67
TORSDOF 9
ENDMDL
MODEL 8
REMARK VINA RESULT:      -5.9      2.914      7.078
REMARK  Name = 
REMARK  9 active torsions:
REMARK  status: ('A' for Active; 'I' for Inactive)
REMARK    1  A    between atoms: O_2  and  C_3
REMARK    2  A    between atoms: C_5  and  C_6
REMARK    3  A    between atoms: C_6  and  C_7
REMARK    4  A    between atoms: C_7  and  C_9
REMARK    5  A    between atoms: C_20  and  O_21
REMARK    6  A    between atoms: C_37  and  O_38
REMARK    7  A    between atoms: C_64  and  O_65
REMARK    8  A    between atoms: O_65  and  C_66
REMARK    9  A    between atoms: C_66  and  C_67
REMARK                            x       y       z     vdW  Elec       q    Type
REMARK                         _______ _______ _______ _____ _____    ______ ____
ROOT
ATOM      1  C   UNL     1      -8.472   2.865  69.542  0.00  0.00    +0.176 C 
ATOM      2  O   UNL     1      -9.464   2.102  68.667  0.00  0.00    -0.451 OA
ATOM      3  C   UNL     1      -9.142   0.739  68.467  0.00  0.00    +0.335 C 
ATOM      4  O   UNL     1     -10.163   0.084  68.228  0.00  0.00    -0.248 OA
ATOM      5  C   UNL     1      -8.142   1.017  67.216  0.00  0.00    +0.175 C 
ATOM      6  N   UNL     1      -7.975  -0.450  66.665  0.00  0.00    -0.265 N 
ATOM      7  C   UNL     1      -7.875  -1.599  67.418  0.00  0.00    +0.094 C 
ATOM      8  C   UNL     1      -7.669  -1.505  68.896  0.00  0.00    +0.022 C 
ATOM      9  C   UNL     1      -6.906  -0.286  69.052  0.00  0.00    +0.004 C 
ATOM     10  C   UNL     1      -7.024  -0.186  65.604  0.00  0.00    +0.289 C 
ATOM     11  O   UNL     1      -6.009  -0.916  65.364  0.00  0.00    -0.267 OA
ATOM     12  C   UNL     1      -7.372   0.981  64.750  0.00  0.00    +0.279 C 
ATOM     13  O   UNL     1      -6.654   1.002  63.683  0.00  0.00    -0.281 OA
ATOM     14  C   UNL     1      -8.760   1.221  64.534  0.00  0.00    +0.279 C 
ATOM     15  O   UNL     1      -8.831   2.288  63.586  0.00  0.00    -0.329 OA
ATOM     16  C   UNL     1     -10.327   2.583  63.490  0.00  0.00    +0.121 C 
ATOM     17  C   UNL     1     -10.552   1.456  62.316  0.00  0.00    +0.030 C 
ATOM     18  C   UNL     1      -9.494   0.537  62.241  0.00  0.00    +0.008 C 
ATOM     19  C   UNL     1     -10.182   3.864  62.484  0.00  0.00    +0.063 C 
ATOM     20  C   UNL     1      -9.354   3.284  61.192  0.00  0.00    +0.136 C 
ATOM     21  C   UNL     1      -9.660   4.697  60.461  0.00  0.00    -0.017 C 
ATOM     22  C   UNL     1     -11.097   4.587  60.012  0.00  0.00    +0.029 C 
ATOM     23  C   UNL     1      -8.758   5.409  59.941  0.00  0.00    -0.006 C 
ATOM     24  C   UNL     1      -8.169   6.652  60.465  0.00  0.00    -0.001 C 
ATOM     25  C   UNL     1      -8.013   6.683  61.750  0.00  0.00    -0.000 C 
ATOM     26  C   UNL     1      -6.849   7.456  62.211  0.00  0.00    -0.005 C 
ATOM     27  C   UNL     1      -6.947   8.750  61.973  0.00  0.00    -0.026 C 
ATOM     28  C   UNL     1      -8.429   9.332  62.178  0.00  0.00    +0.022 C 
ATOM     29  C   UNL     1      -8.305  10.311  60.875  0.00  0.00    +0.005 C 
ATOM     30  C   UNL     1      -7.939  10.504  63.198  0.00  0.00    +0.012 C 
ATOM     31  C   UNL     1      -7.606   9.650  64.554  0.00  0.00    +0.061 C 
ATOM     32  C   UNL     1      -9.062   8.901  64.566  0.00  0.00    +0.008 C 
ATOM     33  C   UNL     1      -8.098  10.828  65.510  0.00  0.00    +0.180 C 
ATOM     34  O   UNL     1      -9.137  11.356  65.304  0.00  0.00    -0.293 OA
ATOM     35  C   UNL     1      -7.631  10.675  67.038  0.00  0.00    +0.206 C 
ATOM     36  C   UNL     1      -8.146   9.032  67.132  0.00  0.00    +0.204 C 
ATOM     37  O   UNL     1      -9.536   9.451  67.550  0.00  0.00    -0.216 OA
ATOM     38  C   UNL     1      -7.646   8.865  68.655  0.00  0.00    -0.015 C 
ATOM     39  C   UNL     1      -7.914   9.968  69.590  0.00  0.00    +0.029 C 
ATOM     40  C   UNL     1      -7.639   7.618  69.132  0.00  0.00    -0.025 C 
ATOM     41  C   UNL     1      -7.985   6.465  68.060  0.00  0.00    +0.079 C 
ATOM     42  C   UNL     1      -6.442   6.430  67.509  0.00  0.00    +0.012 C 
ATOM     43  C   UNL     1      -7.760   5.241  69.079  0.00  0.00    +0.158 C 
ATOM     44  O   UNL     1      -6.839   5.251  69.805  0.00  0.00    -0.296 OA
ATOM     45  O   UNL     1      -9.813   1.490  65.250  0.00  0.00    -0.187 OA
ATOM     46  C   UNL     1      -9.044  -0.143  63.640  0.00  0.00    +0.062 C 
ATOM     47  C   UNL     1     -10.584  -0.410  64.117  0.00  0.00    +0.006 C 
ATOM     48  C   UNL     1      -6.850   0.832  68.219  0.00  0.00    +0.031 C 
ATOM     49  C   UNL     1      -8.855   4.308  68.878  0.00  0.00    +0.108 C 
ENDROOT
BRANCH  35  50
ATOM     50  O   UNL     1      -6.220  10.259  66.690  0.00  0.00    -0.343 OA
ATOM     51  C   UNL     1      -5.473  11.434  66.901  0.00  0.00    +0.175 C 
ENDBRANCH  35  50
BRANCH   1  52
ATOM     52  C   UNL     1      -9.731   3.058  70.698  0.00  0.00    +0.041 C 
ATOM     53  C   UNL     1      -9.396   1.617  71.362  0.00  0.00    +0.004 C 
BRANCH  52  54
ATOM     54  C   UNL     1      -8.844   4.020  71.640  0.00  0.00    +0.004 C 
BRANCH  54  59
ATOM     55  C   UNL     1      -9.981   6.924  73.561  0.00  0.00    +0.142 C 
ATOM     56  C   UNL     1     -10.698   7.874  72.315  0.00  0.00    +0.142 C 
ATOM     57  C   UNL     1     -10.346   6.923  71.043  0.00  0.00    +0.032 C 
ATOM     58  C   UNL     1     -10.629   5.550  71.203  0.00  0.00    +0.003 C 
ATOM     59  C   UNL     1      -9.904   4.890  72.499  0.00  0.00    +0.003 C 
ATOM     60  C   UNL     1      -8.873   6.154  72.632  0.00  0.00    +0.032 C 
BRANCH  55  62
ATOM     61  C   UNL     1      -8.424   7.765  74.243  0.00  0.00    +0.174 C 
ATOM     62  O   UNL     1      -9.021   8.038  73.892  0.00  0.00    -0.351 OA
ENDBRANCH  55  62
BRANCH  56  63
ATOM     63  O   UNL     1     -12.027   7.209  72.567  0.00  0.00    -0.351 OA
BRANCH  63  64
ATOM     64  C   UNL     1     -13.019   8.016  72.120  0.00  0.00    +0.178 C 
BRANCH  64  65
ATOM     65  C   UNL     1     -14.299   7.378  71.751  0.00  0.00    +0.214 C 
ATOM     66  O   UNL     1     -15.439   8.062  72.125  0.00  0.00    -0.218 OA
ENDBRANCH  64  65
ENDBRANCH  63  64
ENDBRANCH  56  63
ENDBRANCH  54  59
ENDBRANCH  52  54
ENDBRANCH   1  52
BRANCH  20  67
ATOM     67  O   UNL     1      -8.018   3.739  61.754  0.00  0.00    -0.349 OA
ATOM     68  C   UNL     1      -7.044   3.072  61.050  0.00  0.00    +0.174 C 
ENDBRANCH  20  67
TORSDOF 9
ENDMDL
MODEL 9
REMARK VINA RESULT:      -5.8      2.616      8.110
REMARK  Name = 
REMARK  9 active torsions:
REMARK  status: ('A' for Active; 'I' for Inactive)
REMARK    1  A    between atoms: O_2  and  C_3
REMARK    2  A    between atoms: C_5  and  C_6
REMARK    3  A    between atoms: C_6  and  C_7
REMARK    4  A    between atoms: C_7  and  C_9
REMARK    5  A    between atoms: C_20  and  O_21
REMARK    6  A    between atoms: C_37  and  O_38
REMARK    7  A    between atoms: C_64  and  O_65
REMARK    8  A    between atoms: O_65  and  C_66
REMARK    9  A    between atoms: C_66  and  C_67
REMARK                            x       y       z     vdW  Elec       q    Type
REMARK                         _______ _______ _______ _____ _____    ______ ____
ROOT
ATOM      1  C   UNL     1      -8.063   8.234  64.826  0.00  0.00    +0.176 C 
ATOM      2  O   UNL     1      -6.541   8.112  64.791  0.00  0.00    -0.451 OA
ATOM      3  C   UNL     1      -6.032   7.443  63.654  0.00  0.00    +0.335 C 
ATOM      4  O   UNL     1      -4.877   7.813  63.415  0.00  0.00    -0.248 OA
ATOM      5  C   UNL     1      -6.207   5.954  64.283  0.00  0.00    +0.175 C 
ATOM      6  N   UNL     1      -5.353   5.119  63.255  0.00  0.00    -0.265 N 
ATOM      7  C   UNL     1      -5.292   5.316  61.894  0.00  0.00    +0.094 C 
ATOM      8  C   UNL     1      -6.265   6.236  61.229  0.00  0.00    +0.022 C 
ATOM      9  C   UNL     1      -7.454   6.111  62.044  0.00  0.00    +0.004 C 
ATOM     10  C   UNL     1      -5.589   3.793  63.792  0.00  0.00    +0.289 C 
ATOM     11  O   UNL     1      -5.844   2.773  63.074  0.00  0.00    -0.267 OA
ATOM     12  C   UNL     1      -5.430   3.696  65.267  0.00  0.00    +0.279 C 
ATOM     13  O   UNL     1      -5.383   2.468  65.647  0.00  0.00    -0.281 OA
ATOM     14  C   UNL     1      -4.441   4.535  65.858  0.00  0.00    +0.279 C 
ATOM     15  O   UNL     1      -4.383   4.162  67.237  0.00  0.00    -0.329 OA
ATOM     16  C   UNL     1      -3.406   5.171  67.840  0.00  0.00    +0.121 C 
ATOM     17  C   UNL     1      -2.101   4.240  67.478  0.00  0.00    +0.030 C 
ATOM     18  C   UNL     1      -2.387   3.262  66.512  0.00  0.00    +0.008 C 
ATOM     19  C   UNL     1      -3.569   4.661  69.385  0.00  0.00    +0.063 C 
ATOM     20  C   UNL     1      -3.203   3.062  69.334  0.00  0.00    +0.136 C 
ATOM     21  C   UNL     1      -3.253   3.080  70.953  0.00  0.00    -0.017 C 
ATOM     22  C   UNL     1      -1.944   3.708  71.364  0.00  0.00    +0.029 C 
ATOM     23  C   UNL     1      -3.948   2.270  71.626  0.00  0.00    -0.006 C 
ATOM     24  C   UNL     1      -5.220   2.525  72.320  0.00  0.00    -0.001 C 
ATOM     25  C   UNL     1      -6.027   3.330  71.705  0.00  0.00    -0.000 C 
ATOM     26  C   UNL     1      -7.456   3.046  71.910  0.00  0.00    -0.005 C 
ATOM     27  C   UNL     1      -7.860   3.242  73.150  0.00  0.00    -0.026 C 
ATOM     28  C   UNL     1      -7.186   4.519  73.852  0.00  0.00    +0.022 C 
ATOM     29  C   UNL     1      -7.036   3.745  75.285  0.00  0.00    +0.005 C 
ATOM     30  C   UNL     1      -8.618   5.173  74.271  0.00  0.00    +0.012 C 
ATOM     31  C   UNL     1      -9.177   5.705  72.828  0.00  0.00    +0.061 C 
ATOM     32  C   UNL     1      -7.802   6.523  72.478  0.00  0.00    +0.008 C 
ATOM     33  C   UNL     1      -9.881   6.978  73.482  0.00  0.00    +0.180 C 
ATOM     34  O   UNL     1      -9.279   7.655  74.244  0.00  0.00    -0.293 OA
ATOM     35  C   UNL     1     -10.952   7.701  72.529  0.00  0.00    +0.206 C 
ATOM     36  C   UNL     1      -9.874   7.737  71.183  0.00  0.00    +0.204 C 
ATOM     37  O   UNL     1      -9.304   9.064  71.626  0.00  0.00    -0.216 OA
ATOM     38  C   UNL     1     -10.960   8.431  70.215  0.00  0.00    -0.015 C 
ATOM     39  C   UNL     1     -11.776   9.521  70.769  0.00  0.00    +0.029 C 
ATOM     40  C   UNL     1     -10.639   8.475  68.919  0.00  0.00    -0.025 C 
ATOM     41  C   UNL     1      -9.291   7.691  68.513  0.00  0.00    +0.079 C 
ATOM     42  C   UNL     1     -10.078   6.255  68.430  0.00  0.00    +0.012 C 
ATOM     43  C   UNL     1      -9.424   7.974  66.935  0.00  0.00    +0.158 C 
ATOM     44  O   UNL     1     -10.467   7.864  66.411  0.00  0.00    -0.296 OA
ATOM     45  O   UNL     1      -4.198   5.809  65.962  0.00  0.00    -0.187 OA
ATOM     46  C   UNL     1      -3.133   3.786  65.174  0.00  0.00    +0.062 C 
ATOM     47  C   UNL     1      -2.169   5.097  65.032  0.00  0.00    +0.006 C 
ATOM     48  C   UNL     1      -7.570   5.745  63.385  0.00  0.00    +0.031 C 
ATOM     49  C   UNL     1      -8.107   8.356  66.455  0.00  0.00    +0.108 C 
ENDROOT
BRANCH  35  50
ATOM     50  O   UNL     1     -11.576   6.410  72.051  0.00  0.00    -0.343 OA
ATOM     51  C   UNL     1     -12.954   6.619  72.258  0.00  0.00    +0.175 C 
ENDBRANCH  35  50
BRANCH   1  52
ATOM     52  C   UNL     1      -7.871   9.938  64.698  0.00  0.00    +0.041 C 
ATOM     53  C   UNL     1      -7.731   9.841  63.085  0.00  0.00    +0.004 C 
BRANCH  52  54
ATOM     54  C   UNL     1      -9.454  10.219  64.831  0.00  0.00    +0.004 C 
BRANCH  54  59
ATOM     55  C   UNL     1     -11.117  13.482  64.873  0.00  0.00    +0.142 C 
ATOM     56  C   UNL     1     -11.941  13.404  66.384  0.00  0.00    +0.142 C 
ATOM     57  C   UNL     1     -11.533  11.889  66.812  0.00  0.00    +0.032 C 
ATOM     58  C   UNL     1     -10.168  11.557  66.679  0.00  0.00    +0.003 C 
ATOM     59  C   UNL     1      -9.591  11.793  65.179  0.00  0.00    +0.003 C 
ATOM     60  C   UNL     1     -11.102  11.875  64.554  0.00  0.00    +0.032 C 
BRANCH  55  62
ATOM     61  C   UNL     1     -12.372  13.401  63.455  0.00  0.00    +0.174 C 
ATOM     62  O   UNL     1     -12.420  13.679  64.144  0.00  0.00    -0.351 OA
ENDBRANCH  55  62
BRANCH  56  63
ATOM     63  O   UNL     1     -10.749  14.022  67.071  0.00  0.00    -0.351 OA
BRANCH  63  64
ATOM     64  C   UNL     1     -11.183  14.896  68.011  0.00  0.00    +0.178 C 
BRANCH  64  65
ATOM     65  C   UNL     1     -11.131  14.456  69.421  0.00  0.00    +0.214 C 
ATOM     66  O   UNL     1     -12.324  14.002  69.950  0.00  0.00    -0.218 OA
ENDBRANCH  64  65
ENDBRANCH  63  64
ENDBRANCH  56  63
ENDBRANCH  54  59
ENDBRANCH  52  54
ENDBRANCH   1  52
BRANCH  20  67
ATOM     67  O   UNL     1      -4.660   2.660  69.184  0.00  0.00    -0.349 OA
ATOM     68  C   UNL     1      -4.670   1.356  68.749  0.00  0.00    +0.174 C 
ENDBRANCH  20  67
TORSDOF 9
ENDMDL
