MODEL 1
REMARK VINA RESULT:      -6.2      0.000      0.000
REMARK  Name = 
REMARK  5 active torsions:
REMARK  status: ('A' for Active; 'I' for Inactive)
REMARK    1  A    between atoms: C_2  and  C_3
REMARK    2  A    between atoms: C_4  and  C_5
REMARK    3  A    between atoms: C_14  and  C_15
REMARK    4  A    between atoms: C_16  and  C_17
REMARK    5  A    between atoms: C_19  and  C_20
REMARK                            x       y       z     vdW  Elec       q    Type
REMARK                         _______ _______ _______ _____ _____    ______ ____
ROOT
ATOM      1  C   UNL     1      -9.761  14.404  67.929  0.00  0.00    +0.031 C 
ATOM      2  C   UNL     1      -9.628  15.780  68.500  0.00  0.00    -0.022 C 
ATOM      3  C   UNL     1     -10.774  16.432  68.707  0.00  0.00    -0.004 C 
ENDROOT
BRANCH   3   4
ATOM      4  C   UNL     1     -11.870  15.632  69.260  0.00  0.00    -0.001 C 
ATOM      5  C   UNL     1     -12.133  15.566  70.553  0.00  0.00    -0.004 C 
BRANCH   5   6
ATOM      6  C   UNL     1     -12.496  14.344  71.241  0.00  0.00    -0.015 C 
ATOM      7  C   UNL     1     -13.305  14.447  72.289  0.00  0.00    +0.082 C 
ATOM      8  C   UNL     1     -12.317  12.986  70.644  0.00  0.00    +0.031 C 
BRANCH   7   9
ATOM      9  C   UNL     1     -13.164  15.585  73.202  0.00  0.00    +0.388 C 
ATOM     10  O   UNL     1     -12.493  15.423  74.418  0.00  0.00    -0.241 OA
ATOM     11  O   UNL     1     -14.119  16.419  73.218  0.00  0.00    -0.241 OA
ENDBRANCH   7   9
ENDBRANCH   5   6
ENDBRANCH   3   4
BRANCH   2  12
ATOM     12  C   UNL     1      -8.454  16.558  68.084  0.00  0.00    -0.005 C 
ATOM     13  C   UNL     1      -8.128  17.699  68.649  0.00  0.00    -0.005 C 
BRANCH  13  14
ATOM     14  C   UNL     1      -7.267  18.659  67.949  0.00  0.00    -0.031 C 
ATOM     15  C   UNL     1      -5.889  18.926  68.468  0.00  0.00    +0.018 C 
ATOM     16  C   UNL     1      -5.683  18.213  69.794  0.00  0.00    +0.004 C 
ATOM     17  C   UNL     1      -4.826  18.580  67.462  0.00  0.00    +0.004 C 
ATOM     18  C   UNL     1      -5.834  20.413  68.762  0.00  0.00    +0.004 C 
ATOM     19  C   UNL     1      -6.095  21.254  67.545  0.00  0.00    +0.005 C 
ATOM     20  C   UNL     1      -6.910  20.524  66.492  0.00  0.00    +0.022 C 
ATOM     21  C   UNL     1      -7.846  19.586  67.186  0.00  0.00    -0.048 C 
ATOM     22  C   UNL     1      -9.292  19.943  67.330  0.00  0.00    +0.026 C 
ENDBRANCH  13  14
ENDBRANCH   2  12
TORSDOF 5
ENDMDL
MODEL 2
REMARK VINA RESULT:      -6.0      6.052     10.094
REMARK  Name = 
REMARK  5 active torsions:
REMARK  status: ('A' for Active; 'I' for Inactive)
REMARK    1  A    between atoms: C_2  and  C_3
REMARK    2  A    between atoms: C_4  and  C_5
REMARK    3  A    between atoms: C_14  and  C_15
REMARK    4  A    between atoms: C_16  and  C_17
REMARK    5  A    between atoms: C_19  and  C_20
REMARK                            x       y       z     vdW  Elec       q    Type
REMARK                         _______ _______ _______ _____ _____    ______ ____
ROOT
ATOM      1  C   UNL     1      -8.888  12.684  68.006  0.00  0.00    +0.031 C 
ATOM      2  C   UNL     1     -10.115  11.864  68.250  0.00  0.00    -0.022 C 
ATOM      3  C   UNL     1     -11.246  12.552  68.410  0.00  0.00    -0.004 C 
ENDROOT
BRANCH   3   4
ATOM      4  C   UNL     1     -11.430  13.694  67.509  0.00  0.00    -0.001 C 
ATOM      5  C   UNL     1     -12.024  13.595  66.334  0.00  0.00    -0.004 C 
BRANCH   5   6
ATOM      6  C   UNL     1     -11.559  14.264  65.136  0.00  0.00    -0.015 C 
ATOM      7  C   UNL     1     -11.963  13.782  63.967  0.00  0.00    +0.082 C 
ATOM      8  C   UNL     1     -10.969  15.637  65.144  0.00  0.00    +0.031 C 
BRANCH   7   9
ATOM      9  C   UNL     1     -12.089  12.332  63.788  0.00  0.00    +0.388 C 
ATOM     10  O   UNL     1     -10.958  11.567  63.484  0.00  0.00    -0.241 OA
ATOM     11  O   UNL     1     -13.174  11.917  63.281  0.00  0.00    -0.241 OA
ENDBRANCH   7   9
ENDBRANCH   5   6
ENDBRANCH   3   4
BRANCH   2  12
ATOM     12  C   UNL     1      -9.941  10.628  69.023  0.00  0.00    -0.005 C 
ATOM     13  C   UNL     1     -10.903   9.743  69.165  0.00  0.00    -0.005 C 
BRANCH  13  14
ATOM     14  C   UNL     1     -10.877   8.784  70.275  0.00  0.00    -0.031 C 
ATOM     15  C   UNL     1     -10.573   7.345  69.996  0.00  0.00    +0.018 C 
ATOM     16  C   UNL     1     -10.486   7.110  68.498  0.00  0.00    +0.004 C 
ATOM     17  C   UNL     1      -9.341   6.874  70.720  0.00  0.00    +0.004 C 
ATOM     18  C   UNL     1     -11.773   6.562  70.491  0.00  0.00    +0.004 C 
ATOM     19  C   UNL     1     -12.028   6.756  71.958  0.00  0.00    +0.005 C 
ATOM     20  C   UNL     1     -11.471   8.069  72.480  0.00  0.00    +0.022 C 
ATOM     21  C   UNL     1     -11.551   9.084  71.385  0.00  0.00    -0.048 C 
ATOM     22  C   UNL     1     -12.631  10.120  71.402  0.00  0.00    +0.026 C 
ENDBRANCH  13  14
ENDBRANCH   2  12
TORSDOF 5
ENDMDL
MODEL 3
REMARK VINA RESULT:      -6.0      6.078     10.066
REMARK  Name = 
REMARK  5 active torsions:
REMARK  status: ('A' for Active; 'I' for Inactive)
REMARK    1  A    between atoms: C_2  and  C_3
REMARK    2  A    between atoms: C_4  and  C_5
REMARK    3  A    between atoms: C_14  and  C_15
REMARK    4  A    between atoms: C_16  and  C_17
REMARK    5  A    between atoms: C_19  and  C_20
REMARK                            x       y       z     vdW  Elec       q    Type
REMARK                         _______ _______ _______ _____ _____    ______ ____
ROOT
ATOM      1  C   UNL     1      -9.630  11.687  67.460  0.00  0.00    +0.031 C 
ATOM      2  C   UNL     1     -11.024  11.461  67.955  0.00  0.00    -0.022 C 
ATOM      3  C   UNL     1     -11.691  12.557  68.321  0.00  0.00    -0.004 C 
ENDROOT
BRANCH   3   4
ATOM      4  C   UNL     1     -11.520  13.726  67.454  0.00  0.00    -0.001 C 
ATOM      5  C   UNL     1     -12.199  13.897  66.334  0.00  0.00    -0.004 C 
BRANCH   5   6
ATOM      6  C   UNL     1     -11.618  14.405  65.108  0.00  0.00    -0.015 C 
ATOM      7  C   UNL     1     -11.965  13.812  63.972  0.00  0.00    +0.082 C 
ATOM      8  C   UNL     1     -10.960  15.744  65.010  0.00  0.00    +0.031 C 
BRANCH   7   9
ATOM      9  C   UNL     1     -12.152  12.358  63.944  0.00  0.00    +0.388 C 
ATOM     10  O   UNL     1     -11.056  11.519  63.727  0.00  0.00    -0.241 OA
ATOM     11  O   UNL     1     -13.254  11.939  63.478  0.00  0.00    -0.241 OA
ENDBRANCH   7   9
ENDBRANCH   5   6
ENDBRANCH   3   4
BRANCH   2  12
ATOM     12  C   UNL     1     -11.268  10.220  68.700  0.00  0.00    -0.005 C 
ATOM     13  C   UNL     1     -11.004  10.104  69.983  0.00  0.00    -0.005 C 
BRANCH  13  14
ATOM     14  C   UNL     1     -10.817   8.781  70.590  0.00  0.00    -0.031 C 
ATOM     15  C   UNL     1     -11.853   8.251  71.531  0.00  0.00    +0.018 C 
ATOM     16  C   UNL     1     -12.900   9.316  71.809  0.00  0.00    +0.004 C 
ATOM     17  C   UNL     1     -12.463   6.967  71.039  0.00  0.00    +0.004 C 
ATOM     18  C   UNL     1     -11.134   7.994  72.841  0.00  0.00    +0.004 C 
ATOM     19  C   UNL     1     -10.013   7.004  72.703  0.00  0.00    +0.005 C 
ATOM     20  C   UNL     1      -9.462   6.937  71.289  0.00  0.00    +0.022 C 
ATOM     21  C   UNL     1      -9.579   8.294  70.672  0.00  0.00    -0.048 C 
ATOM     22  C   UNL     1      -8.372   9.170  70.557  0.00  0.00    +0.026 C 
ENDBRANCH  13  14
ENDBRANCH   2  12
TORSDOF 5
ENDMDL
MODEL 4
REMARK VINA RESULT:      -5.7      6.158      8.493
REMARK  Name = 
REMARK  5 active torsions:
REMARK  status: ('A' for Active; 'I' for Inactive)
REMARK    1  A    between atoms: C_2  and  C_3
REMARK    2  A    between atoms: C_4  and  C_5
REMARK    3  A    between atoms: C_14  and  C_15
REMARK    4  A    between atoms: C_16  and  C_17
REMARK    5  A    between atoms: C_19  and  C_20
REMARK                            x       y       z     vdW  Elec       q    Type
REMARK                         _______ _______ _______ _____ _____    ______ ____
ROOT
ATOM      1  C   UNL     1      -9.338   9.104  68.800  0.00  0.00    +0.031 C 
ATOM      2  C   UNL     1     -10.479   8.658  67.941  0.00  0.00    -0.022 C 
ATOM      3  C   UNL     1     -10.534   7.349  67.690  0.00  0.00    -0.004 C 
ENDROOT
BRANCH   3   4
ATOM      4  C   UNL     1     -10.226   6.470  68.821  0.00  0.00    -0.001 C 
ATOM      5  C   UNL     1     -11.146   6.025  69.658  0.00  0.00    -0.004 C 
BRANCH   5   6
ATOM      6  C   UNL     1     -10.958   5.937  71.092  0.00  0.00    -0.015 C 
ATOM      7  C   UNL     1     -11.961   6.328  71.868  0.00  0.00    +0.082 C 
ATOM      8  C   UNL     1      -9.878   5.120  71.726  0.00  0.00    +0.031 C 
BRANCH   7   9
ATOM      9  C   UNL     1     -12.768   7.488  71.477  0.00  0.00    +0.388 C 
ATOM     10  O   UNL     1     -12.397   8.768  71.901  0.00  0.00    -0.241 OA
ATOM     11  O   UNL     1     -14.016   7.297  71.362  0.00  0.00    -0.241 OA
ENDBRANCH   7   9
ENDBRANCH   5   6
ENDBRANCH   3   4
BRANCH   2  12
ATOM     12  C   UNL     1     -10.916   9.584  66.889  0.00  0.00    -0.005 C 
ATOM     13  C   UNL     1     -10.431  10.801  66.774  0.00  0.00    -0.005 C 
BRANCH  13  14
ATOM     14  C   UNL     1     -11.176  11.835  66.047  0.00  0.00    -0.031 C 
ATOM     15  C   UNL     1     -10.834  12.121  64.618  0.00  0.00    +0.018 C 
ATOM     16  C   UNL     1      -9.601  11.333  64.209  0.00  0.00    +0.004 C 
ATOM     17  C   UNL     1     -11.997  11.879  63.696  0.00  0.00    +0.004 C 
ATOM     18  C   UNL     1     -10.450  13.587  64.566  0.00  0.00    +0.004 C 
ATOM     19  C   UNL     1     -11.560  14.493  65.018  0.00  0.00    +0.005 C 
ATOM     20  C   UNL     1     -12.538  13.800  65.950  0.00  0.00    +0.022 C 
ATOM     21  C   UNL     1     -11.787  12.786  66.753  0.00  0.00    -0.048 C 
ATOM     22  C   UNL     1     -11.423  13.077  68.174  0.00  0.00    +0.026 C 
ENDBRANCH  13  14
ENDBRANCH   2  12
TORSDOF 5
ENDMDL
MODEL 5
REMARK VINA RESULT:      -5.6      1.005      2.126
REMARK  Name = 
REMARK  5 active torsions:
REMARK  status: ('A' for Active; 'I' for Inactive)
REMARK    1  A    between atoms: C_2  and  C_3
REMARK    2  A    between atoms: C_4  and  C_5
REMARK    3  A    between atoms: C_14  and  C_15
REMARK    4  A    between atoms: C_16  and  C_17
REMARK    5  A    between atoms: C_19  and  C_20
REMARK                            x       y       z     vdW  Elec       q    Type
REMARK                         _______ _______ _______ _____ _____    ______ ____
ROOT
ATOM      1  C   UNL     1      -9.067  15.344  69.028  0.00  0.00    +0.031 C 
ATOM      2  C   UNL     1      -9.740  16.672  68.885  0.00  0.00    -0.022 C 
ATOM      3  C   UNL     1     -10.963  16.644  68.351  0.00  0.00    -0.004 C 
ENDROOT
BRANCH   3   4
ATOM      4  C   UNL     1     -11.829  15.552  68.802  0.00  0.00    -0.001 C 
ATOM      5  C   UNL     1     -12.337  15.492  70.021  0.00  0.00    -0.004 C 
BRANCH   5   6
ATOM      6  C   UNL     1     -12.424  14.273  70.800  0.00  0.00    -0.015 C 
ATOM      7  C   UNL     1     -13.188  14.291  71.885  0.00  0.00    +0.082 C 
ATOM      8  C   UNL     1     -12.011  12.936  70.273  0.00  0.00    +0.031 C 
BRANCH   7   9
ATOM      9  C   UNL     1     -13.229  15.495  72.720  0.00  0.00    +0.388 C 
ATOM     10  O   UNL     1     -12.450  15.566  73.878  0.00  0.00    -0.241 OA
ATOM     11  O   UNL     1     -14.339  16.107  72.776  0.00  0.00    -0.241 OA
ENDBRANCH   7   9
ENDBRANCH   5   6
ENDBRANCH   3   4
BRANCH   2  12
ATOM     12  C   UNL     1      -8.879  17.821  68.582  0.00  0.00    -0.005 C 
ATOM     13  C   UNL     1      -7.667  17.685  68.092  0.00  0.00    -0.005 C 
BRANCH  13  14
ATOM     14  C   UNL     1      -6.681  18.764  68.227  0.00  0.00    -0.031 C 
ATOM     15  C   UNL     1      -6.256  19.528  67.012  0.00  0.00    +0.018 C 
ATOM     16  C   UNL     1      -6.858  18.902  65.765  0.00  0.00    +0.004 C 
ATOM     17  C   UNL     1      -6.571  20.994  67.124  0.00  0.00    +0.004 C 
ATOM     18  C   UNL     1      -4.755  19.345  66.908  0.00  0.00    +0.004 C 
ATOM     19  C   UNL     1      -4.023  19.856  68.117  0.00  0.00    +0.005 C 
ATOM     20  C   UNL     1      -4.893  19.878  69.361  0.00  0.00    +0.022 C 
ATOM     21  C   UNL     1      -5.864  18.743  69.279  0.00  0.00    -0.048 C 
ATOM     22  C   UNL     1      -5.631  17.501  70.080  0.00  0.00    +0.026 C 
ENDBRANCH  13  14
ENDBRANCH   2  12
TORSDOF 5
ENDMDL
MODEL 6
REMARK VINA RESULT:      -5.5      3.688      7.915
REMARK  Name = 
REMARK  5 active torsions:
REMARK  status: ('A' for Active; 'I' for Inactive)
REMARK    1  A    between atoms: C_2  and  C_3
REMARK    2  A    between atoms: C_4  and  C_5
REMARK    3  A    between atoms: C_14  and  C_15
REMARK    4  A    between atoms: C_16  and  C_17
REMARK    5  A    between atoms: C_19  and  C_20
REMARK                            x       y       z     vdW  Elec       q    Type
REMARK                         _______ _______ _______ _____ _____    ______ ____
ROOT
ATOM      1  C   UNL     1      -6.554  17.435  66.545  0.00  0.00    +0.031 C 
ATOM      2  C   UNL     1      -7.585  17.208  67.605  0.00  0.00    -0.022 C 
ATOM      3  C   UNL     1      -7.124  17.152  68.855  0.00  0.00    -0.004 C 
ENDROOT
BRANCH   3   4
ATOM      4  C   UNL     1      -6.086  18.129  69.196  0.00  0.00    -0.001 C 
ATOM      5  C   UNL     1      -6.358  19.336  69.660  0.00  0.00    -0.004 C 
BRANCH   5   6
ATOM      6  C   UNL     1      -5.660  20.536  69.247  0.00  0.00    -0.015 C 
ATOM      7  C   UNL     1      -4.624  20.927  69.979  0.00  0.00    +0.082 C 
ATOM      8  C   UNL     1      -5.802  21.135  67.884  0.00  0.00    +0.031 C 
BRANCH   7   9
ATOM      9  C   UNL     1      -4.674  20.781  71.437  0.00  0.00    +0.388 C 
ATOM     10  O   UNL     1      -4.598  21.913  72.254  0.00  0.00    -0.241 OA
ATOM     11  O   UNL     1      -4.151  19.731  71.919  0.00  0.00    -0.241 OA
ENDBRANCH   7   9
ENDBRANCH   5   6
ENDBRANCH   3   4
BRANCH   2  12
ATOM     12  C   UNL     1      -8.724  16.352  67.247  0.00  0.00    -0.005 C 
ATOM     13  C   UNL     1      -9.037  15.274  67.930  0.00  0.00    -0.005 C 
BRANCH  13  14
ATOM     14  C   UNL     1      -9.849  14.214  67.320  0.00  0.00    -0.031 C 
ATOM     15  C   UNL     1     -11.313  14.142  67.625  0.00  0.00    +0.018 C 
ATOM     16  C   UNL     1     -11.674  15.160  68.693  0.00  0.00    +0.004 C 
ATOM     17  C   UNL     1     -12.158  14.286  66.389  0.00  0.00    +0.004 C 
ATOM     18  C   UNL     1     -11.545  12.773  68.232  0.00  0.00    +0.004 C 
ATOM     19  C   UNL     1     -11.159  11.654  67.307  0.00  0.00    +0.005 C 
ATOM     20  C   UNL     1     -10.118  12.074  66.284  0.00  0.00    +0.022 C 
ATOM     21  C   UNL     1      -9.233  13.107  66.907  0.00  0.00    -0.048 C 
ATOM     22  C   UNL     1      -7.869  12.729  67.390  0.00  0.00    +0.026 C 
ENDBRANCH  13  14
ENDBRANCH   2  12
TORSDOF 5
ENDMDL
MODEL 7
REMARK VINA RESULT:      -5.5      4.762      9.679
REMARK  Name = 
REMARK  5 active torsions:
REMARK  status: ('A' for Active; 'I' for Inactive)
REMARK    1  A    between atoms: C_2  and  C_3
REMARK    2  A    between atoms: C_4  and  C_5
REMARK    3  A    between atoms: C_14  and  C_15
REMARK    4  A    between atoms: C_16  and  C_17
REMARK    5  A    between atoms: C_19  and  C_20
REMARK                            x       y       z     vdW  Elec       q    Type
REMARK                         _______ _______ _______ _____ _____    ______ ____
ROOT
ATOM      1  C   UNL     1     -12.206  13.092  70.133  0.00  0.00    +0.031 C 
ATOM      2  C   UNL     1     -11.657  12.128  69.131  0.00  0.00    -0.022 C 
ATOM      3  C   UNL     1     -11.813  12.474  67.852  0.00  0.00    -0.004 C 
ENDROOT
BRANCH   3   4
ATOM      4  C   UNL     1     -11.587  13.889  67.543  0.00  0.00    -0.001 C 
ATOM      5  C   UNL     1     -10.405  14.469  67.649  0.00  0.00    -0.004 C 
BRANCH   5   6
ATOM      6  C   UNL     1     -10.204  15.797  68.192  0.00  0.00    -0.015 C 
ATOM      7  C   UNL     1     -10.281  16.822  67.352  0.00  0.00    +0.082 C 
ATOM      8  C   UNL     1     -10.276  16.101  69.654  0.00  0.00    +0.031 C 
BRANCH   7   9
ATOM      9  C   UNL     1      -9.748  16.685  65.993  0.00  0.00    +0.388 C 
ATOM     10  O   UNL     1      -8.454  17.127  65.705  0.00  0.00    -0.241 OA
ATOM     11  O   UNL     1     -10.582  16.798  65.045  0.00  0.00    -0.241 OA
ENDBRANCH   7   9
ENDBRANCH   5   6
ENDBRANCH   3   4
BRANCH   2  12
ATOM     12  C   UNL     1     -11.728  10.702  69.475  0.00  0.00    -0.005 C 
ATOM     13  C   UNL     1     -11.358  10.241  70.649  0.00  0.00    -0.005 C 
BRANCH  13  14
ATOM     14  C   UNL     1     -11.004   8.827  70.818  0.00  0.00    -0.031 C 
ATOM     15  C   UNL     1     -11.830   7.964  71.720  0.00  0.00    +0.018 C 
ATOM     16  C   UNL     1     -12.859   8.809  72.451  0.00  0.00    +0.004 C 
ATOM     17  C   UNL     1     -12.456   6.810  70.986  0.00  0.00    +0.004 C 
ATOM     18  C   UNL     1     -10.879   7.431  72.773  0.00  0.00    +0.004 C 
ATOM     19  C   UNL     1      -9.754   6.627  72.185  0.00  0.00    +0.005 C 
ATOM     20  C   UNL     1      -9.461   6.999  70.742  0.00  0.00    +0.022 C 
ATOM     21  C   UNL     1      -9.750   8.456  70.562  0.00  0.00    -0.048 C 
ATOM     22  C   UNL     1      -8.625   9.441  70.513  0.00  0.00    +0.026 C 
ENDBRANCH  13  14
ENDBRANCH   2  12
TORSDOF 5
ENDMDL
MODEL 8
REMARK VINA RESULT:      -5.5      5.587     10.232
REMARK  Name = 
REMARK  5 active torsions:
REMARK  status: ('A' for Active; 'I' for Inactive)
REMARK    1  A    between atoms: C_2  and  C_3
REMARK    2  A    between atoms: C_4  and  C_5
REMARK    3  A    between atoms: C_14  and  C_15
REMARK    4  A    between atoms: C_16  and  C_17
REMARK    5  A    between atoms: C_19  and  C_20
REMARK                            x       y       z     vdW  Elec       q    Type
REMARK                         _______ _______ _______ _____ _____    ______ ____
ROOT
ATOM      1  C   UNL     1      -9.510  11.302  68.146  0.00  0.00    +0.031 C 
ATOM      2  C   UNL     1     -10.993  11.121  68.213  0.00  0.00    -0.022 C 
ATOM      3  C   UNL     1     -11.714  12.242  68.142  0.00  0.00    -0.004 C 
ENDROOT
BRANCH   3   4
ATOM      4  C   UNL     1     -11.251  13.236  67.169  0.00  0.00    -0.001 C 
ATOM      5  C   UNL     1     -11.715  13.305  65.934  0.00  0.00    -0.004 C 
BRANCH   5   6
ATOM      6  C   UNL     1     -10.885  13.549  64.772  0.00  0.00    -0.015 C 
ATOM      7  C   UNL     1     -10.219  14.696  64.723  0.00  0.00    +0.082 C 
ATOM      8  C   UNL     1     -10.459  12.468  63.831  0.00  0.00    +0.031 C 
BRANCH   7   9
ATOM      9  C   UNL     1     -10.849  15.919  65.230  0.00  0.00    +0.388 C 
ATOM     10  O   UNL     1     -11.466  16.804  64.340  0.00  0.00    -0.241 OA
ATOM     11  O   UNL     1     -10.305  16.460  66.239  0.00  0.00    -0.241 OA
ENDBRANCH   7   9
ENDBRANCH   5   6
ENDBRANCH   3   4
BRANCH   2  12
ATOM     12  C   UNL     1     -11.489  10.032  69.064  0.00  0.00    -0.005 C 
ATOM     13  C   UNL     1     -10.897   9.686  70.185  0.00  0.00    -0.005 C 
BRANCH  13  14
ATOM     14  C   UNL     1     -11.112   8.354  70.762  0.00  0.00    -0.031 C 
ATOM     15  C   UNL     1     -12.143   8.175  71.833  0.00  0.00    +0.018 C 
ATOM     16  C   UNL     1     -12.707   9.524  72.246  0.00  0.00    +0.004 C 
ATOM     17  C   UNL     1     -13.220   7.207  71.427  0.00  0.00    +0.004 C 
ATOM     18  C   UNL     1     -11.404   7.625  73.036  0.00  0.00    +0.004 C 
ATOM     19  C   UNL     1     -10.727   6.314  72.752  0.00  0.00    +0.005 C 
ATOM     20  C   UNL     1     -10.414   6.125  71.278  0.00  0.00    +0.022 C 
ATOM     21  C   UNL     1     -10.124   7.464  70.681  0.00  0.00    -0.048 C 
ATOM     22  C   UNL     1      -8.710   7.870  70.408  0.00  0.00    +0.026 C 
ENDBRANCH  13  14
ENDBRANCH   2  12
TORSDOF 5
ENDMDL
MODEL 9
REMARK VINA RESULT:      -5.5      3.951      7.873
REMARK  Name = 
REMARK  5 active torsions:
REMARK  status: ('A' for Active; 'I' for Inactive)
REMARK    1  A    between atoms: C_2  and  C_3
REMARK    2  A    between atoms: C_4  and  C_5
REMARK    3  A    between atoms: C_14  and  C_15
REMARK    4  A    between atoms: C_16  and  C_17
REMARK    5  A    between atoms: C_19  and  C_20
REMARK                            x       y       z     vdW  Elec       q    Type
REMARK                         _______ _______ _______ _____ _____    ______ ____
ROOT
ATOM      1  C   UNL     1      -6.343  15.420  69.579  0.00  0.00    +0.031 C 
ATOM      2  C   UNL     1      -7.494  16.025  68.840  0.00  0.00    -0.022 C 
ATOM      3  C   UNL     1      -7.661  17.338  69.009  0.00  0.00    -0.004 C 
ENDROOT
BRANCH   3   4
ATOM      4  C   UNL     1      -6.435  18.140  69.016  0.00  0.00    -0.001 C 
ATOM      5  C   UNL     1      -6.286  19.222  69.759  0.00  0.00    -0.004 C 
BRANCH   5   6
ATOM      6  C   UNL     1      -5.645  20.436  69.297  0.00  0.00    -0.015 C 
ATOM      7  C   UNL     1      -4.628  20.904  70.010  0.00  0.00    +0.082 C 
ATOM      8  C   UNL     1      -5.816  20.975  67.912  0.00  0.00    +0.031 C 
BRANCH   7   9
ATOM      9  C   UNL     1      -4.669  20.812  71.473  0.00  0.00    +0.388 C 
ATOM     10  O   UNL     1      -4.547  21.970  72.246  0.00  0.00    -0.241 OA
ATOM     11  O   UNL     1      -4.175  19.764  71.988  0.00  0.00    -0.241 OA
ENDBRANCH   7   9
ENDBRANCH   5   6
ENDBRANCH   3   4
BRANCH   2  12
ATOM     12  C   UNL     1      -8.691  15.190  68.680  0.00  0.00    -0.005 C 
ATOM     13  C   UNL     1      -8.892  14.442  67.618  0.00  0.00    -0.005 C 
BRANCH  13  14
ATOM     14  C   UNL     1     -10.245  13.995  67.266  0.00  0.00    -0.031 C 
ATOM     15  C   UNL     1     -10.639  12.573  67.521  0.00  0.00    +0.018 C 
ATOM     16  C   UNL     1      -9.436  11.774  67.993  0.00  0.00    +0.004 C 
ATOM     17  C   UNL     1     -11.802  12.467  68.469  0.00  0.00    +0.004 C 
ATOM     18  C   UNL     1     -11.038  12.004  66.174  0.00  0.00    +0.004 C 
ATOM     19  C   UNL     1     -12.182  12.747  65.545  0.00  0.00    +0.005 C 
ATOM     20  C   UNL     1     -12.292  14.179  66.041  0.00  0.00    +0.022 C 
ATOM     21  C   UNL     1     -10.916  14.681  66.342  0.00  0.00    -0.048 C 
ATOM     22  C   UNL     1     -10.229  15.602  65.383  0.00  0.00    +0.026 C 
ENDBRANCH  13  14
ENDBRANCH   2  12
TORSDOF 5
ENDMDL
