MODEL 1
REMARK VINA RESULT:      -5.4      0.000      0.000
REMARK  Name = 
REMARK  2 active torsions:
REMARK  status: ('A' for Active; 'I' for Inactive)
REMARK    1  A    between atoms: C_2  and  N_4
REMARK    2  A    between atoms: C_7  and  S_8
REMARK                            x       y       z     vdW  Elec       q    Type
REMARK                         _______ _______ _______ _____ _____    ______ ____
ROOT
ATOM      1  N   UNL     1     -12.328  14.103  70.320  0.00  0.00    -0.154 NA
ATOM      2  C   UNL     1     -11.959  14.598  69.174  0.00  0.00    +0.186 A 
ATOM      3  N   UNL     1     -11.500  13.908  68.098  0.00  0.00    -0.227 N 
ATOM      4  C   UNL     1     -11.770  12.474  67.987  0.00  0.00    +0.156 C 
ATOM      5  N   UNL     1     -11.517  14.669  67.013  0.00  0.00    -0.140 NA
ATOM      6  C   UNL     1     -10.804  15.806  67.205  0.00  0.00    +0.257 A 
ATOM      7  S   UNL     1     -11.278  16.140  68.824  0.00  0.00    -0.011 S 
ENDROOT
BRANCH   6   8
ATOM      8  S   UNL     1     -10.220  16.941  65.993  0.00  0.00    +0.118 S 
ATOM      9  O   UNL     1      -8.756  16.789  65.753  0.00  0.00    -0.148 OA
ATOM     10  O   UNL     1     -10.499  18.319  66.547  0.00  0.00    -0.148 OA
ATOM     11  N   UNL     1     -11.143  16.810  64.528  0.00  0.00    +0.041 NA
ENDBRANCH   6   8
BRANCH   1  13
ATOM     12  C   UNL     1     -11.786  15.457  72.358  0.00  0.00    +0.097 C 
ATOM     13  C   UNL     1     -12.741  15.062  71.296  0.00  0.00    +0.248 C 
ATOM     14  O   UNL     1     -13.839  15.663  71.197  0.00  0.00    -0.273 OA
ENDBRANCH   1  13
TORSDOF 2
ENDMDL
MODEL 2
REMARK VINA RESULT:      -5.4      3.139      5.843
REMARK  Name = 
REMARK  2 active torsions:
REMARK  status: ('A' for Active; 'I' for Inactive)
REMARK    1  A    between atoms: C_2  and  N_4
REMARK    2  A    between atoms: C_7  and  S_8
REMARK                            x       y       z     vdW  Elec       q    Type
REMARK                         _______ _______ _______ _____ _____    ______ ____
ROOT
ATOM      1  N   UNL     1     -10.629  14.320  67.657  0.00  0.00    -0.154 NA
ATOM      2  C   UNL     1     -11.325  14.666  68.702  0.00  0.00    +0.186 A 
ATOM      3  N   UNL     1     -11.229  15.827  69.398  0.00  0.00    -0.227 N 
ATOM      4  C   UNL     1     -10.602  16.995  68.777  0.00  0.00    +0.156 C 
ATOM      5  N   UNL     1     -12.280  15.986  70.191  0.00  0.00    -0.140 NA
ATOM      6  C   UNL     1     -12.424  14.927  71.025  0.00  0.00    +0.257 A 
ATOM      7  S   UNL     1     -12.023  13.670  69.920  0.00  0.00    -0.011 S 
ENDROOT
BRANCH   6   8
ATOM      8  S   UNL     1     -13.407  14.815  72.480  0.00  0.00    +0.118 S 
ATOM      9  O   UNL     1     -14.116  13.507  72.569  0.00  0.00    -0.148 OA
ATOM     10  O   UNL     1     -14.421  15.932  72.384  0.00  0.00    -0.148 OA
ATOM     11  N   UNL     1     -12.455  15.144  73.895  0.00  0.00    +0.041 NA
ENDBRANCH   6   8
BRANCH   1  13
ATOM     12  C   UNL     1     -11.994  12.871  66.135  0.00  0.00    +0.097 C 
ATOM     13  C   UNL     1     -10.912  13.021  67.136  0.00  0.00    +0.248 C 
ATOM     14  O   UNL     1     -10.186  12.034  67.414  0.00  0.00    -0.273 OA
ENDBRANCH   1  13
TORSDOF 2
ENDMDL
MODEL 3
REMARK VINA RESULT:      -5.4      2.884      4.642
REMARK  Name = 
REMARK  2 active torsions:
REMARK  status: ('A' for Active; 'I' for Inactive)
REMARK    1  A    between atoms: C_2  and  N_4
REMARK    2  A    between atoms: C_7  and  S_8
REMARK                            x       y       z     vdW  Elec       q    Type
REMARK                         _______ _______ _______ _____ _____    ______ ____
ROOT
ATOM      1  N   UNL     1     -12.136  12.287  65.588  0.00  0.00    -0.154 NA
ATOM      2  C   UNL     1     -11.517  13.359  65.991  0.00  0.00    +0.186 A 
ATOM      3  N   UNL     1     -11.457  13.837  67.260  0.00  0.00    -0.227 N 
ATOM      4  C   UNL     1     -11.749  12.946  68.385  0.00  0.00    +0.156 C 
ATOM      5  N   UNL     1     -10.501  14.750  67.372  0.00  0.00    -0.140 NA
ATOM      6  C   UNL     1     -10.683  15.754  66.480  0.00  0.00    +0.257 A 
ATOM      7  S   UNL     1     -11.195  14.816  65.132  0.00  0.00    -0.011 S 
ENDROOT
BRANCH   6   8
ATOM      8  S   UNL     1      -9.931  17.345  66.467  0.00  0.00    +0.118 S 
ATOM      9  O   UNL     1     -10.053  18.027  67.787  0.00  0.00    -0.148 OA
ATOM     10  O   UNL     1     -10.668  18.145  65.417  0.00  0.00    -0.148 OA
ATOM     11  N   UNL     1      -8.282  17.245  65.930  0.00  0.00    +0.041 NA
ENDBRANCH   6   8
BRANCH   1  13
ATOM     12  C   UNL     1     -10.842  11.403  63.632  0.00  0.00    +0.097 C 
ATOM     13  C   UNL     1     -12.066  12.032  64.184  0.00  0.00    +0.248 C 
ATOM     14  O   UNL     1     -13.059  12.213  63.437  0.00  0.00    -0.273 OA
ENDBRANCH   1  13
TORSDOF 2
ENDMDL
MODEL 4
REMARK VINA RESULT:      -5.3      2.930      3.229
REMARK  Name = 
REMARK  2 active torsions:
REMARK  status: ('A' for Active; 'I' for Inactive)
REMARK    1  A    between atoms: C_2  and  N_4
REMARK    2  A    between atoms: C_7  and  S_8
REMARK                            x       y       z     vdW  Elec       q    Type
REMARK                         _______ _______ _______ _____ _____    ______ ____
ROOT
ATOM      1  N   UNL     1     -11.637  13.818  70.120  0.00  0.00    -0.154 NA
ATOM      2  C   UNL     1     -11.825  13.452  68.884  0.00  0.00    +0.186 A 
ATOM      3  N   UNL     1     -11.462  12.272  68.319  0.00  0.00    -0.227 N 
ATOM      4  C   UNL     1     -11.182  11.116  69.172  0.00  0.00    +0.156 C 
ATOM      5  N   UNL     1     -12.076  12.101  67.156  0.00  0.00    -0.140 NA
ATOM      6  C   UNL     1     -11.830  13.140  66.320  0.00  0.00    +0.257 A 
ATOM      7  S   UNL     1     -11.917  14.421  67.465  0.00  0.00    -0.011 S 
ENDROOT
BRANCH   6   8
ATOM      8  S   UNL     1     -12.094  13.223  64.582  0.00  0.00    +0.118 S 
ATOM      9  O   UNL     1     -13.113  12.234  64.129  0.00  0.00    -0.148 OA
ATOM     10  O   UNL     1     -10.762  12.902  63.944  0.00  0.00    -0.148 OA
ATOM     11  N   UNL     1     -12.488  14.842  64.094  0.00  0.00    +0.041 NA
ENDBRANCH   6   8
BRANCH   1  13
ATOM     12  C   UNL     1     -13.427  15.295  71.063  0.00  0.00    +0.097 C 
ATOM     13  C   UNL     1     -12.091  15.133  70.443  0.00  0.00    +0.248 C 
ATOM     14  O   UNL     1     -11.337  16.131  70.330  0.00  0.00    -0.273 OA
ENDBRANCH   1  13
TORSDOF 2
ENDMDL
MODEL 5
REMARK VINA RESULT:      -5.2      3.297      5.039
REMARK  Name = 
REMARK  2 active torsions:
REMARK  status: ('A' for Active; 'I' for Inactive)
REMARK    1  A    between atoms: C_2  and  N_4
REMARK    2  A    between atoms: C_7  and  S_8
REMARK                            x       y       z     vdW  Elec       q    Type
REMARK                         _______ _______ _______ _____ _____    ______ ____
ROOT
ATOM      1  N   UNL     1      -9.817  17.820  67.606  0.00  0.00    -0.154 NA
ATOM      2  C   UNL     1     -10.452  16.717  67.329  0.00  0.00    +0.186 A 
ATOM      3  N   UNL     1     -10.834  15.754  68.206  0.00  0.00    -0.227 N 
ATOM      4  C   UNL     1     -10.929  16.069  69.633  0.00  0.00    +0.156 C 
ATOM      5  N   UNL     1     -11.720  14.939  67.650  0.00  0.00    -0.140 NA
ATOM      6  C   UNL     1     -11.230  14.394  66.509  0.00  0.00    +0.257 A 
ATOM      7  S   UNL     1     -10.423  15.780  65.885  0.00  0.00    -0.011 S 
ENDROOT
BRANCH   6   8
ATOM      8  S   UNL     1     -11.841  13.006  65.618  0.00  0.00    +0.118 S 
ATOM      9  O   UNL     1     -13.142  13.303  64.954  0.00  0.00    -0.148 OA
ATOM     10  O   UNL     1     -12.036  11.909  66.640  0.00  0.00    -0.148 OA
ATOM     11  N   UNL     1     -10.651  12.419  64.497  0.00  0.00    +0.041 NA
ENDBRANCH   6   8
BRANCH   1  13
ATOM     12  C   UNL     1     -10.473  19.696  66.080  0.00  0.00    +0.097 C 
ATOM     13  C   UNL     1      -9.508  18.646  66.482  0.00  0.00    +0.248 C 
ATOM     14  O   UNL     1      -8.390  18.583  65.913  0.00  0.00    -0.273 OA
ENDBRANCH   1  13
TORSDOF 2
ENDMDL
MODEL 6
REMARK VINA RESULT:      -5.2      3.460      3.976
REMARK  Name = 
REMARK  2 active torsions:
REMARK  status: ('A' for Active; 'I' for Inactive)
REMARK    1  A    between atoms: C_2  and  N_4
REMARK    2  A    between atoms: C_7  and  S_8
REMARK                            x       y       z     vdW  Elec       q    Type
REMARK                         _______ _______ _______ _____ _____    ______ ____
ROOT
ATOM      1  N   UNL     1     -12.347  16.329  71.369  0.00  0.00    -0.154 NA
ATOM      2  C   UNL     1     -11.918  15.414  70.548  0.00  0.00    +0.186 A 
ATOM      3  N   UNL     1     -11.231  15.611  69.394  0.00  0.00    -0.227 N 
ATOM      4  C   UNL     1     -10.540  16.882  69.170  0.00  0.00    +0.156 C 
ATOM      5  N   UNL     1     -10.683  14.479  68.976  0.00  0.00    -0.140 NA
ATOM      6  C   UNL     1     -11.621  13.511  68.827  0.00  0.00    +0.257 A 
ATOM      7  S   UNL     1     -12.575  13.857  70.215  0.00  0.00    -0.011 S 
ENDROOT
BRANCH   6   8
ATOM      8  S   UNL     1     -11.478  11.982  67.967  0.00  0.00    +0.118 S 
ATOM      9  O   UNL     1     -12.213  10.886  68.660  0.00  0.00    -0.148 OA
ATOM     10  O   UNL     1     -10.002  11.658  67.937  0.00  0.00    -0.148 OA
ATOM     11  N   UNL     1     -11.970  12.157  66.310  0.00  0.00    +0.041 NA
ENDBRANCH   6   8
BRANCH   1  13
ATOM     12  C   UNL     1     -12.322  15.343  73.673  0.00  0.00    +0.097 C 
ATOM     13  C   UNL     1     -13.075  15.844  72.499  0.00  0.00    +0.248 C 
ATOM     14  O   UNL     1     -14.325  15.949  72.565  0.00  0.00    -0.273 OA
ENDBRANCH   1  13
TORSDOF 2
ENDMDL
MODEL 7
REMARK VINA RESULT:      -5.2      2.962      5.521
REMARK  Name = 
REMARK  2 active torsions:
REMARK  status: ('A' for Active; 'I' for Inactive)
REMARK    1  A    between atoms: C_2  and  N_4
REMARK    2  A    between atoms: C_7  and  S_8
REMARK                            x       y       z     vdW  Elec       q    Type
REMARK                         _______ _______ _______ _____ _____    ______ ____
ROOT
ATOM      1  N   UNL     1     -11.136  14.892  66.100  0.00  0.00    -0.154 NA
ATOM      2  C   UNL     1     -11.506  15.115  67.328  0.00  0.00    +0.186 A 
ATOM      3  N   UNL     1     -11.075  16.115  68.140  0.00  0.00    -0.227 N 
ATOM      4  C   UNL     1     -10.445  17.301  67.557  0.00  0.00    +0.156 C 
ATOM      5  N   UNL     1     -11.872  16.240  69.192  0.00  0.00    -0.140 NA
ATOM      6  C   UNL     1     -11.971  15.070  69.869  0.00  0.00    +0.257 A 
ATOM      7  S   UNL     1     -12.036  13.997  68.525  0.00  0.00    -0.011 S 
ENDROOT
BRANCH   6   8
ATOM      8  S   UNL     1     -12.587  14.803  71.496  0.00  0.00    +0.118 S 
ATOM      9  O   UNL     1     -11.581  15.166  72.534  0.00  0.00    -0.148 OA
ATOM     10  O   UNL     1     -12.895  13.326  71.586  0.00  0.00    -0.148 OA
ATOM     11  N   UNL     1     -14.097  15.629  71.728  0.00  0.00    +0.041 NA
ENDBRANCH   6   8
BRANCH   1  13
ATOM     12  C   UNL     1     -10.912  12.514  65.340  0.00  0.00    +0.097 C 
ATOM     13  C   UNL     1     -11.725  13.745  65.484  0.00  0.00    +0.248 C 
ATOM     14  O   UNL     1     -12.944  13.720  65.181  0.00  0.00    -0.273 OA
ENDBRANCH   1  13
TORSDOF 2
ENDMDL
MODEL 8
REMARK VINA RESULT:      -5.1      2.420      3.403
REMARK  Name = 
REMARK  2 active torsions:
REMARK  status: ('A' for Active; 'I' for Inactive)
REMARK    1  A    between atoms: C_2  and  N_4
REMARK    2  A    between atoms: C_7  and  S_8
REMARK                            x       y       z     vdW  Elec       q    Type
REMARK                         _______ _______ _______ _____ _____    ______ ____
ROOT
ATOM      1  N   UNL     1     -11.991  13.244  68.992  0.00  0.00    -0.154 NA
ATOM      2  C   UNL     1     -11.567  14.461  68.804  0.00  0.00    +0.186 A 
ATOM      3  N   UNL     1     -11.989  15.579  69.449  0.00  0.00    -0.227 N 
ATOM      4  C   UNL     1     -12.686  15.458  70.731  0.00  0.00    +0.156 C 
ATOM      5  N   UNL     1     -11.144  16.581  69.249  0.00  0.00    -0.140 NA
ATOM      6  C   UNL     1     -10.973  16.816  67.925  0.00  0.00    +0.257 A 
ATOM      7  S   UNL     1     -10.942  15.187  67.374  0.00  0.00    -0.011 S 
ENDROOT
BRANCH   6   8
ATOM      8  S   UNL     1     -10.268  18.232  67.154  0.00  0.00    +0.118 S 
ATOM      9  O   UNL     1     -11.050  19.467  67.443  0.00  0.00    -0.148 OA
ATOM     10  O   UNL     1     -10.296  17.953  65.668  0.00  0.00    -0.148 OA
ATOM     11  N   UNL     1      -8.593  18.400  67.584  0.00  0.00    +0.041 NA
ENDBRANCH   6   8
BRANCH   1  13
ATOM     12  C   UNL     1     -10.063  11.717  68.510  0.00  0.00    +0.097 C 
ATOM     13  C   UNL     1     -11.397  12.254  68.150  0.00  0.00    +0.248 C 
ATOM     14  O   UNL     1     -12.030  11.745  67.193  0.00  0.00    -0.273 OA
ENDBRANCH   1  13
TORSDOF 2
ENDMDL
MODEL 9
REMARK VINA RESULT:      -5.1      2.038      2.376
REMARK  Name = 
REMARK  2 active torsions:
REMARK  status: ('A' for Active; 'I' for Inactive)
REMARK    1  A    between atoms: C_2  and  N_4
REMARK    2  A    between atoms: C_7  and  S_8
REMARK                            x       y       z     vdW  Elec       q    Type
REMARK                         _______ _______ _______ _____ _____    ______ ____
ROOT
ATOM      1  N   UNL     1     -12.967  14.088  72.288  0.00  0.00    -0.154 NA
ATOM      2  C   UNL     1     -12.532  14.221  71.068  0.00  0.00    +0.186 A 
ATOM      3  N   UNL     1     -12.039  13.241  70.268  0.00  0.00    -0.227 N 
ATOM      4  C   UNL     1     -12.338  11.840  70.569  0.00  0.00    +0.156 C 
ATOM      5  N   UNL     1     -11.986  13.649  69.007  0.00  0.00    -0.140 NA
ATOM      6  C   UNL     1     -11.256  14.786  68.895  0.00  0.00    +0.257 A 
ATOM      7  S   UNL     1     -11.798  15.585  70.318  0.00  0.00    -0.011 S 
ENDROOT
BRANCH   6   8
ATOM      8  S   UNL     1     -10.587  15.508  67.436  0.00  0.00    +0.118 S 
ATOM      9  O   UNL     1     -11.312  15.059  66.214  0.00  0.00    -0.148 OA
ATOM     10  O   UNL     1      -9.149  15.050  67.367  0.00  0.00    -0.148 OA
ATOM     11  N   UNL     1     -10.539  17.239  67.571  0.00  0.00    +0.041 NA
ENDBRANCH   6   8
BRANCH   1  13
ATOM     12  C   UNL     1     -12.589  15.862  74.018  0.00  0.00    +0.097 C 
ATOM     13  C   UNL     1     -13.403  15.296  72.916  0.00  0.00    +0.248 C 
ATOM     14  O   UNL     1     -14.382  15.945  72.474  0.00  0.00    -0.273 OA
ENDBRANCH   1  13
TORSDOF 2
ENDMDL
