MODEL 1
REMARK VINA RESULT:      -6.3      0.000      0.000
REMARK  Name = 
REMARK  5 active torsions:
REMARK  status: ('A' for Active; 'I' for Inactive)
REMARK    1  A    between atoms: C_2  and  N_5
REMARK    2  A    between atoms: N_5  and  C_6
REMARK    3  A    between atoms: C_6  and  C_7
REMARK    4  A    between atoms: C_7  and  C_9
REMARK    5  A    between atoms: C_14  and  C_15
REMARK                            x       y       z     vdW  Elec       q    Type
REMARK                         _______ _______ _______ _____ _____    ______ ____
ROOT
ATOM      1  C   UNL     1     -10.880  14.533  68.495  0.00  0.00    +0.009 A 
ATOM      2  C   UNL     1     -10.516  15.249  67.356  0.00  0.00    -0.000 A 
ATOM      3  C   UNL     1     -11.052  14.985  66.101  0.00  0.00    +0.049 A 
ATOM      4  C   UNL     1     -12.009  13.989  65.976  0.00  0.00    +0.194 A 
ATOM      5  O   UNL     1     -12.891  13.923  64.893  0.00  0.00    -0.287 OA
ATOM      6  C   UNL     1     -12.088  13.104  67.045  0.00  0.00    +0.042 A 
ATOM      7  C   UNL     1     -11.912  13.666  68.302  0.00  0.00    +0.001 A 
ENDROOT
BRANCH   1   8
ATOM      8  C   UNL     1     -11.049  15.605  69.714  0.00  0.00    +0.192 C 
ATOM      9  O   UNL     1     -11.718  16.706  68.887  0.00  0.00    -0.217 OA
BRANCH   8  10
ATOM     10  C   UNL     1     -12.517  14.984  70.158  0.00  0.00    +0.126 C 
BRANCH  10  11
ATOM     11  N   UNL     1     -12.869  15.856  71.239  0.00  0.00    -0.218 NA
BRANCH  11  13
ATOM     12  C   UNL     1     -13.868  15.562  72.474  0.00  0.00    +0.017 C 
ATOM     13  C   UNL     1     -13.366  15.294  72.408  0.00  0.00    +0.060 C 
ATOM     14  C   UNL     1     -12.715  15.636  73.693  0.00  0.00    +0.017 C 
ATOM     15  C   UNL     1     -13.706  13.823  72.345  0.00  0.00    +0.017 C 
ENDBRANCH  11  13
ENDBRANCH  10  11
ENDBRANCH   8  10
ENDBRANCH   1   8
BRANCH   3  16
ATOM     16  C   UNL     1     -10.617  15.665  64.861  0.00  0.00    +0.212 C 
ATOM     17  O   UNL     1     -11.336  16.803  64.563  0.00  0.00    -0.215 OA
ENDBRANCH   3  16
TORSDOF 5
ENDMDL
MODEL 2
REMARK VINA RESULT:      -6.0      1.598      2.562
REMARK  Name = 
REMARK  5 active torsions:
REMARK  status: ('A' for Active; 'I' for Inactive)
REMARK    1  A    between atoms: C_2  and  N_5
REMARK    2  A    between atoms: N_5  and  C_6
REMARK    3  A    between atoms: C_6  and  C_7
REMARK    4  A    between atoms: C_7  and  C_9
REMARK    5  A    between atoms: C_14  and  C_15
REMARK                            x       y       z     vdW  Elec       q    Type
REMARK                         _______ _______ _______ _____ _____    ______ ____
ROOT
ATOM      1  C   UNL     1     -11.309  16.272  68.734  0.00  0.00    +0.009 A 
ATOM      2  C   UNL     1     -11.345  15.741  67.446  0.00  0.00    -0.000 A 
ATOM      3  C   UNL     1     -10.612  16.278  66.393  0.00  0.00    +0.049 A 
ATOM      4  C   UNL     1      -9.789  17.369  66.636  0.00  0.00    +0.194 A 
ATOM      5  O   UNL     1      -8.729  17.714  65.793  0.00  0.00    -0.287 OA
ATOM      6  C   UNL     1     -10.040  18.049  67.821  0.00  0.00    +0.042 A 
ATOM      7  C   UNL     1     -10.384  17.255  68.907  0.00  0.00    +0.001 A 
ENDROOT
BRANCH   1   8
ATOM      8  C   UNL     1     -11.243  15.019  69.778  0.00  0.00    +0.192 C 
ATOM      9  O   UNL     1      -9.741  15.107  70.062  0.00  0.00    -0.217 OA
BRANCH   8  10
ATOM     10  C   UNL     1     -11.592  15.983  71.076  0.00  0.00    +0.126 C 
BRANCH  10  11
ATOM     11  N   UNL     1     -13.005  15.779  71.198  0.00  0.00    -0.218 NA
BRANCH  11  13
ATOM     12  C   UNL     1     -13.971  15.503  72.463  0.00  0.00    +0.017 C 
ATOM     13  C   UNL     1     -13.493  15.202  72.364  0.00  0.00    +0.060 C 
ATOM     14  C   UNL     1     -12.766  15.441  73.632  0.00  0.00    +0.017 C 
ATOM     15  C   UNL     1     -13.942  13.764  72.255  0.00  0.00    +0.017 C 
ENDBRANCH  11  13
ENDBRANCH  10  11
ENDBRANCH   8  10
ENDBRANCH   1   8
BRANCH   3  16
ATOM     16  C   UNL     1     -10.701  15.795  64.998  0.00  0.00    +0.212 C 
ATOM     17  O   UNL     1     -11.368  16.652  64.149  0.00  0.00    -0.215 OA
ENDBRANCH   3  16
TORSDOF 5
ENDMDL
MODEL 3
REMARK VINA RESULT:      -5.8      1.214      2.117
REMARK  Name = 
REMARK  5 active torsions:
REMARK  status: ('A' for Active; 'I' for Inactive)
REMARK    1  A    between atoms: C_2  and  N_5
REMARK    2  A    between atoms: N_5  and  C_6
REMARK    3  A    between atoms: C_6  and  C_7
REMARK    4  A    between atoms: C_7  and  C_9
REMARK    5  A    between atoms: C_14  and  C_15
REMARK                            x       y       z     vdW  Elec       q    Type
REMARK                         _______ _______ _______ _____ _____    ______ ____
ROOT
ATOM      1  C   UNL     1     -11.640  15.107  68.514  0.00  0.00    +0.009 A 
ATOM      2  C   UNL     1     -11.990  13.929  67.857  0.00  0.00    -0.000 A 
ATOM      3  C   UNL     1     -11.631  13.671  66.539  0.00  0.00    +0.049 A 
ATOM      4  C   UNL     1     -10.869  14.608  65.855  0.00  0.00    +0.194 A 
ATOM      5  O   UNL     1     -10.120  14.285  64.720  0.00  0.00    -0.287 OA
ATOM      6  C   UNL     1     -10.834  15.875  66.425  0.00  0.00    +0.042 A 
ATOM      7  C   UNL     1     -10.790  15.907  67.813  0.00  0.00    +0.001 A 
ENDROOT
BRANCH   1   8
ATOM      8  C   UNL     1     -11.177  14.704  70.027  0.00  0.00    +0.192 C 
ATOM      9  O   UNL     1      -9.802  15.373  69.974  0.00  0.00    -0.217 OA
BRANCH   8  10
ATOM     10  C   UNL     1     -11.863  16.060  70.680  0.00  0.00    +0.126 C 
BRANCH  10  11
ATOM     11  N   UNL     1     -13.203  15.608  70.910  0.00  0.00    -0.218 NA
BRANCH  11  13
ATOM     12  C   UNL     1     -14.050  15.447  72.277  0.00  0.00    +0.017 C 
ATOM     13  C   UNL     1     -13.548  15.185  72.188  0.00  0.00    +0.060 C 
ATOM     14  C   UNL     1     -12.775  15.700  73.340  0.00  0.00    +0.017 C 
ATOM     15  C   UNL     1     -13.839  13.710  72.342  0.00  0.00    +0.017 C 
ENDBRANCH  11  13
ENDBRANCH  10  11
ENDBRANCH   8  10
ENDBRANCH   1   8
BRANCH   3  16
ATOM     16  C   UNL     1     -12.066  12.474  65.787  0.00  0.00    +0.212 C 
ATOM     17  O   UNL     1     -13.101  12.711  64.907  0.00  0.00    -0.215 OA
ENDBRANCH   3  16
TORSDOF 5
ENDMDL
MODEL 4
REMARK VINA RESULT:      -5.8      2.523      4.156
REMARK  Name = 
REMARK  5 active torsions:
REMARK  status: ('A' for Active; 'I' for Inactive)
REMARK    1  A    between atoms: C_2  and  N_5
REMARK    2  A    between atoms: N_5  and  C_6
REMARK    3  A    between atoms: C_6  and  C_7
REMARK    4  A    between atoms: C_7  and  C_9
REMARK    5  A    between atoms: C_14  and  C_15
REMARK                            x       y       z     vdW  Elec       q    Type
REMARK                         _______ _______ _______ _____ _____    ______ ____
ROOT
ATOM      1  C   UNL     1     -10.985  14.903  68.094  0.00  0.00    +0.009 A 
ATOM      2  C   UNL     1     -10.916  15.466  66.821  0.00  0.00    -0.000 A 
ATOM      3  C   UNL     1     -11.464  14.853  65.699  0.00  0.00    +0.049 A 
ATOM      4  C   UNL     1     -12.131  13.647  65.852  0.00  0.00    +0.194 A 
ATOM      5  O   UNL     1     -13.050  13.170  64.912  0.00  0.00    -0.287 OA
ATOM      6  C   UNL     1     -11.887  12.981  67.047  0.00  0.00    +0.042 A 
ATOM      7  C   UNL     1     -11.764  13.789  68.170  0.00  0.00    +0.001 A 
ENDROOT
BRANCH   1   8
ATOM      8  C   UNL     1     -11.331  16.105  69.142  0.00  0.00    +0.192 C 
ATOM      9  O   UNL     1     -10.512  15.557  70.313  0.00  0.00    -0.217 OA
BRANCH   8  10
ATOM     10  C   UNL     1     -10.058  17.026  68.624  0.00  0.00    +0.126 C 
BRANCH  10  11
ATOM     11  N   UNL     1     -10.711  18.271  68.350  0.00  0.00    -0.218 NA
BRANCH  11  13
ATOM     12  C   UNL     1     -10.137  19.725  67.945  0.00  0.00    +0.017 C 
ATOM     13  C   UNL     1     -10.011  19.248  67.655  0.00  0.00    +0.060 C 
ATOM     14  C   UNL     1     -10.478  19.631  66.303  0.00  0.00    +0.017 C 
ATOM     15  C   UNL     1      -8.504  19.143  67.701  0.00  0.00    +0.017 C 
ENDBRANCH  11  13
ENDBRANCH  10  11
ENDBRANCH   8  10
ENDBRANCH   1   8
BRANCH   3  16
ATOM     16  C   UNL     1     -11.326  15.381  64.324  0.00  0.00    +0.212 C 
ATOM     17  O   UNL     1     -11.386  16.756  64.242  0.00  0.00    -0.215 OA
ENDBRANCH   3  16
TORSDOF 5
ENDMDL
MODEL 5
REMARK VINA RESULT:      -5.8      3.090      5.406
REMARK  Name = 
REMARK  5 active torsions:
REMARK  status: ('A' for Active; 'I' for Inactive)
REMARK    1  A    between atoms: C_2  and  N_5
REMARK    2  A    between atoms: N_5  and  C_6
REMARK    3  A    between atoms: C_6  and  C_7
REMARK    4  A    between atoms: C_7  and  C_9
REMARK    5  A    between atoms: C_14  and  C_15
REMARK                            x       y       z     vdW  Elec       q    Type
REMARK                         _______ _______ _______ _____ _____    ______ ____
ROOT
ATOM      1  C   UNL     1     -11.540  14.894  65.595  0.00  0.00    +0.009 A 
ATOM      2  C   UNL     1     -11.389  14.742  66.973  0.00  0.00    -0.000 A 
ATOM      3  C   UNL     1     -11.540  13.517  67.612  0.00  0.00    +0.049 A 
ATOM      4  C   UNL     1     -11.825  12.393  66.851  0.00  0.00    +0.194 A 
ATOM      5  O   UNL     1     -11.589  11.093  67.309  0.00  0.00    -0.287 OA
ATOM      6  C   UNL     1     -12.286  12.648  65.565  0.00  0.00    +0.042 A 
ATOM      7  C   UNL     1     -11.692  13.724  64.918  0.00  0.00    +0.001 A 
ENDROOT
BRANCH   1   8
ATOM      8  C   UNL     1     -10.349  15.884  65.080  0.00  0.00    +0.192 C 
ATOM      9  O   UNL     1     -11.236  16.796  64.228  0.00  0.00    -0.217 OA
BRANCH   8  10
ATOM     10  C   UNL     1     -10.506  16.881  66.391  0.00  0.00    +0.126 C 
BRANCH  10  11
ATOM     11  N   UNL     1     -10.463  18.169  65.765  0.00  0.00    -0.218 NA
BRANCH  11  13
ATOM     12  C   UNL     1     -10.179  19.684  66.246  0.00  0.00    +0.017 C 
ATOM     13  C   UNL     1      -9.912  19.230  66.472  0.00  0.00    +0.060 C 
ATOM     14  C   UNL     1      -8.502  19.599  66.213  0.00  0.00    +0.017 C 
ATOM     15  C   UNL     1     -10.226  19.279  67.949  0.00  0.00    +0.017 C 
ENDBRANCH  11  13
ENDBRANCH  10  11
ENDBRANCH   8  10
ENDBRANCH   1   8
BRANCH   3  16
ATOM     16  C   UNL     1     -11.478  13.342  69.080  0.00  0.00    +0.212 C 
ATOM     17  O   UNL     1     -12.402  14.093  69.774  0.00  0.00    -0.215 OA
ENDBRANCH   3  16
TORSDOF 5
ENDMDL
MODEL 6
REMARK VINA RESULT:      -5.6      3.109      6.188
REMARK  Name = 
REMARK  5 active torsions:
REMARK  status: ('A' for Active; 'I' for Inactive)
REMARK    1  A    between atoms: C_2  and  N_5
REMARK    2  A    between atoms: N_5  and  C_6
REMARK    3  A    between atoms: C_6  and  C_7
REMARK    4  A    between atoms: C_7  and  C_9
REMARK    5  A    between atoms: C_14  and  C_15
REMARK                            x       y       z     vdW  Elec       q    Type
REMARK                         _______ _______ _______ _____ _____    ______ ____
ROOT
ATOM      1  C   UNL     1     -11.676  15.916  70.433  0.00  0.00    +0.009 A 
ATOM      2  C   UNL     1     -11.535  15.861  71.818  0.00  0.00    -0.000 A 
ATOM      3  C   UNL     1     -12.456  15.221  72.641  0.00  0.00    +0.049 A 
ATOM      4  C   UNL     1     -13.545  14.586  72.062  0.00  0.00    +0.194 A 
ATOM      5  O   UNL     1     -14.275  13.592  72.720  0.00  0.00    -0.287 OA
ATOM      6  C   UNL     1     -13.813  14.947  70.747  0.00  0.00    +0.042 A 
ATOM      7  C   UNL     1     -12.700  15.162  69.946  0.00  0.00    +0.001 A 
ENDROOT
BRANCH   1   8
ATOM      8  C   UNL     1     -10.203  15.651  69.781  0.00  0.00    +0.192 C 
ATOM      9  O   UNL     1     -10.566  14.358  69.048  0.00  0.00    -0.217 OA
BRANCH   8  10
ATOM     10  C   UNL     1     -10.549  16.560  68.443  0.00  0.00    +0.126 C 
BRANCH  10  11
ATOM     11  N   UNL     1     -10.403  17.886  68.965  0.00  0.00    -0.218 NA
BRANCH  11  13
ATOM     12  C   UNL     1      -9.849  19.325  68.484  0.00  0.00    +0.017 C 
ATOM     13  C   UNL     1      -9.864  18.866  68.141  0.00  0.00    +0.060 C 
ATOM     14  C   UNL     1     -10.691  19.396  67.033  0.00  0.00    +0.017 C 
ATOM     15  C   UNL     1      -8.435  18.651  67.699  0.00  0.00    +0.017 C 
ENDBRANCH  11  13
ENDBRANCH  10  11
ENDBRANCH   8  10
ENDBRANCH   1   8
BRANCH   3  16
ATOM     16  C   UNL     1     -12.383  15.226  74.118  0.00  0.00    +0.212 C 
ATOM     17  O   UNL     1     -12.492  16.480  74.681  0.00  0.00    -0.215 OA
ENDBRANCH   3  16
TORSDOF 5
ENDMDL
MODEL 7
REMARK VINA RESULT:      -5.6      3.719      4.797
REMARK  Name = 
REMARK  5 active torsions:
REMARK  status: ('A' for Active; 'I' for Inactive)
REMARK    1  A    between atoms: C_2  and  N_5
REMARK    2  A    between atoms: N_5  and  C_6
REMARK    3  A    between atoms: C_6  and  C_7
REMARK    4  A    between atoms: C_7  and  C_9
REMARK    5  A    between atoms: C_14  and  C_15
REMARK                            x       y       z     vdW  Elec       q    Type
REMARK                         _______ _______ _______ _____ _____    ______ ____
ROOT
ATOM      1  C   UNL     1     -10.187  14.699  66.321  0.00  0.00    +0.009 A 
ATOM      2  C   UNL     1      -9.974  13.935  65.175  0.00  0.00    -0.000 A 
ATOM      3  C   UNL     1     -10.934  13.069  64.662  0.00  0.00    +0.049 A 
ATOM      4  C   UNL     1     -12.164  12.980  65.295  0.00  0.00    +0.194 A 
ATOM      5  O   UNL     1     -13.306  12.488  64.657  0.00  0.00    -0.287 OA
ATOM      6  C   UNL     1     -12.205  13.491  66.587  0.00  0.00    +0.042 A 
ATOM      7  C   UNL     1     -11.460  14.643  66.800  0.00  0.00    +0.001 A 
ENDROOT
BRANCH   1   8
ATOM      8  C   UNL     1      -9.581  16.187  66.035  0.00  0.00    +0.192 C 
ATOM      9  O   UNL     1     -10.611  16.595  64.979  0.00  0.00    -0.217 OA
BRANCH   8  10
ATOM     10  C   UNL     1     -10.483  16.869  67.243  0.00  0.00    +0.126 C 
BRANCH  10  11
ATOM     11  N   UNL     1      -9.473  17.567  67.981  0.00  0.00    -0.218 NA
BRANCH  11  13
ATOM     12  C   UNL     1      -9.688  19.077  68.514  0.00  0.00    +0.017 C 
ATOM     13  C   UNL     1      -9.499  18.956  67.987  0.00  0.00    +0.060 C 
ATOM     14  C   UNL     1     -10.525  19.651  67.176  0.00  0.00    +0.017 C 
ATOM     15  C   UNL     1      -8.159  19.646  67.877  0.00  0.00    +0.017 C 
ENDBRANCH  11  13
ENDBRANCH  10  11
ENDBRANCH   8  10
ENDBRANCH   1   8
BRANCH   3  16
ATOM     16  C   UNL     1     -10.703  12.179  63.504  0.00  0.00    +0.212 C 
ATOM     17  O   UNL     1     -10.567  10.848  63.838  0.00  0.00    -0.215 OA
ENDBRANCH   3  16
TORSDOF 5
ENDMDL
MODEL 8
REMARK VINA RESULT:      -5.6      4.047      6.642
REMARK  Name = 
REMARK  5 active torsions:
REMARK  status: ('A' for Active; 'I' for Inactive)
REMARK    1  A    between atoms: C_2  and  N_5
REMARK    2  A    between atoms: N_5  and  C_6
REMARK    3  A    between atoms: C_6  and  C_7
REMARK    4  A    between atoms: C_7  and  C_9
REMARK    5  A    between atoms: C_14  and  C_15
REMARK                            x       y       z     vdW  Elec       q    Type
REMARK                         _______ _______ _______ _____ _____    ______ ____
ROOT
ATOM      1  C   UNL     1     -12.435  13.158  65.341  0.00  0.00    +0.009 A 
ATOM      2  C   UNL     1     -11.942  14.418  65.004  0.00  0.00    -0.000 A 
ATOM      3  C   UNL     1     -11.028  15.102  65.798  0.00  0.00    +0.049 A 
ATOM      4  C   UNL     1     -10.562  14.499  66.957  0.00  0.00    +0.194 A 
ATOM      5  O   UNL     1      -9.375  14.889  67.584  0.00  0.00    -0.287 OA
ATOM      6  C   UNL     1     -11.315  13.422  67.410  0.00  0.00    +0.042 A 
ATOM      7  C   UNL     1     -11.830  12.593  66.422  0.00  0.00    +0.001 A 
ENDROOT
BRANCH   1   8
ATOM      8  C   UNL     1     -12.465  12.264  63.975  0.00  0.00    +0.192 C 
ATOM      9  O   UNL     1     -12.579  13.439  63.000  0.00  0.00    -0.217 OA
BRANCH   8  10
ATOM     10  C   UNL     1     -10.816  12.261  63.850  0.00  0.00    +0.126 C 
BRANCH  10  11
ATOM     11  N   UNL     1     -10.570  10.898  63.486  0.00  0.00    -0.218 NA
BRANCH  11  13
ATOM     12  C   UNL     1      -9.176  10.619  64.253  0.00  0.00    +0.017 C 
ATOM     13  C   UNL     1      -9.560  10.208  64.145  0.00  0.00    +0.060 C 
ATOM     14  C   UNL     1      -8.724   9.263  63.372  0.00  0.00    +0.017 C 
ATOM     15  C   UNL     1      -9.921   9.636  65.497  0.00  0.00    +0.017 C 
ENDBRANCH  11  13
ENDBRANCH  10  11
ENDBRANCH   8  10
ENDBRANCH   1   8
BRANCH   3  16
ATOM     16  C   UNL     1     -10.560  16.476  65.515  0.00  0.00    +0.212 C 
ATOM     17  O   UNL     1     -11.175  17.066  64.431  0.00  0.00    -0.215 OA
ENDBRANCH   3  16
TORSDOF 5
ENDMDL
MODEL 9
REMARK VINA RESULT:      -5.6      1.947      2.881
REMARK  Name = 
REMARK  5 active torsions:
REMARK  status: ('A' for Active; 'I' for Inactive)
REMARK    1  A    between atoms: C_2  and  N_5
REMARK    2  A    between atoms: N_5  and  C_6
REMARK    3  A    between atoms: C_6  and  C_7
REMARK    4  A    between atoms: C_7  and  C_9
REMARK    5  A    between atoms: C_14  and  C_15
REMARK                            x       y       z     vdW  Elec       q    Type
REMARK                         _______ _______ _______ _____ _____    ______ ____
ROOT
ATOM      1  C   UNL     1     -11.968  14.066  68.204  0.00  0.00    +0.009 A 
ATOM      2  C   UNL     1     -11.601  12.752  68.490  0.00  0.00    -0.000 A 
ATOM      3  C   UNL     1     -11.398  11.798  67.499  0.00  0.00    +0.049 A 
ATOM      4  C   UNL     1     -11.536  12.171  66.170  0.00  0.00    +0.194 A 
ATOM      5  O   UNL     1     -10.967  11.443  65.121  0.00  0.00    -0.287 OA
ATOM      6  C   UNL     1     -12.212  13.366  65.956  0.00  0.00    +0.042 A 
ATOM      7  C   UNL     1     -11.957  14.372  66.878  0.00  0.00    +0.001 A 
ENDROOT
BRANCH   1   8
ATOM      8  C   UNL     1     -11.099  15.040  69.184  0.00  0.00    +0.192 C 
ATOM      9  O   UNL     1     -12.098  16.199  69.210  0.00  0.00    -0.217 OA
BRANCH   8  10
ATOM     10  C   UNL     1     -11.758  14.381  70.550  0.00  0.00    +0.126 C 
BRANCH  10  11
ATOM     11  N   UNL     1     -12.924  15.197  70.715  0.00  0.00    -0.218 NA
BRANCH  11  13
ATOM     12  C   UNL     1     -14.249  15.138  71.637  0.00  0.00    +0.017 C 
ATOM     13  C   UNL     1     -13.731  14.981  71.825  0.00  0.00    +0.060 C 
ATOM     14  C   UNL     1     -13.591  15.885  72.990  0.00  0.00    +0.017 C 
ATOM     15  C   UNL     1     -13.885  13.544  72.265  0.00  0.00    +0.017 C 
ENDBRANCH  11  13
ENDBRANCH  10  11
ENDBRANCH   8  10
ENDBRANCH   1   8
BRANCH   3  16
ATOM     16  C   UNL     1     -11.100  10.376  67.776  0.00  0.00    +0.212 C 
ATOM     17  O   UNL     1      -9.758  10.106  67.940  0.00  0.00    -0.215 OA
ENDBRANCH   3  16
TORSDOF 5
ENDMDL
