MODEL 1
REMARK VINA RESULT:      -6.4      0.000      0.000
REMARK  Name = 
REMARK  6 active torsions:
REMARK  status: ('A' for Active; 'I' for Inactive)
REMARK    1  A    between atoms: C_2  and  C_3
REMARK    2  A    between atoms: N_5  and  C_6
REMARK    3  A    between atoms: N_5  and  C_12
REMARK    4  A    between atoms: N_15  and  C_16
REMARK    5  A    between atoms: C_16  and  C_17
REMARK    6  A    between atoms: C_17  and  C_18
REMARK                            x       y       z     vdW  Elec       q    Type
REMARK                         _______ _______ _______ _____ _____    ______ ____
ROOT
ATOM      1  C   UNL     1      -9.927  13.792  66.163  0.00  0.00    +0.083 C 
ATOM      2  C   UNL     1      -9.049  13.549  67.372  0.00  0.00    +0.038 C 
ATOM      3  C   UNL     1      -7.796  14.371  67.184  0.00  0.00    +0.074 C 
ATOM      4  N   UNL     1      -8.222  15.753  67.010  0.00  0.00    -0.272 NA
ATOM      5  C   UNL     1      -9.628  15.937  67.265  0.00  0.00    +0.074 C 
ATOM      6  C   UNL     1     -10.438  15.216  66.227  0.00  0.00    +0.038 C 
ENDROOT
BRANCH   1   8
ATOM      7  C   UNL     1     -11.722  12.640  64.958  0.00  0.00    +0.229 C 
ATOM      8  N   UNL     1     -11.004  12.829  66.182  0.00  0.00    -0.260 N 
ATOM      9  O   UNL     1     -12.860  13.161  64.886  0.00  0.00    -0.275 OA
BRANCH   8  10
ATOM     10  C   UNL     1     -11.679  12.481  67.397  0.00  0.00    +0.054 A 
ATOM     11  C   UNL     1     -11.619  11.212  67.933  0.00  0.00    +0.015 A 
ATOM     12  C   UNL     1     -11.816  11.036  69.290  0.00  0.00    +0.001 A 
ATOM     13  C   UNL     1     -11.802  12.110  70.164  0.00  0.00    +0.000 A 
ATOM     14  C   UNL     1     -12.042  13.357  69.616  0.00  0.00    +0.001 A 
ATOM     15  C   UNL     1     -12.102  13.503  68.236  0.00  0.00    +0.015 A 
ENDBRANCH   8  10
BRANCH   7  17
ATOM     16  C   UNL     1     -10.370  10.989  63.715  0.00  0.00    +0.010 C 
ATOM     17  C   UNL     1     -10.896  12.416  63.740  0.00  0.00    +0.086 C 
ENDBRANCH   7  17
ENDBRANCH   1   8
BRANCH   4  18
ATOM     18  C   UNL     1      -7.512  16.514  68.036  0.00  0.00    +0.077 C 
BRANCH  18  19
ATOM     19  C   UNL     1      -6.903  17.702  67.348  0.00  0.00    +0.044 C 
BRANCH  19  20
ATOM     20  C   UNL     1      -7.848  18.862  67.351  0.00  0.00    -0.021 A 
ATOM     21  C   UNL     1      -8.468  19.321  66.210  0.00  0.00    -0.004 A 
ATOM     22  C   UNL     1      -9.798  19.718  66.242  0.00  0.00    -0.000 A 
ATOM     23  C   UNL     1     -10.527  19.707  67.425  0.00  0.00    -0.000 A 
ATOM     24  C   UNL     1      -9.784  19.630  68.594  0.00  0.00    -0.000 A 
ATOM     25  C   UNL     1      -8.532  19.066  68.543  0.00  0.00    -0.004 A 
ENDBRANCH  19  20
ENDBRANCH  18  19
ENDBRANCH   4  18
TORSDOF 6
ENDMDL
MODEL 2
REMARK VINA RESULT:      -6.4      2.629      7.681
REMARK  Name = 
REMARK  6 active torsions:
REMARK  status: ('A' for Active; 'I' for Inactive)
REMARK    1  A    between atoms: C_2  and  C_3
REMARK    2  A    between atoms: N_5  and  C_6
REMARK    3  A    between atoms: N_5  and  C_12
REMARK    4  A    between atoms: N_15  and  C_16
REMARK    5  A    between atoms: C_16  and  C_17
REMARK    6  A    between atoms: C_17  and  C_18
REMARK                            x       y       z     vdW  Elec       q    Type
REMARK                         _______ _______ _______ _____ _____    ______ ____
ROOT
ATOM      1  C   UNL     1     -11.359  12.273  67.246  0.00  0.00    +0.083 C 
ATOM      2  C   UNL     1     -11.350  12.656  68.710  0.00  0.00    +0.038 C 
ATOM      3  C   UNL     1     -11.892  11.476  69.482  0.00  0.00    +0.074 C 
ATOM      4  N   UNL     1     -11.054  10.334  69.146  0.00  0.00    -0.272 NA
ATOM      5  C   UNL     1      -9.892  10.703  68.379  0.00  0.00    +0.074 C 
ATOM      6  C   UNL     1     -10.307  11.207  67.028  0.00  0.00    +0.038 C 
ENDROOT
BRANCH   1   8
ATOM      7  C   UNL     1     -11.320  13.364  65.052  0.00  0.00    +0.229 C 
ATOM      8  N   UNL     1     -11.098  13.460  66.463  0.00  0.00    -0.260 N 
ATOM      9  O   UNL     1     -10.301  13.270  64.327  0.00  0.00    -0.275 OA
BRANCH   8  10
ATOM     10  C   UNL     1     -10.193  14.474  66.916  0.00  0.00    +0.054 A 
ATOM     11  C   UNL     1      -8.832  14.265  66.992  0.00  0.00    +0.015 A 
ATOM     12  C   UNL     1      -7.973  15.345  66.923  0.00  0.00    +0.001 A 
ATOM     13  C   UNL     1      -8.414  16.591  66.512  0.00  0.00    +0.000 A 
ATOM     14  C   UNL     1      -9.772  16.831  66.615  0.00  0.00    +0.001 A 
ATOM     15  C   UNL     1     -10.634  15.791  66.941  0.00  0.00    +0.015 A 
ENDBRANCH   8  10
BRANCH   7  17
ATOM     16  C   UNL     1     -12.433  11.876  63.425  0.00  0.00    +0.010 C 
ATOM     17  C   UNL     1     -12.625  12.785  64.630  0.00  0.00    +0.086 C 
ENDBRANCH   7  17
ENDBRANCH   1   8
BRANCH   4  18
ATOM     18  C   UNL     1     -10.561   9.822  70.423  0.00  0.00    +0.077 C 
BRANCH  18  19
ATOM     19  C   UNL     1     -10.897   8.358  70.460  0.00  0.00    +0.044 C 
BRANCH  19  20
ATOM     20  C   UNL     1     -11.994   8.088  71.441  0.00  0.00    -0.021 A 
ATOM     21  C   UNL     1     -12.589   9.082  72.186  0.00  0.00    -0.004 A 
ATOM     22  C   UNL     1     -13.961   9.076  72.401  0.00  0.00    -0.000 A 
ATOM     23  C   UNL     1     -14.765   8.052  71.913  0.00  0.00    -0.000 A 
ATOM     24  C   UNL     1     -14.104   6.894  71.529  0.00  0.00    -0.000 A 
ATOM     25  C   UNL     1     -12.785   6.981  71.155  0.00  0.00    -0.004 A 
ENDBRANCH  19  20
ENDBRANCH  18  19
ENDBRANCH   4  18
TORSDOF 6
ENDMDL
MODEL 3
REMARK VINA RESULT:      -6.4      1.555      3.389
REMARK  Name = 
REMARK  6 active torsions:
REMARK  status: ('A' for Active; 'I' for Inactive)
REMARK    1  A    between atoms: C_2  and  C_3
REMARK    2  A    between atoms: N_5  and  C_6
REMARK    3  A    between atoms: N_5  and  C_12
REMARK    4  A    between atoms: N_15  and  C_16
REMARK    5  A    between atoms: C_16  and  C_17
REMARK    6  A    between atoms: C_17  and  C_18
REMARK                            x       y       z     vdW  Elec       q    Type
REMARK                         _______ _______ _______ _____ _____    ______ ____
ROOT
ATOM      1  C   UNL     1     -10.203  13.296  68.424  0.00  0.00    +0.083 C 
ATOM      2  C   UNL     1     -10.471  14.771  68.214  0.00  0.00    +0.038 C 
ATOM      3  C   UNL     1      -9.749  15.515  69.313  0.00  0.00    +0.074 C 
ATOM      4  N   UNL     1      -8.346  15.133  69.227  0.00  0.00    -0.272 NA
ATOM      5  C   UNL     1      -8.052  14.360  68.047  0.00  0.00    +0.074 C 
ATOM      6  C   UNL     1      -8.745  13.031  68.117  0.00  0.00    +0.038 C 
ENDROOT
BRANCH   1   8
ATOM      7  C   UNL     1     -11.473  11.244  68.007  0.00  0.00    +0.229 C 
ATOM      8  N   UNL     1     -11.083  12.546  67.558  0.00  0.00    -0.260 N 
ATOM      9  O   UNL     1     -10.916  10.267  67.452  0.00  0.00    -0.275 OA
BRANCH   8  10
ATOM     10  C   UNL     1     -11.147  12.799  66.150  0.00  0.00    +0.054 A 
ATOM     11  C   UNL     1     -10.101  12.505  65.302  0.00  0.00    +0.015 A 
ATOM     12  C   UNL     1     -10.355  12.271  63.964  0.00  0.00    +0.001 A 
ATOM     13  C   UNL     1     -11.643  12.058  63.502  0.00  0.00    +0.000 A 
ATOM     14  C   UNL     1     -12.671  12.526  64.299  0.00  0.00    +0.001 A 
ATOM     15  C   UNL     1     -12.392  13.009  65.571  0.00  0.00    +0.015 A 
ENDBRANCH   8  10
BRANCH   7  17
ATOM     16  C   UNL     1     -11.163  10.142  70.196  0.00  0.00    +0.010 C 
ATOM     17  C   UNL     1     -11.979  11.154  69.405  0.00  0.00    +0.086 C 
ENDBRANCH   7  17
ENDBRANCH   1   8
BRANCH   4  18
ATOM     18  C   UNL     1      -7.606  16.387  69.095  0.00  0.00    +0.077 C 
BRANCH  18  19
ATOM     19  C   UNL     1      -7.421  16.626  67.623  0.00  0.00    +0.044 C 
BRANCH  19  20
ATOM     20  C   UNL     1      -8.198  17.824  67.177  0.00  0.00    -0.021 A 
ATOM     21  C   UNL     1      -9.167  17.762  66.199  0.00  0.00    -0.004 A 
ATOM     22  C   UNL     1     -10.349  18.479  66.332  0.00  0.00    -0.000 A 
ATOM     23  C   UNL     1     -10.572  19.309  67.424  0.00  0.00    -0.000 A 
ATOM     24  C   UNL     1      -9.449  19.655  68.161  0.00  0.00    -0.000 A 
ATOM     25  C   UNL     1      -8.360  18.817  68.135  0.00  0.00    -0.004 A 
ENDBRANCH  19  20
ENDBRANCH  18  19
ENDBRANCH   4  18
TORSDOF 6
ENDMDL
MODEL 4
REMARK VINA RESULT:      -6.3      1.571      2.311
REMARK  Name = 
REMARK  6 active torsions:
REMARK  status: ('A' for Active; 'I' for Inactive)
REMARK    1  A    between atoms: C_2  and  C_3
REMARK    2  A    between atoms: N_5  and  C_6
REMARK    3  A    between atoms: N_5  and  C_12
REMARK    4  A    between atoms: N_15  and  C_16
REMARK    5  A    between atoms: C_16  and  C_17
REMARK    6  A    between atoms: C_17  and  C_18
REMARK                            x       y       z     vdW  Elec       q    Type
REMARK                         _______ _______ _______ _____ _____    ______ ____
ROOT
ATOM      1  C   UNL     1      -9.965  14.436  66.321  0.00  0.00    +0.083 C 
ATOM      2  C   UNL     1      -9.107  14.524  67.564  0.00  0.00    +0.038 C 
ATOM      3  C   UNL     1      -7.743  15.005  67.130  0.00  0.00    +0.074 C 
ATOM      4  N   UNL     1      -7.944  16.271  66.438  0.00  0.00    -0.272 NA
ATOM      5  C   UNL     1      -9.294  16.759  66.554  0.00  0.00    +0.074 C 
ATOM      6  C   UNL     1     -10.237  15.842  65.831  0.00  0.00    +0.038 C 
ENDROOT
BRANCH   1   8
ATOM      7  C   UNL     1     -12.003  13.304  65.566  0.00  0.00    +0.229 C 
ATOM      8  N   UNL     1     -11.184  13.735  66.658  0.00  0.00    -0.260 N 
ATOM      9  O   UNL     1     -13.041  13.971  65.343  0.00  0.00    -0.275 OA
BRANCH   8  10
ATOM     10  C   UNL     1     -11.824  13.910  67.927  0.00  0.00    +0.054 A 
ATOM     11  C   UNL     1     -11.875  12.905  68.870  0.00  0.00    +0.015 A 
ATOM     12  C   UNL     1     -12.014  13.230  70.205  0.00  0.00    +0.001 A 
ATOM     13  C   UNL     1     -11.834  14.528  70.652  0.00  0.00    +0.000 A 
ATOM     14  C   UNL     1     -11.964  15.532  69.709  0.00  0.00    +0.001 A 
ATOM     15  C   UNL     1     -12.085  15.202  68.365  0.00  0.00    +0.015 A 
ENDBRANCH   8  10
BRANCH   7  17
ATOM     16  C   UNL     1     -12.313  12.102  63.430  0.00  0.00    +0.010 C 
ATOM     17  C   UNL     1     -11.308  12.567  64.474  0.00  0.00    +0.086 C 
ENDBRANCH   7  17
ENDBRANCH   1   8
BRANCH   4  18
ATOM     18  C   UNL     1      -7.094  17.236  67.132  0.00  0.00    +0.077 C 
BRANCH  18  19
ATOM     19  C   UNL     1      -7.982  17.990  68.080  0.00  0.00    +0.044 C 
BRANCH  19  20
ATOM     20  C   UNL     1      -7.472  19.380  68.296  0.00  0.00    -0.021 A 
ATOM     21  C   UNL     1      -6.648  19.717  69.347  0.00  0.00    -0.004 A 
ATOM     22  C   UNL     1      -5.588  20.594  69.157  0.00  0.00    -0.000 A 
ATOM     23  C   UNL     1      -5.353  21.188  67.923  0.00  0.00    -0.000 A 
ATOM     24  C   UNL     1      -6.406  21.146  67.021  0.00  0.00    -0.000 A 
ATOM     25  C   UNL     1      -7.341  20.148  67.145  0.00  0.00    -0.004 A 
ENDBRANCH  19  20
ENDBRANCH  18  19
ENDBRANCH   4  18
TORSDOF 6
ENDMDL
MODEL 5
REMARK VINA RESULT:      -6.3      2.430      7.485
REMARK  Name = 
REMARK  6 active torsions:
REMARK  status: ('A' for Active; 'I' for Inactive)
REMARK    1  A    between atoms: C_2  and  C_3
REMARK    2  A    between atoms: N_5  and  C_6
REMARK    3  A    between atoms: N_5  and  C_12
REMARK    4  A    between atoms: N_15  and  C_16
REMARK    5  A    between atoms: C_16  and  C_17
REMARK    6  A    between atoms: C_17  and  C_18
REMARK                            x       y       z     vdW  Elec       q    Type
REMARK                         _______ _______ _______ _____ _____    ______ ____
ROOT
ATOM      1  C   UNL     1     -10.058  13.754  67.248  0.00  0.00    +0.083 C 
ATOM      2  C   UNL     1     -10.270  12.257  67.187  0.00  0.00    +0.038 C 
ATOM      3  C   UNL     1     -10.203  11.741  68.605  0.00  0.00    +0.074 C 
ATOM      4  N   UNL     1     -11.210  12.468  69.366  0.00  0.00    -0.272 NA
ATOM      5  C   UNL     1     -12.064  13.272  68.530  0.00  0.00    +0.074 C 
ATOM      6  C   UNL     1     -11.272  14.380  67.899  0.00  0.00    +0.038 C 
ENDROOT
BRANCH   1   8
ATOM      7  C   UNL     1      -9.344  15.571  65.767  0.00  0.00    +0.229 C 
ATOM      8  N   UNL     1      -9.855  14.240  65.902  0.00  0.00    -0.260 N 
ATOM      9  O   UNL     1     -10.164  16.456  65.425  0.00  0.00    -0.275 OA
BRANCH   8  10
ATOM     10  C   UNL     1     -10.582  13.702  64.792  0.00  0.00    +0.054 A 
ATOM     11  C   UNL     1     -10.079  12.688  64.005  0.00  0.00    +0.015 A 
ATOM     12  C   UNL     1     -10.949  11.865  63.315  0.00  0.00    +0.001 A 
ATOM     13  C   UNL     1     -12.304  11.853  63.598  0.00  0.00    +0.000 A 
ATOM     14  C   UNL     1     -12.814  12.969  64.235  0.00  0.00    +0.001 A 
ATOM     15  C   UNL     1     -11.947  13.944  64.714  0.00  0.00    +0.015 A 
ENDBRANCH   8  10
BRANCH   7  17
ATOM     16  C   UNL     1      -8.412  17.135  67.435  0.00  0.00    +0.010 C 
ATOM     17  C   UNL     1      -8.146  15.902  66.585  0.00  0.00    +0.086 C 
ENDBRANCH   7  17
ENDBRANCH   1   8
BRANCH   4  18
ATOM     18  C   UNL     1     -12.063  11.444  69.966  0.00  0.00    +0.077 C 
BRANCH  18  19
ATOM     19  C   UNL     1     -11.170  10.285  70.308  0.00  0.00    +0.044 C 
BRANCH  19  20
ATOM     20  C   UNL     1     -11.860   9.338  71.238  0.00  0.00    -0.021 A 
ATOM     21  C   UNL     1     -13.031   9.655  71.892  0.00  0.00    -0.004 A 
ATOM     22  C   UNL     1     -14.040   8.711  72.029  0.00  0.00    -0.000 A 
ATOM     23  C   UNL     1     -13.884   7.414  71.555  0.00  0.00    -0.000 A 
ATOM     24  C   UNL     1     -12.583   7.023  71.275  0.00  0.00    -0.000 A 
ATOM     25  C   UNL     1     -11.656   7.990  70.971  0.00  0.00    -0.004 A 
ENDBRANCH  19  20
ENDBRANCH  18  19
ENDBRANCH   4  18
TORSDOF 6
ENDMDL
MODEL 6
REMARK VINA RESULT:      -6.3      2.097      3.151
REMARK  Name = 
REMARK  6 active torsions:
REMARK  status: ('A' for Active; 'I' for Inactive)
REMARK    1  A    between atoms: C_2  and  C_3
REMARK    2  A    between atoms: N_5  and  C_6
REMARK    3  A    between atoms: N_5  and  C_12
REMARK    4  A    between atoms: N_15  and  C_16
REMARK    5  A    between atoms: C_16  and  C_17
REMARK    6  A    between atoms: C_17  and  C_18
REMARK                            x       y       z     vdW  Elec       q    Type
REMARK                         _______ _______ _______ _____ _____    ______ ____
ROOT
ATOM      1  C   UNL     1      -9.742  15.667  66.166  0.00  0.00    +0.083 C 
ATOM      2  C   UNL     1      -8.494  15.846  67.001  0.00  0.00    +0.038 C 
ATOM      3  C   UNL     1      -7.548  16.716  66.207  0.00  0.00    +0.074 C 
ATOM      4  N   UNL     1      -8.263  17.950  65.908  0.00  0.00    -0.272 NA
ATOM      5  C   UNL     1      -9.520  18.045  66.605  0.00  0.00    +0.074 C 
ATOM      6  C   UNL     1     -10.467  16.994  66.105  0.00  0.00    +0.038 C 
ENDROOT
BRANCH   1   8
ATOM      7  C   UNL     1     -11.448  13.927  65.910  0.00  0.00    +0.229 C 
ATOM      8  N   UNL     1     -10.552  14.636  66.773  0.00  0.00    -0.260 N 
ATOM      9  O   UNL     1     -12.663  14.227  65.991  0.00  0.00    -0.275 OA
BRANCH   8  10
ATOM     10  C   UNL     1     -10.866  14.653  68.171  0.00  0.00    +0.054 A 
ATOM     11  C   UNL     1     -11.483  15.729  68.773  0.00  0.00    +0.015 A 
ATOM     12  C   UNL     1     -12.215  15.534  69.928  0.00  0.00    +0.001 A 
ATOM     13  C   UNL     1     -12.572  14.265  70.349  0.00  0.00    +0.000 A 
ATOM     14  C   UNL     1     -11.816  13.215  69.861  0.00  0.00    +0.001 A 
ATOM     15  C   UNL     1     -10.879  13.448  68.861  0.00  0.00    +0.015 A 
ENDBRANCH   8  10
BRANCH   7  17
ATOM     16  C   UNL     1     -11.970  13.011  63.677  0.00  0.00    +0.010 C 
ATOM     17  C   UNL     1     -10.864  13.400  64.646  0.00  0.00    +0.086 C 
ENDBRANCH   7  17
ENDBRANCH   1   8
BRANCH   4  18
ATOM     18  C   UNL     1      -7.420  19.026  66.425  0.00  0.00    +0.077 C 
BRANCH  18  19
ATOM     19  C   UNL     1      -7.714  19.136  67.895  0.00  0.00    +0.044 C 
BRANCH  19  20
ATOM     20  C   UNL     1      -6.448  19.213  68.687  0.00  0.00    -0.021 A 
ATOM     21  C   UNL     1      -5.986  20.386  69.243  0.00  0.00    -0.004 A 
ATOM     22  C   UNL     1      -5.426  20.391  70.514  0.00  0.00    -0.000 A 
ATOM     23  C   UNL     1      -5.272  19.216  71.240  0.00  0.00    -0.000 A 
ATOM     24  C   UNL     1      -5.368  18.038  70.514  0.00  0.00    -0.000 A 
ATOM     25  C   UNL     1      -6.087  18.043  69.343  0.00  0.00    -0.004 A 
ENDBRANCH  19  20
ENDBRANCH  18  19
ENDBRANCH   4  18
TORSDOF 6
ENDMDL
MODEL 7
REMARK VINA RESULT:      -6.3      3.753      7.475
REMARK  Name = 
REMARK  6 active torsions:
REMARK  status: ('A' for Active; 'I' for Inactive)
REMARK    1  A    between atoms: C_2  and  C_3
REMARK    2  A    between atoms: N_5  and  C_6
REMARK    3  A    between atoms: N_5  and  C_12
REMARK    4  A    between atoms: N_15  and  C_16
REMARK    5  A    between atoms: C_16  and  C_17
REMARK    6  A    between atoms: C_17  and  C_18
REMARK                            x       y       z     vdW  Elec       q    Type
REMARK                         _______ _______ _______ _____ _____    ______ ____
ROOT
ATOM      1  C   UNL     1      -8.025  17.955  67.262  0.00  0.00    +0.083 C 
ATOM      2  C   UNL     1      -9.161  18.579  68.042  0.00  0.00    +0.038 C 
ATOM      3  C   UNL     1     -10.440  17.943  67.550  0.00  0.00    +0.074 C 
ATOM      4  N   UNL     1     -10.293  16.506  67.732  0.00  0.00    -0.272 NA
ATOM      5  C   UNL     1      -9.113  16.160  68.483  0.00  0.00    +0.074 C 
ATOM      6  C   UNL     1      -7.883  16.514  67.700  0.00  0.00    +0.038 C 
ENDROOT
BRANCH   1   8
ATOM      7  C   UNL     1      -5.795  18.654  66.524  0.00  0.00    +0.229 C 
ATOM      8  N   UNL     1      -6.825  18.719  67.517  0.00  0.00    -0.260 N 
ATOM      9  O   UNL     1      -4.798  17.943  66.793  0.00  0.00    -0.275 OA
BRANCH   8  10
ATOM     10  C   UNL     1      -6.430  19.076  68.847  0.00  0.00    +0.054 A 
ATOM     11  C   UNL     1      -5.983  18.142  69.757  0.00  0.00    +0.015 A 
ATOM     12  C   UNL     1      -5.155  18.538  70.789  0.00  0.00    +0.001 A 
ATOM     13  C   UNL     1      -4.544  19.781  70.784  0.00  0.00    +0.000 A 
ATOM     14  C   UNL     1      -5.125  20.753  69.991  0.00  0.00    +0.001 A 
ATOM     15  C   UNL     1      -6.151  20.409  69.119  0.00  0.00    +0.015 A 
ENDBRANCH   8  10
BRANCH   7  17
ATOM     16  C   UNL     1      -6.329  20.374  64.834  0.00  0.00    +0.010 C 
ATOM     17  C   UNL     1      -6.223  18.883  65.117  0.00  0.00    +0.086 C 
ENDBRANCH   7  17
ENDBRANCH   1   8
BRANCH   4  18
ATOM     18  C   UNL     1     -11.436  16.096  68.545  0.00  0.00    +0.077 C 
BRANCH  18  19
ATOM     19  C   UNL     1     -10.944  15.992  69.961  0.00  0.00    +0.044 C 
BRANCH  19  20
ATOM     20  C   UNL     1     -12.087  15.829  70.912  0.00  0.00    -0.021 A 
ATOM     21  C   UNL     1     -13.015  14.818  70.797  0.00  0.00    -0.004 A 
ATOM     22  C   UNL     1     -13.485  14.160  71.926  0.00  0.00    -0.000 A 
ATOM     23  C   UNL     1     -13.071  14.528  73.201  0.00  0.00    -0.000 A 
ATOM     24  C   UNL     1     -12.471  15.775  73.306  0.00  0.00    -0.000 A 
ATOM     25  C   UNL     1     -11.863  16.309  72.197  0.00  0.00    -0.004 A 
ENDBRANCH  19  20
ENDBRANCH  18  19
ENDBRANCH   4  18
TORSDOF 6
ENDMDL
MODEL 8
REMARK VINA RESULT:      -6.2      3.985      8.025
REMARK  Name = 
REMARK  6 active torsions:
REMARK  status: ('A' for Active; 'I' for Inactive)
REMARK    1  A    between atoms: C_2  and  C_3
REMARK    2  A    between atoms: N_5  and  C_6
REMARK    3  A    between atoms: N_5  and  C_12
REMARK    4  A    between atoms: N_15  and  C_16
REMARK    5  A    between atoms: C_16  and  C_17
REMARK    6  A    between atoms: C_17  and  C_18
REMARK                            x       y       z     vdW  Elec       q    Type
REMARK                         _______ _______ _______ _____ _____    ______ ____
ROOT
ATOM      1  C   UNL     1      -7.809  18.549  68.533  0.00  0.00    +0.083 C 
ATOM      2  C   UNL     1      -7.936  17.090  68.154  0.00  0.00    +0.038 C 
ATOM      3  C   UNL     1      -8.968  16.480  69.073  0.00  0.00    +0.074 C 
ATOM      4  N   UNL     1     -10.188  17.259  68.912  0.00  0.00    -0.272 NA
ATOM      5  C   UNL     1     -10.106  18.199  67.824  0.00  0.00    +0.074 C 
ATOM      6  C   UNL     1      -9.087  19.256  68.133  0.00  0.00    +0.038 C 
ENDROOT
BRANCH   1   8
ATOM      7  C   UNL     1      -6.146  20.339  68.354  0.00  0.00    +0.229 C 
ATOM      8  N   UNL     1      -6.654  19.096  67.858  0.00  0.00    -0.260 N 
ATOM      9  O   UNL     1      -6.401  21.362  67.675  0.00  0.00    -0.275 OA
BRANCH   8  10
ATOM     10  C   UNL     1      -6.348  18.758  66.500  0.00  0.00    +0.054 A 
ATOM     11  C   UNL     1      -6.825  19.492  65.435  0.00  0.00    +0.015 A 
ATOM     12  C   UNL     1      -6.136  19.480  64.237  0.00  0.00    +0.001 A 
ATOM     13  C   UNL     1      -4.848  18.977  64.153  0.00  0.00    +0.000 A 
ATOM     14  C   UNL     1      -4.459  18.101  65.149  0.00  0.00    +0.001 A 
ATOM     15  C   UNL     1      -5.278  17.908  66.255  0.00  0.00    +0.015 A 
ENDBRANCH   8  10
BRANCH   7  17
ATOM     16  C   UNL     1      -4.701  19.618  70.223  0.00  0.00    +0.010 C 
ATOM     17  C   UNL     1      -5.930  20.422  69.825  0.00  0.00    +0.086 C 
ENDBRANCH   7  17
ENDBRANCH   1   8
BRANCH   4  18
ATOM     18  C   UNL     1     -11.223  16.293  68.548  0.00  0.00    +0.077 C 
BRANCH  18  19
ATOM     19  C   UNL     1     -11.167  15.193  69.570  0.00  0.00    +0.044 C 
BRANCH  19  20
ATOM     20  C   UNL     1     -12.197  15.402  70.635  0.00  0.00    -0.021 A 
ATOM     21  C   UNL     1     -13.222  14.511  70.865  0.00  0.00    -0.004 A 
ATOM     22  C   UNL     1     -13.611  14.204  72.162  0.00  0.00    -0.000 A 
ATOM     23  C   UNL     1     -13.014  14.814  73.259  0.00  0.00    -0.000 A 
ATOM     24  C   UNL     1     -12.291  15.968  72.991  0.00  0.00    -0.000 A 
ATOM     25  C   UNL     1     -11.775  16.145  71.731  0.00  0.00    -0.004 A 
ENDBRANCH  19  20
ENDBRANCH  18  19
ENDBRANCH   4  18
TORSDOF 6
ENDMDL
MODEL 9
REMARK VINA RESULT:      -6.1      1.749      2.558
REMARK  Name = 
REMARK  6 active torsions:
REMARK  status: ('A' for Active; 'I' for Inactive)
REMARK    1  A    between atoms: C_2  and  C_3
REMARK    2  A    between atoms: N_5  and  C_6
REMARK    3  A    between atoms: N_5  and  C_12
REMARK    4  A    between atoms: N_15  and  C_16
REMARK    5  A    between atoms: C_16  and  C_17
REMARK    6  A    between atoms: C_17  and  C_18
REMARK                            x       y       z     vdW  Elec       q    Type
REMARK                         _______ _______ _______ _____ _____    ______ ____
ROOT
ATOM      1  C   UNL     1     -10.843  14.880  67.026  0.00  0.00    +0.083 C 
ATOM      2  C   UNL     1      -9.446  15.446  67.157  0.00  0.00    +0.038 C 
ATOM      3  C   UNL     1      -9.542  16.931  66.899  0.00  0.00    +0.074 C 
ATOM      4  N   UNL     1     -10.505  17.462  67.853  0.00  0.00    -0.272 NA
ATOM      5  C   UNL     1     -10.899  16.492  68.842  0.00  0.00    +0.074 C 
ATOM      6  C   UNL     1     -11.668  15.378  68.194  0.00  0.00    +0.038 C 
ENDROOT
BRANCH   1   8
ATOM      7  C   UNL     1     -11.300  12.771  65.865  0.00  0.00    +0.229 C 
ATOM      8  N   UNL     1     -10.750  13.438  67.006  0.00  0.00    -0.260 N 
ATOM      9  O   UNL     1     -12.403  12.196  66.027  0.00  0.00    -0.275 OA
BRANCH   8  10
ATOM     10  C   UNL     1     -10.628  12.676  68.214  0.00  0.00    +0.054 A 
ATOM     11  C   UNL     1     -11.683  12.503  69.084  0.00  0.00    +0.015 A 
ATOM     12  C   UNL     1     -11.706  11.400  69.916  0.00  0.00    +0.001 A 
ATOM     13  C   UNL     1     -10.850  10.331  69.716  0.00  0.00    +0.000 A 
ATOM     14  C   UNL     1      -9.705  10.582  68.982  0.00  0.00    +0.001 A 
ATOM     15  C   UNL     1      -9.553  11.806  68.341  0.00  0.00    +0.015 A 
ENDBRANCH   8  10
BRANCH   7  17
ATOM     16  C   UNL     1     -11.685  12.618  63.430  0.00  0.00    +0.010 C 
ATOM     17  C   UNL     1     -10.892  13.300  64.535  0.00  0.00    +0.086 C 
ENDBRANCH   7  17
ENDBRANCH   1   8
BRANCH   4  18
ATOM     18  C   UNL     1      -9.801  18.523  68.571  0.00  0.00    +0.077 C 
BRANCH  18  19
ATOM     19  C   UNL     1      -9.236  19.447  67.531  0.00  0.00    +0.044 C 
BRANCH  19  20
ATOM     20  C   UNL     1      -7.752  19.572  67.679  0.00  0.00    -0.021 A 
ATOM     21  C   UNL     1      -7.015  20.530  67.017  0.00  0.00    -0.004 A 
ATOM     22  C   UNL     1      -5.977  21.190  67.662  0.00  0.00    -0.000 A 
ATOM     23  C   UNL     1      -5.624  20.877  68.969  0.00  0.00    -0.000 A 
ATOM     24  C   UNL     1      -6.101  19.668  69.453  0.00  0.00    -0.000 A 
ATOM     25  C   UNL     1      -7.239  19.139  68.895  0.00  0.00    -0.004 A 
ENDBRANCH  19  20
ENDBRANCH  18  19
ENDBRANCH   4  18
TORSDOF 6
ENDMDL
