MODEL 1
REMARK VINA RESULT:      -7.1      0.000      0.000
REMARK  Name = 
REMARK  2 active torsions:
REMARK  status: ('A' for Active; 'I' for Inactive)
REMARK    1  A    between atoms: C_7  and  N_8
REMARK    2  A    between atoms: C_13  and  S_14
REMARK                            x       y       z     vdW  Elec       q    Type
REMARK                         _______ _______ _______ _____ _____    ______ ____
ROOT
ATOM      1  N   UNL     1      -9.638  16.226  67.228  0.00  0.00    -0.239 N 
ATOM      2  C   UNL     1      -9.596  14.750  66.663  0.00  0.00    +0.173 C 
ATOM      3  C   UNL     1     -10.151  15.214  65.177  0.00  0.00    +0.046 C 
ATOM      4  N   UNL     1     -11.068  14.464  67.174  0.00  0.00    -0.219 NA
ATOM      5  C   UNL     1     -11.223  14.522  68.588  0.00  0.00    +0.072 A 
ATOM      6  C   UNL     1     -10.481  15.393  69.373  0.00  0.00    +0.070 A 
ATOM      7  C   UNL     1     -10.788  15.659  70.691  0.00  0.00    +0.027 A 
ATOM      8  C   UNL     1     -11.890  15.016  71.244  0.00  0.00    +0.136 A 
ATOM      9  C   UNL     1     -12.394  13.909  70.574  0.00  0.00    +0.078 A 
ATOM     10 CL   UNL     1     -13.266  12.721  71.529  0.00  0.00    -0.081 Cl
ATOM     11  C   UNL     1     -12.228  13.801  69.212  0.00  0.00    +0.029 A 
ATOM     12  C   UNL     1      -9.464  16.167  68.649  0.00  0.00    +0.255 C 
ATOM     13  O   UNL     1      -8.774  17.041  69.239  0.00  0.00    -0.269 OA
ENDROOT
BRANCH   1  16
ATOM     14  C   UNL     1     -10.700  18.608  66.891  0.00  0.00    +0.032 C 
ATOM     15  C   UNL     1      -9.608  18.468  66.481  0.00  0.00    -0.008 A 
ATOM     16  C   UNL     1      -9.000  17.215  66.435  0.00  0.00    +0.052 A 
ATOM     17  C   UNL     1      -7.645  17.126  66.131  0.00  0.00    +0.015 A 
ATOM     18  C   UNL     1      -6.833  18.254  66.070  0.00  0.00    +0.001 A 
ATOM     19  C   UNL     1      -7.430  19.506  66.158  0.00  0.00    -0.000 A 
ATOM     20  C   UNL     1      -8.816  19.585  66.242  0.00  0.00    -0.003 A 
ENDBRANCH   1  16
BRANCH   8  21
ATOM     21  S   UNL     1     -12.562  15.575  72.747  0.00  0.00    +0.094 S 
ATOM     22  O   UNL     1     -11.875  16.849  73.132  0.00  0.00    -0.150 OA
ATOM     23  O   UNL     1     -12.407  14.516  73.798  0.00  0.00    -0.150 OA
ATOM     24  N   UNL     1     -14.259  15.912  72.602  0.00  0.00    +0.039 NA
ENDBRANCH   8  21
TORSDOF 2
ENDMDL
MODEL 2
REMARK VINA RESULT:      -6.8      4.663      7.193
REMARK  Name = 
REMARK  2 active torsions:
REMARK  status: ('A' for Active; 'I' for Inactive)
REMARK    1  A    between atoms: C_7  and  N_8
REMARK    2  A    between atoms: C_13  and  S_14
REMARK                            x       y       z     vdW  Elec       q    Type
REMARK                         _______ _______ _______ _____ _____    ______ ____
ROOT
ATOM      1  N   UNL     1     -10.531  12.111  65.088  0.00  0.00    -0.239 N 
ATOM      2  C   UNL     1     -12.051  12.531  65.204  0.00  0.00    +0.173 C 
ATOM      3  C   UNL     1     -12.438  11.840  63.753  0.00  0.00    +0.046 C 
ATOM      4  N   UNL     1     -11.766  13.928  64.516  0.00  0.00    -0.219 NA
ATOM      5  C   UNL     1     -10.889  14.778  65.247  0.00  0.00    +0.072 A 
ATOM      6  C   UNL     1      -9.852  14.274  66.019  0.00  0.00    +0.070 A 
ATOM      7  C   UNL     1      -8.839  15.065  66.520  0.00  0.00    +0.027 A 
ATOM      8  C   UNL     1      -8.875  16.425  66.233  0.00  0.00    +0.136 A 
ATOM      9  C   UNL     1     -10.073  16.956  65.776  0.00  0.00    +0.078 A 
ATOM     10 CL   UNL     1     -10.354  18.666  66.063  0.00  0.00    -0.081 Cl
ATOM     11  C   UNL     1     -10.962  16.154  65.099  0.00  0.00    +0.029 A 
ATOM     12  C   UNL     1      -9.795  12.809  66.101  0.00  0.00    +0.255 C 
ATOM     13  O   UNL     1      -8.858  12.230  66.714  0.00  0.00    -0.269 OA
ENDROOT
BRANCH   1  16
ATOM     14  C   UNL     1      -9.250  11.402  62.903  0.00  0.00    +0.032 C 
ATOM     15  C   UNL     1      -9.462  10.545  63.677  0.00  0.00    -0.008 A 
ATOM     16  C   UNL     1     -10.281  10.747  64.785  0.00  0.00    +0.052 A 
ATOM     17  C   UNL     1     -10.343   9.771  65.775  0.00  0.00    +0.015 A 
ATOM     18  C   UNL     1      -9.462   8.694  65.795  0.00  0.00    +0.001 A 
ATOM     19  C   UNL     1      -8.612   8.512  64.711  0.00  0.00    -0.000 A 
ATOM     20  C   UNL     1      -8.716   9.374  63.625  0.00  0.00    -0.003 A 
ENDBRANCH   1  16
BRANCH   8  21
ATOM     21  S   UNL     1      -7.464  17.407  66.493  0.00  0.00    +0.094 S 
ATOM     22  O   UNL     1      -7.672  18.223  67.732  0.00  0.00    -0.150 OA
ATOM     23  O   UNL     1      -7.216  18.270  65.291  0.00  0.00    -0.150 OA
ATOM     24  N   UNL     1      -6.044  16.436  66.731  0.00  0.00    +0.039 NA
ENDBRANCH   8  21
TORSDOF 2
ENDMDL
MODEL 3
REMARK VINA RESULT:      -6.6      4.923      8.077
REMARK  Name = 
REMARK  2 active torsions:
REMARK  status: ('A' for Active; 'I' for Inactive)
REMARK    1  A    between atoms: C_7  and  N_8
REMARK    2  A    between atoms: C_13  and  S_14
REMARK                            x       y       z     vdW  Elec       q    Type
REMARK                         _______ _______ _______ _____ _____    ______ ____
ROOT
ATOM      1  N   UNL     1     -11.005   9.142  70.240  0.00  0.00    -0.239 N 
ATOM      2  C   UNL     1     -10.882   9.238  68.667  0.00  0.00    +0.173 C 
ATOM      3  C   UNL     1      -9.378   8.552  68.660  0.00  0.00    +0.046 C 
ATOM      4  N   UNL     1     -10.267  10.695  68.758  0.00  0.00    -0.219 NA
ATOM      5  C   UNL     1     -11.142  11.670  69.315  0.00  0.00    +0.072 A 
ATOM      6  C   UNL     1     -12.063  11.352  70.302  0.00  0.00    +0.070 A 
ATOM      7  C   UNL     1     -12.731  12.307  71.039  0.00  0.00    +0.027 A 
ATOM      8  C   UNL     1     -12.461  13.644  70.767  0.00  0.00    +0.136 A 
ATOM      9  C   UNL     1     -11.824  13.942  69.569  0.00  0.00    +0.078 A 
ATOM     10 CL   UNL     1     -12.086  15.543  68.898  0.00  0.00    -0.081 Cl
ATOM     11  C   UNL     1     -11.002  13.008  68.983  0.00  0.00    +0.029 A 
ATOM     12  C   UNL     1     -12.133   9.926  70.649  0.00  0.00    +0.255 C 
ATOM     13  O   UNL     1     -12.881   9.521  71.579  0.00  0.00    -0.269 OA
ENDROOT
BRANCH   1  16
ATOM     14  C   UNL     1      -9.126   8.834  72.054  0.00  0.00    +0.032 C 
ATOM     15  C   UNL     1      -9.816   7.903  71.863  0.00  0.00    -0.008 A 
ATOM     16  C   UNL     1     -10.728   7.873  70.811  0.00  0.00    +0.052 A 
ATOM     17  C   UNL     1     -11.657   6.838  70.743  0.00  0.00    +0.015 A 
ATOM     18  C   UNL     1     -11.837   5.948  71.797  0.00  0.00    +0.001 A 
ATOM     19  C   UNL     1     -10.955   6.002  72.869  0.00  0.00    -0.000 A 
ATOM     20  C   UNL     1      -9.894   6.899  72.821  0.00  0.00    -0.003 A 
ENDBRANCH   1  16
BRANCH   8  21
ATOM     21  S   UNL     1     -12.958  14.879  71.885  0.00  0.00    +0.094 S 
ATOM     22  O   UNL     1     -13.208  14.243  73.218  0.00  0.00    -0.150 OA
ATOM     23  O   UNL     1     -14.177  15.579  71.361  0.00  0.00    -0.150 OA
ATOM     24  N   UNL     1     -11.723  16.083  72.096  0.00  0.00    +0.039 NA
ENDBRANCH   8  21
TORSDOF 2
ENDMDL
MODEL 4
REMARK VINA RESULT:      -6.6      4.109      6.090
REMARK  Name = 
REMARK  2 active torsions:
REMARK  status: ('A' for Active; 'I' for Inactive)
REMARK    1  A    between atoms: C_7  and  N_8
REMARK    2  A    between atoms: C_13  and  S_14
REMARK                            x       y       z     vdW  Elec       q    Type
REMARK                         _______ _______ _______ _____ _____    ______ ____
ROOT
ATOM      1  N   UNL     1      -9.810  13.617  66.327  0.00  0.00    -0.239 N 
ATOM      2  C   UNL     1      -8.526  13.004  67.015  0.00  0.00    +0.173 C 
ATOM      3  C   UNL     1      -9.397  11.826  67.781  0.00  0.00    +0.046 C 
ATOM      4  N   UNL     1      -8.667  13.979  68.254  0.00  0.00    -0.219 NA
ATOM      5  C   UNL     1      -8.531  15.360  67.936  0.00  0.00    +0.072 A 
ATOM      6  C   UNL     1      -8.954  15.879  66.721  0.00  0.00    +0.070 A 
ATOM      7  C   UNL     1      -9.077  17.233  66.487  0.00  0.00    +0.027 A 
ATOM      8  C   UNL     1      -8.757  18.103  67.523  0.00  0.00    +0.136 A 
ATOM      9  C   UNL     1      -8.016  17.598  68.583  0.00  0.00    +0.078 A 
ATOM     10 CL   UNL     1      -7.045  18.739  69.499  0.00  0.00    -0.081 Cl
ATOM     11  C   UNL     1      -8.094  16.260  68.895  0.00  0.00    +0.029 A 
ATOM     12  C   UNL     1      -9.453  14.885  65.762  0.00  0.00    +0.255 C 
ATOM     13  O   UNL     1      -9.930  15.239  64.650  0.00  0.00    -0.269 OA
ENDROOT
BRANCH   1  16
ATOM     14  C   UNL     1     -12.431  13.769  66.486  0.00  0.00    +0.032 C 
ATOM     15  C   UNL     1     -12.006  13.006  65.701  0.00  0.00    -0.008 A 
ATOM     16  C   UNL     1     -10.648  12.700  65.640  0.00  0.00    +0.052 A 
ATOM     17  C   UNL     1     -10.166  11.949  64.573  0.00  0.00    +0.015 A 
ATOM     18  C   UNL     1     -10.954  11.667  63.462  0.00  0.00    +0.001 A 
ATOM     19  C   UNL     1     -12.301  12.008  63.500  0.00  0.00    -0.000 A 
ATOM     20  C   UNL     1     -12.819  12.562  64.665  0.00  0.00    -0.003 A 
ENDBRANCH   1  16
BRANCH   8  21
ATOM     21  S   UNL     1      -9.243  19.770  67.443  0.00  0.00    +0.094 S 
ATOM     22  O   UNL     1      -8.020  20.615  67.251  0.00  0.00    -0.150 OA
ATOM     23  O   UNL     1      -9.990  20.143  68.689  0.00  0.00    -0.150 OA
ATOM     24  N   UNL     1     -10.304  20.062  66.099  0.00  0.00    +0.039 NA
ENDBRANCH   8  21
TORSDOF 2
ENDMDL
MODEL 5
REMARK VINA RESULT:      -6.5      4.101      4.994
REMARK  Name = 
REMARK  2 active torsions:
REMARK  status: ('A' for Active; 'I' for Inactive)
REMARK    1  A    between atoms: C_7  and  N_8
REMARK    2  A    between atoms: C_13  and  S_14
REMARK                            x       y       z     vdW  Elec       q    Type
REMARK                         _______ _______ _______ _____ _____    ______ ____
ROOT
ATOM      1  N   UNL     1      -7.374  17.278  67.829  0.00  0.00    -0.239 N 
ATOM      2  C   UNL     1      -7.191  16.392  69.125  0.00  0.00    +0.173 C 
ATOM      3  C   UNL     1      -5.551  16.307  68.935  0.00  0.00    +0.046 C 
ATOM      4  N   UNL     1      -7.401  15.057  68.299  0.00  0.00    -0.219 NA
ATOM      5  C   UNL     1      -8.689  14.928  67.705  0.00  0.00    +0.072 A 
ATOM      6  C   UNL     1      -9.401  16.028  67.249  0.00  0.00    +0.070 A 
ATOM      7  C   UNL     1     -10.515  15.917  66.444  0.00  0.00    +0.027 A 
ATOM      8  C   UNL     1     -10.933  14.640  66.086  0.00  0.00    +0.136 A 
ATOM      9  C   UNL     1     -10.440  13.570  66.820  0.00  0.00    +0.078 A 
ATOM     10 CL   UNL     1     -11.417  12.112  66.870  0.00  0.00    -0.081 Cl
ATOM     11  C   UNL     1      -9.215  13.675  67.439  0.00  0.00    +0.029 A 
ATOM     12  C   UNL     1      -8.772  17.328  67.515  0.00  0.00    +0.255 C 
ATOM     13  O   UNL     1      -9.286  18.397  67.088  0.00  0.00    -0.269 OA
ENDROOT
BRANCH   1  16
ATOM     14  C   UNL     1      -6.019  17.813  65.639  0.00  0.00    +0.032 C 
ATOM     15  C   UNL     1      -6.017  18.649  66.464  0.00  0.00    -0.008 A 
ATOM     16  C   UNL     1      -6.543  18.424  67.734  0.00  0.00    +0.052 A 
ATOM     17  C   UNL     1      -6.699  19.497  68.607  0.00  0.00    +0.015 A 
ATOM     18  C   UNL     1      -6.538  20.813  68.185  0.00  0.00    +0.001 A 
ATOM     19  C   UNL     1      -6.054  21.043  66.903  0.00  0.00    -0.000 A 
ATOM     20  C   UNL     1      -5.693  19.955  66.116  0.00  0.00    -0.003 A 
ENDBRANCH   1  16
BRANCH   8  21
ATOM     21  S   UNL     1     -12.071  14.427  64.789  0.00  0.00    +0.094 S 
ATOM     22  O   UNL     1     -13.401  14.063  65.375  0.00  0.00    -0.150 OA
ATOM     23  O   UNL     1     -11.571  13.378  63.840  0.00  0.00    -0.150 OA
ATOM     24  N   UNL     1     -12.280  15.890  63.875  0.00  0.00    +0.039 NA
ENDBRANCH   8  21
TORSDOF 2
ENDMDL
MODEL 6
REMARK VINA RESULT:      -6.3      3.539      4.766
REMARK  Name = 
REMARK  2 active torsions:
REMARK  status: ('A' for Active; 'I' for Inactive)
REMARK    1  A    between atoms: C_7  and  N_8
REMARK    2  A    between atoms: C_13  and  S_14
REMARK                            x       y       z     vdW  Elec       q    Type
REMARK                         _______ _______ _______ _____ _____    ______ ____
ROOT
ATOM      1  N   UNL     1      -8.684  18.581  67.060  0.00  0.00    -0.239 N 
ATOM      2  C   UNL     1     -10.198  18.969  66.820  0.00  0.00    +0.173 C 
ATOM      3  C   UNL     1     -10.187  20.097  68.028  0.00  0.00    +0.046 C 
ATOM      4  N   UNL     1     -10.694  17.842  67.815  0.00  0.00    -0.219 NA
ATOM      5  C   UNL     1     -10.380  16.514  67.405  0.00  0.00    +0.072 A 
ATOM      6  C   UNL     1      -9.223  16.218  66.701  0.00  0.00    +0.070 A 
ATOM      7  C   UNL     1      -8.765  14.929  66.521  0.00  0.00    +0.027 A 
ATOM      8  C   UNL     1      -9.509  13.892  67.074  0.00  0.00    +0.136 A 
ATOM      9  C   UNL     1     -10.815  14.169  67.457  0.00  0.00    +0.078 A 
ATOM     10 CL   UNL     1     -11.944  12.825  67.492  0.00  0.00    -0.081 Cl
ATOM     11  C   UNL     1     -11.162  15.449  67.823  0.00  0.00    +0.029 A 
ATOM     12  C   UNL     1      -8.408  17.381  66.327  0.00  0.00    +0.255 C 
ATOM     13  O   UNL     1      -7.299  17.236  65.746  0.00  0.00    -0.269 OA
ENDROOT
BRANCH   1  16
ATOM     14  C   UNL     1      -7.057  18.908  69.100  0.00  0.00    +0.032 C 
ATOM     15  C   UNL     1      -6.870  19.606  68.175  0.00  0.00    -0.008 A 
ATOM     16  C   UNL     1      -7.763  19.660  67.108  0.00  0.00    +0.052 A 
ATOM     17  C   UNL     1      -7.404  20.346  65.951  0.00  0.00    +0.015 A 
ATOM     18  C   UNL     1      -6.107  20.807  65.748  0.00  0.00    +0.001 A 
ATOM     19  C   UNL     1      -5.199  20.717  66.797  0.00  0.00    -0.000 A 
ATOM     20  C   UNL     1      -5.636  20.228  68.022  0.00  0.00    -0.003 A 
ENDBRANCH   1  16
BRANCH   8  21
ATOM     21  S   UNL     1      -8.816  12.305  67.224  0.00  0.00    +0.094 S 
ATOM     22  O   UNL     1      -9.268  11.475  66.061  0.00  0.00    -0.150 OA
ATOM     23  O   UNL     1      -9.217  11.696  68.535  0.00  0.00    -0.150 OA
ATOM     24  N   UNL     1      -7.080  12.360  67.191  0.00  0.00    +0.039 NA
ENDBRANCH   8  21
TORSDOF 2
ENDMDL
MODEL 7
REMARK VINA RESULT:      -6.2      6.632      9.377
REMARK  Name = 
REMARK  2 active torsions:
REMARK  status: ('A' for Active; 'I' for Inactive)
REMARK    1  A    between atoms: C_7  and  N_8
REMARK    2  A    between atoms: C_13  and  S_14
REMARK                            x       y       z     vdW  Elec       q    Type
REMARK                         _______ _______ _______ _____ _____    ______ ____
ROOT
ATOM      1  N   UNL     1      -9.979   8.240  70.018  0.00  0.00    -0.239 N 
ATOM      2  C   UNL     1     -10.022   9.207  71.267  0.00  0.00    +0.173 C 
ATOM      3  C   UNL     1     -11.002   8.189  72.126  0.00  0.00    +0.046 C 
ATOM      4  N   UNL     1     -11.269   9.987  70.680  0.00  0.00    -0.219 NA
ATOM      5  C   UNL     1     -11.018  10.663  69.453  0.00  0.00    +0.072 A 
ATOM      6  C   UNL     1     -10.130  10.166  68.510  0.00  0.00    +0.070 A 
ATOM      7  C   UNL     1     -10.061  10.649  67.219  0.00  0.00    +0.027 A 
ATOM      8  C   UNL     1     -10.924  11.680  66.864  0.00  0.00    +0.136 A 
ATOM      9  C   UNL     1     -11.539  12.387  67.889  0.00  0.00    +0.078 A 
ATOM     10 CL   UNL     1     -12.037  14.035  67.540  0.00  0.00    -0.081 Cl
ATOM     11  C   UNL     1     -11.763  11.777  69.101  0.00  0.00    +0.029 A 
ATOM     12  C   UNL     1      -9.404   8.956  68.917  0.00  0.00    +0.255 C 
ATOM     13  O   UNL     1      -8.622   8.371  68.121  0.00  0.00    -0.269 OA
ENDROOT
BRANCH   1  16
ATOM     14  C   UNL     1     -11.380   6.257  69.006  0.00  0.00    +0.032 C 
ATOM     15  C   UNL     1     -10.387   5.959  69.557  0.00  0.00    -0.008 A 
ATOM     16  C   UNL     1      -9.648   6.887  70.286  0.00  0.00    +0.052 A 
ATOM     17  C   UNL     1      -8.384   6.538  70.752  0.00  0.00    +0.015 A 
ATOM     18  C   UNL     1      -7.751   5.369  70.343  0.00  0.00    +0.001 A 
ATOM     19  C   UNL     1      -8.470   4.458  69.578  0.00  0.00    -0.000 A 
ATOM     20  C   UNL     1      -9.808   4.720  69.305  0.00  0.00    -0.003 A 
ENDBRANCH   1  16
BRANCH   8  21
ATOM     21  S   UNL     1     -11.168  12.075  65.189  0.00  0.00    +0.094 S 
ATOM     22  O   UNL     1     -10.793  10.886  64.358  0.00  0.00    -0.150 OA
ATOM     23  O   UNL     1     -10.358  13.287  64.829  0.00  0.00    -0.150 OA
ATOM     24  N   UNL     1     -12.831  12.450  64.857  0.00  0.00    +0.039 NA
ENDBRANCH   8  21
TORSDOF 2
ENDMDL
MODEL 8
REMARK VINA RESULT:      -6.2      3.873      6.554
REMARK  Name = 
REMARK  2 active torsions:
REMARK  status: ('A' for Active; 'I' for Inactive)
REMARK    1  A    between atoms: C_7  and  N_8
REMARK    2  A    between atoms: C_13  and  S_14
REMARK                            x       y       z     vdW  Elec       q    Type
REMARK                         _______ _______ _______ _____ _____    ______ ____
ROOT
ATOM      1  N   UNL     1      -9.860  15.853  67.266  0.00  0.00    -0.239 N 
ATOM      2  C   UNL     1     -10.570  16.806  66.224  0.00  0.00    +0.173 C 
ATOM      3  C   UNL     1     -10.533  15.665  65.029  0.00  0.00    +0.046 C 
ATOM      4  N   UNL     1      -9.181  17.406  65.756  0.00  0.00    -0.219 NA
ATOM      5  C   UNL     1      -8.471  18.109  66.771  0.00  0.00    +0.072 A 
ATOM      6  C   UNL     1      -8.538  17.738  68.106  0.00  0.00    +0.070 A 
ATOM      7  C   UNL     1      -7.671  18.223  69.062  0.00  0.00    +0.027 A 
ATOM      8  C   UNL     1      -6.695  19.126  68.656  0.00  0.00    +0.136 A 
ATOM      9  C   UNL     1      -6.861  19.744  67.423  0.00  0.00    +0.078 A 
ATOM     10 CL   UNL     1      -6.092  21.307  67.199  0.00  0.00    -0.081 Cl
ATOM     11  C   UNL     1      -7.574  19.110  66.433  0.00  0.00    +0.029 A 
ATOM     12  C   UNL     1      -9.468  16.639  68.398  0.00  0.00    +0.255 C 
ATOM     13  O   UNL     1      -9.566  16.166  69.562  0.00  0.00    -0.269 OA
ENDROOT
BRANCH   1  16
ATOM     14  C   UNL     1      -8.363  13.691  67.206  0.00  0.00    +0.032 C 
ATOM     15  C   UNL     1      -9.485  13.532  67.512  0.00  0.00    -0.008 A 
ATOM     16  C   UNL     1     -10.422  14.558  67.411  0.00  0.00    +0.052 A 
ATOM     17  C   UNL     1     -11.686  14.384  67.969  0.00  0.00    +0.015 A 
ATOM     18  C   UNL     1     -11.977  13.305  68.797  0.00  0.00    +0.001 A 
ATOM     19  C   UNL     1     -11.028  12.298  68.934  0.00  0.00    -0.000 A 
ATOM     20  C   UNL     1      -9.854  12.379  68.194  0.00  0.00    -0.003 A 
ENDBRANCH   1  16
BRANCH   8  21
ATOM     21  S   UNL     1      -5.349  19.482  69.697  0.00  0.00    +0.094 S 
ATOM     22  O   UNL     1      -5.603  20.794  70.374  0.00  0.00    -0.150 OA
ATOM     23  O   UNL     1      -4.079  19.501  68.899  0.00  0.00    -0.150 OA
ATOM     24  N   UNL     1      -5.162  18.277  70.934  0.00  0.00    +0.039 NA
ENDBRANCH   8  21
TORSDOF 2
ENDMDL
MODEL 9
REMARK VINA RESULT:      -6.1      6.239      9.428
REMARK  Name = 
REMARK  2 active torsions:
REMARK  status: ('A' for Active; 'I' for Inactive)
REMARK    1  A    between atoms: C_7  and  N_8
REMARK    2  A    between atoms: C_13  and  S_14
REMARK                            x       y       z     vdW  Elec       q    Type
REMARK                         _______ _______ _______ _____ _____    ______ ____
ROOT
ATOM      1  N   UNL     1      -6.974  19.143  67.477  0.00  0.00    -0.239 N 
ATOM      2  C   UNL     1      -5.697  19.185  68.408  0.00  0.00    +0.173 C 
ATOM      3  C   UNL     1      -6.515  19.928  69.637  0.00  0.00    +0.046 C 
ATOM      4  N   UNL     1      -5.246  20.578  67.805  0.00  0.00    -0.219 NA
ATOM      5  C   UNL     1      -4.930  20.545  66.416  0.00  0.00    +0.072 A 
ATOM      6  C   UNL     1      -5.589  19.701  65.534  0.00  0.00    +0.070 A 
ATOM      7  C   UNL     1      -5.494  19.829  64.164  0.00  0.00    +0.027 A 
ATOM      8  C   UNL     1      -4.698  20.852  63.661  0.00  0.00    +0.136 A 
ATOM      9  C   UNL     1      -3.789  21.446  64.526  0.00  0.00    +0.078 A 
ATOM     10 CL   UNL     1      -2.369  22.192  63.810  0.00  0.00    -0.081 Cl
ATOM     11  C   UNL     1      -4.043  21.462  65.878  0.00  0.00    +0.029 A 
ATOM     12  C   UNL     1      -6.553  18.783  66.155  0.00  0.00    +0.255 C 
ATOM     13  O   UNL     1      -7.263  18.016  65.451  0.00  0.00    -0.269 OA
ENDROOT
BRANCH   1  16
ATOM     14  C   UNL     1      -9.296  20.352  67.226  0.00  0.00    +0.032 C 
ATOM     15  C   UNL     1      -9.322  19.281  67.707  0.00  0.00    -0.008 A 
ATOM     16  C   UNL     1      -8.153  18.609  68.059  0.00  0.00    +0.052 A 
ATOM     17  C   UNL     1      -8.223  17.272  68.439  0.00  0.00    +0.015 A 
ATOM     18  C   UNL     1      -9.389  16.529  68.285  0.00  0.00    +0.001 A 
ATOM     19  C   UNL     1     -10.549  17.187  67.894  0.00  0.00    -0.000 A 
ATOM     20  C   UNL     1     -10.514  18.567  67.729  0.00  0.00    -0.003 A 
ENDBRANCH   1  16
BRANCH   8  21
ATOM     21  S   UNL     1      -4.828  21.316  61.990  0.00  0.00    +0.094 S 
ATOM     22  O   UNL     1      -3.660  20.746  61.244  0.00  0.00    -0.150 OA
ATOM     23  O   UNL     1      -4.886  22.811  61.880  0.00  0.00    -0.150 OA
ATOM     24  N   UNL     1      -6.276  20.690  61.264  0.00  0.00    +0.039 NA
ENDBRANCH   8  21
TORSDOF 2
ENDMDL
