MODEL 1
REMARK VINA RESULT:      -7.4      0.000      0.000
REMARK  Name = 
REMARK  5 active torsions:
REMARK  status: ('A' for Active; 'I' for Inactive)
REMARK    1  A    between atoms: N_12  and  C_13
REMARK    2  A    between atoms: C_13  and  C_14
REMARK    3  A    between atoms: C_14  and  C_15
REMARK    4  A    between atoms: C_15  and  C_16
REMARK    5  A    between atoms: C_16  and  N_17
REMARK                            x       y       z     vdW  Elec       q    Type
REMARK                         _______ _______ _______ _____ _____    ______ ____
ROOT
ATOM      1  C   UNL     1     -12.153  13.886  65.775  0.00  0.00    +0.023 C 
ENDROOT
BRANCH   1   2
ATOM      2  C   UNL     1     -10.724  14.334  65.904  0.00  0.00    +0.101 C 
BRANCH   2   5
ATOM      3  O   UNL     1     -10.909  16.822  64.573  0.00  0.00    -0.274 OA
ATOM      4  C   UNL     1     -10.460  16.844  65.753  0.00  0.00    +0.231 C 
ATOM      5  N   UNL     1     -10.622  15.639  66.508  0.00  0.00    -0.230 N 
ATOM      6  C   UNL     1     -10.347  15.767  67.909  0.00  0.00    +0.231 C 
ATOM      7  O   UNL     1     -10.432  14.737  68.626  0.00  0.00    -0.274 OA
ATOM      8  C   UNL     1     -10.565  17.125  68.471  0.00  0.00    +0.086 C 
ATOM      9  C   UNL     1      -9.764  18.164  67.750  0.00  0.00    +0.017 C 
ATOM     10  C   UNL     1     -10.353  19.558  67.908  0.00  0.00    +0.001 C 
ATOM     11  C   UNL     1      -9.227  20.396  67.316  0.00  0.00    +0.000 C 
ATOM     12  C   UNL     1      -7.947  19.642  67.633  0.00  0.00    +0.000 C 
ATOM     13  C   UNL     1      -8.383  18.366  68.344  0.00  0.00    +0.001 C 
ATOM     14  C   UNL     1      -9.592  17.912  66.284  0.00  0.00    +0.086 C 
ENDBRANCH   2   5
ENDBRANCH   1   2
BRANCH   1  15
ATOM     15  C   UNL     1     -12.184  12.385  65.698  0.00  0.00    +0.019 C 
BRANCH  15  16
ATOM     16  C   UNL     1     -10.921  11.867  66.376  0.00  0.00    +0.072 C 
BRANCH  16  17
ATOM     17  N   UNL     1     -11.332  10.977  67.406  0.00  0.00    -0.270 NA
ATOM     18  C   UNL     1     -10.670   9.745  67.508  0.00  0.00    +0.094 C 
ATOM     19  C   UNL     1     -10.203   9.327  68.858  0.00  0.00    +0.111 C 
ATOM     20  N   UNL     1     -11.006   9.871  69.945  0.00  0.00    -0.275 N 
ATOM     21  C   UNL     1     -11.962   9.083  70.626  0.00  0.00    +0.220 A 
ATOM     22  N   UNL     1     -11.665   7.778  70.813  0.00  0.00    -0.212 NA
ATOM     23  C   UNL     1     -12.638   6.934  71.201  0.00  0.00    +0.103 A 
ATOM     24  C   UNL     1     -13.781   7.446  71.799  0.00  0.00    +0.041 A 
ATOM     25  C   UNL     1     -13.901   8.818  71.878  0.00  0.00    +0.103 A 
ATOM     26  N   UNL     1     -13.037   9.606  71.222  0.00  0.00    -0.212 NA
ATOM     27  C   UNL     1     -11.248  11.308  69.850  0.00  0.00    +0.111 C 
ATOM     28  C   UNL     1     -11.945  11.533  68.541  0.00  0.00    +0.094 C 
ENDBRANCH  16  17
ENDBRANCH  15  16
ENDBRANCH   1  15
TORSDOF 5
ENDMDL
MODEL 2
REMARK VINA RESULT:      -7.2      3.392      8.599
REMARK  Name = 
REMARK  5 active torsions:
REMARK  status: ('A' for Active; 'I' for Inactive)
REMARK    1  A    between atoms: N_12  and  C_13
REMARK    2  A    between atoms: C_13  and  C_14
REMARK    3  A    between atoms: C_14  and  C_15
REMARK    4  A    between atoms: C_15  and  C_16
REMARK    5  A    between atoms: C_16  and  N_17
REMARK                            x       y       z     vdW  Elec       q    Type
REMARK                         _______ _______ _______ _____ _____    ______ ____
ROOT
ATOM      1  C   UNL     1     -11.095  13.941  66.778  0.00  0.00    +0.023 C 
ENDROOT
BRANCH   1   2
ATOM      2  C   UNL     1     -10.480  14.008  68.148  0.00  0.00    +0.101 C 
BRANCH   2   5
ATOM      3  O   UNL     1     -11.695  16.462  68.852  0.00  0.00    -0.274 OA
ATOM      4  C   UNL     1     -11.852  15.503  69.657  0.00  0.00    +0.231 C 
ATOM      5  N   UNL     1     -11.474  14.209  69.173  0.00  0.00    -0.230 N 
ATOM      6  C   UNL     1     -11.898  13.113  69.994  0.00  0.00    +0.231 C 
ATOM      7  O   UNL     1     -11.566  11.951  69.648  0.00  0.00    -0.274 OA
ATOM      8  C   UNL     1     -13.124  13.366  70.795  0.00  0.00    +0.086 C 
ATOM      9  C   UNL     1     -12.981  14.568  71.675  0.00  0.00    +0.017 C 
ATOM     10  C   UNL     1     -14.326  15.163  72.062  0.00  0.00    +0.001 C 
ATOM     11  C   UNL     1     -13.884  16.163  73.123  0.00  0.00    +0.000 C 
ATOM     12  C   UNL     1     -12.663  15.545  73.783  0.00  0.00    +0.000 C 
ATOM     13  C   UNL     1     -12.407  14.239  73.040  0.00  0.00    +0.001 C 
ATOM     14  C   UNL     1     -12.152  15.672  71.091  0.00  0.00    +0.086 C 
ENDBRANCH   2   5
ENDBRANCH   1   2
BRANCH   1  15
ATOM     15  C   UNL     1     -10.149  14.569  65.793  0.00  0.00    +0.019 C 
BRANCH  15  16
ATOM     16  C   UNL     1     -10.716  15.936  65.423  0.00  0.00    +0.072 C 
BRANCH  16  17
ATOM     17  N   UNL     1      -9.733  16.904  65.764  0.00  0.00    -0.270 NA
ATOM     18  C   UNL     1     -10.176  18.170  66.173  0.00  0.00    +0.094 C 
ATOM     19  C   UNL     1      -9.572  18.744  67.406  0.00  0.00    +0.111 C 
ATOM     20  N   UNL     1      -8.216  18.275  67.662  0.00  0.00    -0.275 N 
ATOM     21  C   UNL     1      -7.089  19.081  67.385  0.00  0.00    +0.220 A 
ATOM     22  N   UNL     1      -7.217  20.411  67.587  0.00  0.00    -0.212 NA
ATOM     23  C   UNL     1      -6.286  21.243  67.087  0.00  0.00    +0.103 A 
ATOM     24  C   UNL     1      -5.035  20.741  66.756  0.00  0.00    +0.041 A 
ATOM     25  C   UNL     1      -4.843  19.379  66.871  0.00  0.00    +0.103 A 
ATOM     26  N   UNL     1      -5.888  18.571  67.101  0.00  0.00    -0.212 NA
ATOM     27  C   UNL     1      -8.058  16.826  67.574  0.00  0.00    +0.111 C 
ATOM     28  C   UNL     1      -8.477  16.437  66.188  0.00  0.00    +0.094 C 
ENDBRANCH  16  17
ENDBRANCH  15  16
ENDBRANCH   1  15
TORSDOF 5
ENDMDL
MODEL 3
REMARK VINA RESULT:      -7.1      4.546     10.719
REMARK  Name = 
REMARK  5 active torsions:
REMARK  status: ('A' for Active; 'I' for Inactive)
REMARK    1  A    between atoms: N_12  and  C_13
REMARK    2  A    between atoms: C_13  and  C_14
REMARK    3  A    between atoms: C_14  and  C_15
REMARK    4  A    between atoms: C_15  and  C_16
REMARK    5  A    between atoms: C_16  and  N_17
REMARK                            x       y       z     vdW  Elec       q    Type
REMARK                         _______ _______ _______ _____ _____    ______ ____
ROOT
ATOM      1  C   UNL     1     -10.723  19.022  67.098  0.00  0.00    +0.023 C 
ENDROOT
BRANCH   1   2
ATOM      2  C   UNL     1     -10.019  18.000  67.946  0.00  0.00    +0.101 C 
BRANCH   2   5
ATOM      3  O   UNL     1      -8.548  16.748  65.881  0.00  0.00    -0.274 OA
ATOM      4  C   UNL     1      -9.620  16.183  66.234  0.00  0.00    +0.231 C 
ATOM      5  N   UNL     1     -10.212  16.662  67.446  0.00  0.00    -0.230 N 
ATOM      6  C   UNL     1     -11.271  15.844  67.962  0.00  0.00    +0.231 C 
ATOM      7  O   UNL     1     -11.861  16.227  69.004  0.00  0.00    -0.274 OA
ATOM      8  C   UNL     1     -11.185  14.405  67.601  0.00  0.00    +0.086 C 
ATOM      9  C   UNL     1     -11.130  14.202  66.119  0.00  0.00    +0.017 C 
ATOM     10  C   UNL     1     -10.506  12.867  65.743  0.00  0.00    +0.001 C 
ATOM     11  C   UNL     1     -10.816  12.833  64.252  0.00  0.00    +0.000 C 
ATOM     12  C   UNL     1     -12.131  13.577  64.092  0.00  0.00    +0.000 C 
ATOM     13  C   UNL     1     -12.503  14.066  65.487  0.00  0.00    +0.001 C 
ATOM     14  C   UNL     1     -10.393  15.270  65.371  0.00  0.00    +0.086 C 
ENDBRANCH   2   5
ENDBRANCH   1   2
BRANCH   1  15
ATOM     15  C   UNL     1      -9.727  20.064  66.668  0.00  0.00    +0.019 C 
BRANCH  15  16
ATOM     16  C   UNL     1      -8.524  19.955  67.599  0.00  0.00    +0.072 C 
BRANCH  16  17
ATOM     17  N   UNL     1      -7.400  20.466  66.893  0.00  0.00    -0.270 NA
ATOM     18  C   UNL     1      -6.337  20.986  67.645  0.00  0.00    +0.094 C 
ATOM     19  C   UNL     1      -4.962  20.543  67.289  0.00  0.00    +0.111 C 
ATOM     20  N   UNL     1      -4.815  20.174  65.887  0.00  0.00    -0.275 N 
ATOM     21  C   UNL     1      -4.195  21.037  64.955  0.00  0.00    +0.220 A 
ATOM     22  N   UNL     1      -3.159  21.783  65.399  0.00  0.00    -0.212 NA
ATOM     23  C   UNL     1      -2.717  22.805  64.646  0.00  0.00    +0.103 A 
ATOM     24  C   UNL     1      -3.018  22.830  63.291  0.00  0.00    +0.041 A 
ATOM     25  C   UNL     1      -3.845  21.838  62.803  0.00  0.00    +0.103 A 
ATOM     26  N   UNL     1      -4.480  21.017  63.650  0.00  0.00    -0.212 NA
ATOM     27  C   UNL     1      -5.849  19.267  65.395  0.00  0.00    +0.111 C 
ATOM     28  C   UNL     1      -7.159  19.966  65.602  0.00  0.00    +0.094 C 
ENDBRANCH  16  17
ENDBRANCH  15  16
ENDBRANCH   1  15
TORSDOF 5
ENDMDL
MODEL 4
REMARK VINA RESULT:      -6.9      3.060      8.980
REMARK  Name = 
REMARK  5 active torsions:
REMARK  status: ('A' for Active; 'I' for Inactive)
REMARK    1  A    between atoms: N_12  and  C_13
REMARK    2  A    between atoms: C_13  and  C_14
REMARK    3  A    between atoms: C_14  and  C_15
REMARK    4  A    between atoms: C_15  and  C_16
REMARK    5  A    between atoms: C_16  and  N_17
REMARK                            x       y       z     vdW  Elec       q    Type
REMARK                         _______ _______ _______ _____ _____    ______ ____
ROOT
ATOM      1  C   UNL     1     -11.051  11.420  64.525  0.00  0.00    +0.023 C 
ENDROOT
BRANCH   1   2
ATOM      2  C   UNL     1     -10.066  11.574  65.650  0.00  0.00    +0.101 C 
BRANCH   2   5
ATOM      3  O   UNL     1      -7.962   9.725  65.260  0.00  0.00    -0.274 OA
ATOM      4  C   UNL     1      -8.945   9.327  65.944  0.00  0.00    +0.231 C 
ATOM      5  N   UNL     1      -9.869  10.337  66.364  0.00  0.00    -0.230 N 
ATOM      6  C   UNL     1     -10.821   9.909  67.345  0.00  0.00    +0.231 C 
ATOM      7  O   UNL     1     -11.687  10.736  67.731  0.00  0.00    -0.274 OA
ATOM      8  C   UNL     1     -10.367   8.796  68.219  0.00  0.00    +0.086 C 
ATOM      9  C   UNL     1      -9.955   7.595  67.427  0.00  0.00    +0.017 C 
ATOM     10  C   UNL     1      -9.004   6.694  68.199  0.00  0.00    +0.001 C 
ATOM     11  C   UNL     1      -8.974   5.480  67.278  0.00  0.00    +0.000 C 
ATOM     12  C   UNL     1     -10.348   5.423  66.634  0.00  0.00    +0.000 C 
ATOM     13  C   UNL     1     -11.103   6.640  67.158  0.00  0.00    +0.001 C 
ATOM     14  C   UNL     1      -9.310   7.908  66.111  0.00  0.00    +0.086 C 
ENDBRANCH   2   5
ENDBRANCH   1   2
BRANCH   1  15
ATOM     15  C   UNL     1     -11.600  12.776  64.174  0.00  0.00    +0.019 C 
BRANCH  15  16
ATOM     16  C   UNL     1     -12.504  13.212  65.321  0.00  0.00    +0.072 C 
BRANCH  16  17
ATOM     17  N   UNL     1     -11.964  14.418  65.846  0.00  0.00    -0.270 NA
ATOM     18  C   UNL     1     -11.809  14.516  67.236  0.00  0.00    +0.094 C 
ATOM     19  C   UNL     1     -10.502  15.010  67.749  0.00  0.00    +0.111 C 
ATOM     20  N   UNL     1      -9.817  15.905  66.826  0.00  0.00    -0.275 N 
ATOM     21  C   UNL     1      -9.809  17.305  67.020  0.00  0.00    +0.220 A 
ATOM     22  N   UNL     1      -9.761  17.750  68.295  0.00  0.00    -0.212 NA
ATOM     23  C   UNL     1     -10.026  19.044  68.548  0.00  0.00    +0.103 A 
ATOM     24  C   UNL     1      -9.927  19.971  67.519  0.00  0.00    +0.041 A 
ATOM     25  C   UNL     1      -9.651  19.492  66.254  0.00  0.00    +0.103 A 
ATOM     26  N   UNL     1      -9.680  18.174  66.014  0.00  0.00    -0.212 NA
ATOM     27  C   UNL     1      -9.737  15.405  65.456  0.00  0.00    +0.111 C 
ATOM     28  C   UNL     1     -11.149  15.190  65.000  0.00  0.00    +0.094 C 
ENDBRANCH  16  17
ENDBRANCH  15  16
ENDBRANCH   1  15
TORSDOF 5
ENDMDL
MODEL 5
REMARK VINA RESULT:      -6.8      2.431      9.496
REMARK  Name = 
REMARK  5 active torsions:
REMARK  status: ('A' for Active; 'I' for Inactive)
REMARK    1  A    between atoms: N_12  and  C_13
REMARK    2  A    between atoms: C_13  and  C_14
REMARK    3  A    between atoms: C_14  and  C_15
REMARK    4  A    between atoms: C_15  and  C_16
REMARK    5  A    between atoms: C_16  and  N_17
REMARK                            x       y       z     vdW  Elec       q    Type
REMARK                         _______ _______ _______ _____ _____    ______ ____
ROOT
ATOM      1  C   UNL     1     -11.313  10.504  68.066  0.00  0.00    +0.023 C 
ENDROOT
BRANCH   1   2
ATOM      2  C   UNL     1     -11.517  11.042  69.455  0.00  0.00    +0.101 C 
BRANCH   2   5
ATOM      3  O   UNL     1      -9.039   9.929  70.241  0.00  0.00    -0.274 OA
ATOM      4  C   UNL     1     -10.078   9.323  70.624  0.00  0.00    +0.231 C 
ATOM      5  N   UNL     1     -11.313  10.029  70.460  0.00  0.00    -0.230 N 
ATOM      6  C   UNL     1     -12.435   9.442  71.131  0.00  0.00    +0.231 C 
ATOM      7  O   UNL     1     -13.559   9.989  70.998  0.00  0.00    -0.274 OA
ATOM      8  C   UNL     1     -12.097   8.646  72.341  0.00  0.00    +0.086 C 
ATOM      9  C   UNL     1     -11.121   7.552  72.036  0.00  0.00    +0.017 C 
ATOM     10  C   UNL     1     -10.357   7.102  73.271  0.00  0.00    +0.001 C 
ATOM     11  C   UNL     1      -9.666   5.859  72.724  0.00  0.00    +0.000 C 
ATOM     12  C   UNL     1     -10.615   5.290  71.684  0.00  0.00    +0.000 C 
ATOM     13  C   UNL     1     -11.793   6.255  71.624  0.00  0.00    +0.001 C 
ATOM     14  C   UNL     1     -10.113   7.893  70.982  0.00  0.00    +0.086 C 
ENDBRANCH   2   5
ENDBRANCH   1   2
BRANCH   1  15
ATOM     15  C   UNL     1     -10.618  11.549  67.239  0.00  0.00    +0.019 C 
BRANCH  15  16
ATOM     16  C   UNL     1     -11.692  12.466  66.666  0.00  0.00    +0.072 C 
BRANCH  16  17
ATOM     17  N   UNL     1     -11.212  13.799  66.781  0.00  0.00    -0.270 NA
ATOM     18  C   UNL     1     -10.060  14.015  67.551  0.00  0.00    +0.094 C 
ATOM     19  C   UNL     1      -8.986  14.857  66.958  0.00  0.00    +0.111 C 
ATOM     20  N   UNL     1      -9.479  15.842  66.004  0.00  0.00    -0.275 N 
ATOM     21  C   UNL     1      -9.612  17.207  66.350  0.00  0.00    +0.220 A 
ATOM     22  N   UNL     1      -8.684  17.724  67.186  0.00  0.00    -0.212 NA
ATOM     23  C   UNL     1      -8.912  18.919  67.758  0.00  0.00    +0.103 A 
ATOM     24  C   UNL     1      -9.844  19.777  67.190  0.00  0.00    +0.041 A 
ATOM     25  C   UNL     1     -10.564  19.312  66.108  0.00  0.00    +0.103 A 
ATOM     26  N   UNL     1     -10.495  18.018  65.763  0.00  0.00    -0.212 NA
ATOM     27  C   UNL     1     -10.393  15.300  65.002  0.00  0.00    +0.111 C 
ATOM     28  C   UNL     1     -11.543  14.702  65.756  0.00  0.00    +0.094 C 
ENDBRANCH  16  17
ENDBRANCH  15  16
ENDBRANCH   1  15
TORSDOF 5
ENDMDL
MODEL 6
REMARK VINA RESULT:      -6.8      3.725      9.934
REMARK  Name = 
REMARK  5 active torsions:
REMARK  status: ('A' for Active; 'I' for Inactive)
REMARK    1  A    between atoms: N_12  and  C_13
REMARK    2  A    between atoms: C_13  and  C_14
REMARK    3  A    between atoms: C_14  and  C_15
REMARK    4  A    between atoms: C_15  and  C_16
REMARK    5  A    between atoms: C_16  and  N_17
REMARK                            x       y       z     vdW  Elec       q    Type
REMARK                         _______ _______ _______ _____ _____    ______ ____
ROOT
ATOM      1  C   UNL     1     -10.744  17.047  67.971  0.00  0.00    +0.023 C 
ENDROOT
BRANCH   1   2
ATOM      2  C   UNL     1     -10.113  15.801  68.528  0.00  0.00    +0.101 C 
BRANCH   2   5
ATOM      3  O   UNL     1      -8.512  14.892  66.381  0.00  0.00    -0.274 OA
ATOM      4  C   UNL     1      -9.671  14.399  66.470  0.00  0.00    +0.231 C 
ATOM      5  N   UNL     1     -10.368  14.652  67.695  0.00  0.00    -0.230 N 
ATOM      6  C   UNL     1     -11.559  13.876  67.879  0.00  0.00    +0.231 C 
ATOM      7  O   UNL     1     -12.241  14.075  68.917  0.00  0.00    -0.274 OA
ATOM      8  C   UNL     1     -11.567  12.562  67.184  0.00  0.00    +0.086 C 
ATOM      9  C   UNL     1     -11.338  12.706  65.712  0.00  0.00    +0.017 C 
ATOM     10  C   UNL     1     -10.802  11.429  65.085  0.00  0.00    +0.001 C 
ATOM     11  C   UNL     1     -10.915  11.784  63.608  0.00  0.00    +0.000 C 
ATOM     12  C   UNL     1     -12.119  12.704  63.501  0.00  0.00    +0.000 C 
ATOM     13  C   UNL     1     -12.622  12.896  64.928  0.00  0.00    +0.001 C 
ATOM     14  C   UNL     1     -10.409  13.819  65.332  0.00  0.00    +0.086 C 
ENDBRANCH   2   5
ENDBRANCH   1   2
BRANCH   1  15
ATOM     15  C   UNL     1      -9.834  18.212  68.242  0.00  0.00    +0.019 C 
BRANCH  15  16
ATOM     16  C   UNL     1      -8.400  17.718  68.082  0.00  0.00    +0.072 C 
BRANCH  16  17
ATOM     17  N   UNL     1      -7.881  18.313  66.900  0.00  0.00    -0.270 NA
ATOM     18  C   UNL     1      -8.123  19.679  66.694  0.00  0.00    +0.094 C 
ATOM     19  C   UNL     1      -6.967  20.530  66.302  0.00  0.00    +0.111 C 
ATOM     20  N   UNL     1      -5.932  19.806  65.577  0.00  0.00    -0.275 N 
ATOM     21  C   UNL     1      -5.795  19.917  64.174  0.00  0.00    +0.220 A 
ATOM     22  N   UNL     1      -6.059  21.122  63.622  0.00  0.00    -0.212 NA
ATOM     23  C   UNL     1      -6.212  21.213  62.289  0.00  0.00    +0.103 A 
ATOM     24  C   UNL     1      -5.698  20.211  61.477  0.00  0.00    +0.041 A 
ATOM     25  C   UNL     1      -5.133  19.114  62.097  0.00  0.00    +0.103 A 
ATOM     26  N   UNL     1      -5.266  18.950  63.421  0.00  0.00    -0.212 NA
ATOM     27  C   UNL     1      -5.525  18.552  66.205  0.00  0.00    +0.111 C 
ATOM     28  C   UNL     1      -6.760  17.708  66.304  0.00  0.00    +0.094 C 
ENDBRANCH  16  17
ENDBRANCH  15  16
ENDBRANCH   1  15
TORSDOF 5
ENDMDL
MODEL 7
REMARK VINA RESULT:      -6.7      2.495      9.638
REMARK  Name = 
REMARK  5 active torsions:
REMARK  status: ('A' for Active; 'I' for Inactive)
REMARK    1  A    between atoms: N_12  and  C_13
REMARK    2  A    between atoms: C_13  and  C_14
REMARK    3  A    between atoms: C_14  and  C_15
REMARK    4  A    between atoms: C_15  and  C_16
REMARK    5  A    between atoms: C_16  and  N_17
REMARK                            x       y       z     vdW  Elec       q    Type
REMARK                         _______ _______ _______ _____ _____    ______ ____
ROOT
ATOM      1  C   UNL     1     -12.057  11.195  68.843  0.00  0.00    +0.023 C 
ENDROOT
BRANCH   1   2
ATOM      2  C   UNL     1     -11.569  11.128  70.263  0.00  0.00    +0.101 C 
BRANCH   2   5
ATOM      3  O   UNL     1     -13.367   9.203  71.292  0.00  0.00    -0.274 OA
ATOM      4  C   UNL     1     -12.137   8.948  71.411  0.00  0.00    +0.231 C 
ATOM      5  N   UNL     1     -11.247   9.779  70.658  0.00  0.00    -0.230 N 
ATOM      6  C   UNL     1      -9.893   9.313  70.601  0.00  0.00    +0.231 C 
ATOM      7  O   UNL     1      -9.050  10.015  69.988  0.00  0.00    -0.274 OA
ATOM      8  C   UNL     1      -9.729   7.842  70.735  0.00  0.00    +0.086 C 
ATOM      9  C   UNL     1     -10.339   7.323  72.000  0.00  0.00    +0.017 C 
ATOM     10  C   UNL     1     -10.677   5.843  71.912  0.00  0.00    +0.001 C 
ATOM     11  C   UNL     1     -11.020   5.557  73.369  0.00  0.00    +0.000 C 
ATOM     12  C   UNL     1     -10.146   6.494  74.185  0.00  0.00    +0.000 C 
ATOM     13  C   UNL     1      -9.374   7.330  73.171  0.00  0.00    +0.001 C 
ATOM     14  C   UNL     1     -11.579   8.043  72.434  0.00  0.00    +0.086 C 
ENDBRANCH   2   5
ENDBRANCH   1   2
BRANCH   1  15
ATOM     15  C   UNL     1     -11.001  11.853  67.999  0.00  0.00    +0.019 C 
BRANCH  15  16
ATOM     16  C   UNL     1     -11.716  12.658  66.919  0.00  0.00    +0.072 C 
BRANCH  16  17
ATOM     17  N   UNL     1     -11.289  14.007  67.049  0.00  0.00    -0.270 NA
ATOM     18  C   UNL     1     -10.421  14.320  68.106  0.00  0.00    +0.094 C 
ATOM     19  C   UNL     1      -9.216  15.132  67.788  0.00  0.00    +0.111 C 
ATOM     20  N   UNL     1      -9.395  16.015  66.643  0.00  0.00    -0.275 N 
ATOM     21  C   UNL     1      -9.622  17.401  66.804  0.00  0.00    +0.220 A 
ATOM     22  N   UNL     1      -8.988  18.014  67.828  0.00  0.00    -0.212 NA
ATOM     23  C   UNL     1      -9.374  19.250  68.192  0.00  0.00    +0.103 A 
ATOM     24  C   UNL     1     -10.088  20.030  67.293  0.00  0.00    +0.041 A 
ATOM     25  C   UNL     1     -10.450  19.452  66.093  0.00  0.00    +0.103 A 
ATOM     26  N   UNL     1     -10.284  18.134  65.906  0.00  0.00    -0.212 NA
ATOM     27  C   UNL     1      -9.966  15.362  65.467  0.00  0.00    +0.111 C 
ATOM     28  C   UNL     1     -11.291  14.806  65.893  0.00  0.00    +0.094 C 
ENDBRANCH  16  17
ENDBRANCH  15  16
ENDBRANCH   1  15
TORSDOF 5
ENDMDL
MODEL 8
REMARK VINA RESULT:      -6.7      2.145      8.971
REMARK  Name = 
REMARK  5 active torsions:
REMARK  status: ('A' for Active; 'I' for Inactive)
REMARK    1  A    between atoms: N_12  and  C_13
REMARK    2  A    between atoms: C_13  and  C_14
REMARK    3  A    between atoms: C_14  and  C_15
REMARK    4  A    between atoms: C_15  and  C_16
REMARK    5  A    between atoms: C_16  and  N_17
REMARK                            x       y       z     vdW  Elec       q    Type
REMARK                         _______ _______ _______ _____ _____    ______ ____
ROOT
ATOM      1  C   UNL     1      -9.940  11.531  66.526  0.00  0.00    +0.023 C 
ENDROOT
BRANCH   1   2
ATOM      2  C   UNL     1     -10.912  10.429  66.844  0.00  0.00    +0.101 C 
BRANCH   2   5
ATOM      3  O   UNL     1      -9.118   8.475  67.825  0.00  0.00    -0.274 OA
ATOM      4  C   UNL     1     -10.059   8.816  68.594  0.00  0.00    +0.231 C 
ATOM      5  N   UNL     1     -10.792   9.984  68.210  0.00  0.00    -0.230 N 
ATOM      6  C   UNL     1     -11.672  10.499  69.217  0.00  0.00    +0.231 C 
ATOM      7  O   UNL     1     -12.376  11.502  68.933  0.00  0.00    -0.274 OA
ATOM      8  C   UNL     1     -11.265  10.207  70.616  0.00  0.00    +0.086 C 
ATOM      9  C   UNL     1     -11.102   8.739  70.857  0.00  0.00    +0.017 C 
ATOM     10  C   UNL     1     -10.191   8.446  72.039  0.00  0.00    +0.001 C 
ATOM     11  C   UNL     1     -10.421   6.948  72.194  0.00  0.00    +0.000 C 
ATOM     12  C   UNL     1     -11.856   6.709  71.758  0.00  0.00    +0.000 C 
ATOM     13  C   UNL     1     -12.385   8.066  71.310  0.00  0.00    +0.001 C 
ATOM     14  C   UNL     1     -10.579   7.969  69.684  0.00  0.00    +0.086 C 
ENDBRANCH   2   5
ENDBRANCH   1   2
BRANCH   1  15
ATOM     15  C   UNL     1     -10.467  12.318  65.358  0.00  0.00    +0.019 C 
BRANCH  15  16
ATOM     16  C   UNL     1     -11.720  13.048  65.827  0.00  0.00    +0.072 C 
BRANCH  16  17
ATOM     17  N   UNL     1     -11.322  14.354  66.224  0.00  0.00    -0.270 NA
ATOM     18  C   UNL     1     -11.466  14.699  67.576  0.00  0.00    +0.094 C 
ATOM     19  C   UNL     1     -10.305  15.343  68.247  0.00  0.00    +0.111 C 
ATOM     20  N   UNL     1      -9.454  16.100  67.338  0.00  0.00    -0.275 N 
ATOM     21  C   UNL     1      -9.509  17.511  67.274  0.00  0.00    +0.220 A 
ATOM     22  N   UNL     1      -9.738  18.172  68.429  0.00  0.00    -0.212 NA
ATOM     23  C   UNL     1     -10.071  19.474  68.384  0.00  0.00    +0.103 A 
ATOM     24  C   UNL     1      -9.771  20.212  67.246  0.00  0.00    +0.041 A 
ATOM     25  C   UNL     1      -9.226  19.537  66.173  0.00  0.00    +0.103 A 
ATOM     26  N   UNL     1      -9.183  18.197  66.175  0.00  0.00    -0.212 NA
ATOM     27  C   UNL     1      -9.078  15.375  66.127  0.00  0.00    +0.111 C 
ATOM     28  C   UNL     1     -10.358  15.008  65.438  0.00  0.00    +0.094 C 
ENDBRANCH  16  17
ENDBRANCH  15  16
ENDBRANCH   1  15
TORSDOF 5
ENDMDL
MODEL 9
REMARK VINA RESULT:      -6.7      3.363      5.200
REMARK  Name = 
REMARK  5 active torsions:
REMARK  status: ('A' for Active; 'I' for Inactive)
REMARK    1  A    between atoms: N_12  and  C_13
REMARK    2  A    between atoms: C_13  and  C_14
REMARK    3  A    between atoms: C_14  and  C_15
REMARK    4  A    between atoms: C_15  and  C_16
REMARK    5  A    between atoms: C_16  and  N_17
REMARK                            x       y       z     vdW  Elec       q    Type
REMARK                         _______ _______ _______ _____ _____    ______ ____
ROOT
ATOM      1  C   UNL     1     -10.427  10.889  67.810  0.00  0.00    +0.023 C 
ENDROOT
BRANCH   1   2
ATOM      2  C   UNL     1     -11.752  11.574  67.997  0.00  0.00    +0.101 C 
BRANCH   2   5
ATOM      3  O   UNL     1     -11.940  11.024  70.765  0.00  0.00    -0.274 OA
ATOM      4  C   UNL     1     -12.073  12.231  70.418  0.00  0.00    +0.231 C 
ATOM      5  N   UNL     1     -11.711  12.539  69.068  0.00  0.00    -0.230 N 
ATOM      6  C   UNL     1     -11.621  13.939  68.775  0.00  0.00    +0.231 C 
ATOM      7  O   UNL     1     -11.344  14.282  67.597  0.00  0.00    -0.274 OA
ATOM      8  C   UNL     1     -11.281  14.803  69.936  0.00  0.00    +0.086 C 
ATOM      9  C   UNL     1     -12.251  14.633  71.063  0.00  0.00    +0.017 C 
ATOM     10  C   UNL     1     -11.657  15.044  72.401  0.00  0.00    +0.001 C 
ATOM     11  C   UNL     1     -12.906  15.012  73.273  0.00  0.00    +0.000 C 
ATOM     12  C   UNL     1     -14.054  15.394  72.355  0.00  0.00    +0.000 C 
ATOM     13  C   UNL     1     -13.437  15.575  70.973  0.00  0.00    +0.001 C 
ATOM     14  C   UNL     1     -12.789  13.243  71.217  0.00  0.00    +0.086 C 
ENDBRANCH   2   5
ENDBRANCH   1   2
BRANCH   1  15
ATOM     15  C   UNL     1     -10.605   9.416  68.055  0.00  0.00    +0.019 C 
BRANCH  15  16
ATOM     16  C   UNL     1      -9.256   8.861  68.499  0.00  0.00    +0.072 C 
BRANCH  16  17
ATOM     17  N   UNL     1      -9.476   8.139  69.704  0.00  0.00    -0.270 NA
ATOM     18  C   UNL     1      -9.017   8.709  70.901  0.00  0.00    +0.094 C 
ATOM     19  C   UNL     1      -9.960   8.742  72.051  0.00  0.00    +0.111 C 
ATOM     20  N   UNL     1     -10.941   7.665  72.029  0.00  0.00    -0.275 N 
ATOM     21  C   UNL     1     -10.815   6.530  72.862  0.00  0.00    +0.220 A 
ATOM     22  N   UNL     1     -10.296   6.724  74.095  0.00  0.00    -0.212 NA
ATOM     23  C   UNL     1      -9.902   5.659  74.815  0.00  0.00    +0.103 A 
ATOM     24  C   UNL     1     -10.398   4.402  74.496  0.00  0.00    +0.041 A 
ATOM     25  C   UNL     1     -11.206   4.300  73.382  0.00  0.00    +0.103 A 
ATOM     26  N   UNL     1     -11.331   5.340  72.545  0.00  0.00    -0.212 NA
ATOM     27  C   UNL     1     -11.619   7.498  70.746  0.00  0.00    +0.111 C 
ATOM     28  C   UNL     1     -10.546   7.229  69.733  0.00  0.00    +0.094 C 
ENDBRANCH  16  17
ENDBRANCH  15  16
ENDBRANCH   1  15
TORSDOF 5
ENDMDL
