MODEL 1
REMARK VINA RESULT:      -8.1      0.000      0.000
REMARK  Name = 
REMARK  4 active torsions:
REMARK  status: ('A' for Active; 'I' for Inactive)
REMARK    1  A    between atoms: C_2  and  C_3
REMARK    2  A    between atoms: C_10  and  N_11
REMARK    3  A    between atoms: N_11  and  C_12
REMARK    4  A    between atoms: C_22  and  C_24
REMARK                            x       y       z     vdW  Elec       q    Type
REMARK                         _______ _______ _______ _____ _____    ______ ____
ROOT
ATOM      1  C   UNL     1     -11.058  12.010  64.771  0.00  0.00    +0.071 A 
ATOM      2  C   UNL     1     -10.630  11.119  65.753  0.00  0.00    +0.105 A 
ATOM      3  C   UNL     1      -9.973   9.999  65.248  0.00  0.00    +0.183 A 
ATOM      4  F   UNL     1     -10.037   8.882  65.987  0.00  0.00    -0.200 F 
ATOM      5  C   UNL     1      -9.479   9.915  63.973  0.00  0.00    +0.169 A 
ATOM      6  F   UNL     1      -8.614   8.935  63.580  0.00  0.00    -0.202 F 
ATOM      7  C   UNL     1      -9.788  10.926  63.072  0.00  0.00    +0.032 A 
ATOM      8  C   UNL     1     -10.529  12.016  63.497  0.00  0.00    +0.008 A 
ENDROOT
BRANCH   1  10
ATOM      9  O   UNL     1     -12.121  13.278  65.257  0.00  0.00    -0.270 OA
ATOM     10  C   UNL     1     -11.701  13.249  65.238  0.00  0.00    +0.250 C 
ATOM     11  N   UNL     1     -10.823  14.215  65.843  0.00  0.00    -0.271 N 
ATOM     12  C   UNL     1      -9.645  14.970  65.527  0.00  0.00    +0.127 C 
ATOM     13  C   UNL     1     -10.287  16.171  66.109  0.00  0.00    +0.177 C 
ATOM     14  O   UNL     1     -10.853  17.095  65.271  0.00  0.00    -0.221 OA
ATOM     15  C   UNL     1     -11.156  15.235  66.843  0.00  0.00    +0.127 C 
BRANCH  13  16
ATOM     16  C   UNL     1      -9.260  16.932  67.131  0.00  0.00    +0.104 C 
ATOM     17  N   UNL     1      -8.670  17.835  65.984  0.00  0.00    -0.217 NA
ATOM     18  C   UNL     1      -7.697  18.683  66.623  0.00  0.00    +0.089 C 
ATOM     19  C   UNL     1      -8.071  18.875  68.086  0.00  0.00    +0.019 C 
ATOM     20  C   UNL     1      -9.546  19.132  68.237  0.00  0.00    +0.003 C 
ATOM     21  C   UNL     1     -10.369  18.068  67.551  0.00  0.00    +0.020 C 
ENDBRANCH  13  16
ENDBRANCH   1  10
BRANCH   2  22
ATOM     22  N   UNL     1     -10.300  11.502  67.067  0.00  0.00    -0.208 NA
BRANCH  22  23
ATOM     23  C   UNL     1     -10.848  11.050  68.269  0.00  0.00    +0.098 A 
ATOM     24  C   UNL     1     -10.130  10.111  69.002  0.00  0.00    +0.156 A 
ATOM     25  F   UNL     1      -8.777   9.961  68.889  0.00  0.00    -0.203 F 
ATOM     26  C   UNL     1     -10.698   9.679  70.195  0.00  0.00    +0.037 A 
ATOM     27  C   UNL     1     -11.835  10.274  70.727  0.00  0.00    +0.032 A 
ATOM     28  I   UNL     1     -13.202   9.186  71.922  0.00  0.00    -0.042 I 
ATOM     29  C   UNL     1     -12.173  11.534  70.251  0.00  0.00    +0.007 A 
ATOM     30  C   UNL     1     -11.667  11.893  69.017  0.00  0.00    +0.019 A 
ENDBRANCH  22  23
ENDBRANCH   2  22
TORSDOF 4
ENDMDL
MODEL 2
REMARK VINA RESULT:      -7.9      2.786      4.966
REMARK  Name = 
REMARK  4 active torsions:
REMARK  status: ('A' for Active; 'I' for Inactive)
REMARK    1  A    between atoms: C_2  and  C_3
REMARK    2  A    between atoms: C_10  and  N_11
REMARK    3  A    between atoms: N_11  and  C_12
REMARK    4  A    between atoms: C_22  and  C_24
REMARK                            x       y       z     vdW  Elec       q    Type
REMARK                         _______ _______ _______ _____ _____    ______ ____
ROOT
ATOM      1  C   UNL     1     -11.631  13.765  68.717  0.00  0.00    +0.071 A 
ATOM      2  C   UNL     1     -11.628  12.464  68.217  0.00  0.00    +0.105 A 
ATOM      3  C   UNL     1     -11.791  11.486  69.194  0.00  0.00    +0.183 A 
ATOM      4  F   UNL     1     -11.256  10.283  68.935  0.00  0.00    -0.200 F 
ATOM      5  C   UNL     1     -12.250  11.740  70.460  0.00  0.00    +0.169 A 
ATOM      6  F   UNL     1     -12.656  10.753  71.311  0.00  0.00    -0.202 F 
ATOM      7  C   UNL     1     -12.407  13.062  70.857  0.00  0.00    +0.032 A 
ATOM      8  C   UNL     1     -12.158  14.080  69.952  0.00  0.00    +0.008 A 
ENDROOT
BRANCH   1  10
ATOM      9  O   UNL     1     -11.819  14.892  67.427  0.00  0.00    -0.270 OA
ATOM     10  C   UNL     1     -11.531  14.852  67.731  0.00  0.00    +0.250 C 
ATOM     11  N   UNL     1     -10.562  15.873  68.028  0.00  0.00    -0.271 N 
ATOM     12  C   UNL     1      -9.157  16.005  68.287  0.00  0.00    +0.127 C 
ATOM     13  C   UNL     1      -9.122  17.168  67.370  0.00  0.00    +0.177 C 
ATOM     14  O   UNL     1      -8.660  16.993  66.092  0.00  0.00    -0.221 OA
ATOM     15  C   UNL     1     -10.572  17.277  67.605  0.00  0.00    +0.127 C 
BRANCH  13  16
ATOM     16  C   UNL     1      -8.326  18.420  68.062  0.00  0.00    +0.104 C 
ATOM     17  N   UNL     1      -6.917  17.847  67.653  0.00  0.00    -0.217 NA
ATOM     18  C   UNL     1      -5.957  18.806  68.133  0.00  0.00    +0.089 C 
ATOM     19  C   UNL     1      -6.602  20.183  68.202  0.00  0.00    +0.019 C 
ATOM     20  C   UNL     1      -7.424  20.455  66.971  0.00  0.00    +0.003 C 
ATOM     21  C   UNL     1      -8.418  19.348  66.711  0.00  0.00    +0.020 C 
ENDBRANCH  13  16
ENDBRANCH   1  10
BRANCH   2  22
ATOM     22  N   UNL     1     -12.043  12.126  66.915  0.00  0.00    -0.208 NA
BRANCH  22  23
ATOM     23  C   UNL     1     -11.261  11.722  65.830  0.00  0.00    +0.098 A 
ATOM     24  C   UNL     1     -11.493  12.324  64.598  0.00  0.00    +0.156 A 
ATOM     25  F   UNL     1     -12.064  13.558  64.473  0.00  0.00    -0.203 F 
ATOM     26  C   UNL     1     -10.700  11.904  63.536  0.00  0.00    +0.037 A 
ATOM     27  C   UNL     1      -9.613  11.059  63.719  0.00  0.00    +0.032 A 
ATOM     28  I   UNL     1      -8.978   9.722  62.205  0.00  0.00    -0.042 I 
ATOM     29  C   UNL     1      -9.109  10.942  65.008  0.00  0.00    +0.007 A 
ATOM     30  C   UNL     1      -9.958  11.279  66.044  0.00  0.00    +0.019 A 
ENDBRANCH  22  23
ENDBRANCH   2  22
TORSDOF 4
ENDMDL
MODEL 3
REMARK VINA RESULT:      -7.7      3.538      6.899
REMARK  Name = 
REMARK  4 active torsions:
REMARK  status: ('A' for Active; 'I' for Inactive)
REMARK    1  A    between atoms: C_2  and  C_3
REMARK    2  A    between atoms: C_10  and  N_11
REMARK    3  A    between atoms: N_11  and  C_12
REMARK    4  A    between atoms: C_22  and  C_24
REMARK                            x       y       z     vdW  Elec       q    Type
REMARK                         _______ _______ _______ _____ _____    ______ ____
ROOT
ATOM      1  C   UNL     1     -10.067  12.502  65.871  0.00  0.00    +0.071 A 
ATOM      2  C   UNL     1      -9.953  13.848  66.210  0.00  0.00    +0.105 A 
ATOM      3  C   UNL     1     -10.786  14.687  65.475  0.00  0.00    +0.183 A 
ATOM      4  F   UNL     1     -10.371  15.951  65.311  0.00  0.00    -0.200 F 
ATOM      5  C   UNL     1     -11.855  14.247  64.741  0.00  0.00    +0.169 A 
ATOM      6  F   UNL     1     -12.812  15.089  64.250  0.00  0.00    -0.202 F 
ATOM      7  C   UNL     1     -12.031  12.879  64.576  0.00  0.00    +0.032 A 
ATOM      8  C   UNL     1     -11.165  11.999  65.204  0.00  0.00    +0.008 A 
ENDROOT
BRANCH   1  10
ATOM      9  O   UNL     1      -8.851  11.511  66.584  0.00  0.00    -0.270 OA
ATOM     10  C   UNL     1      -9.263  11.551  66.655  0.00  0.00    +0.250 C 
ATOM     11  N   UNL     1      -9.918  10.984  67.804  0.00  0.00    -0.271 N 
ATOM     12  C   UNL     1     -11.094  10.230  68.132  0.00  0.00    +0.127 C 
ATOM     13  C   UNL     1     -10.265   9.363  69.001  0.00  0.00    +0.177 C 
ATOM     14  O   UNL     1      -9.863   8.140  68.531  0.00  0.00    -0.221 OA
ATOM     15  C   UNL     1      -9.301  10.476  69.034  0.00  0.00    +0.127 C 
BRANCH  13  16
ATOM     16  C   UNL     1     -10.977   9.168  70.462  0.00  0.00    +0.104 C 
ATOM     17  N   UNL     1     -11.379   7.678  70.151  0.00  0.00    -0.217 NA
ATOM     18  C   UNL     1     -12.042   7.201  71.337  0.00  0.00    +0.089 C 
ATOM     19  C   UNL     1     -11.531   7.968  72.549  0.00  0.00    +0.019 C 
ATOM     20  C   UNL     1     -10.034   8.118  72.500  0.00  0.00    +0.003 C 
ATOM     21  C   UNL     1      -9.577   8.712  71.189  0.00  0.00    +0.020 C 
ENDBRANCH  13  16
ENDBRANCH   1  10
BRANCH   2  22
ATOM     22  N   UNL     1      -9.573  14.302  67.488  0.00  0.00    -0.208 NA
BRANCH  22  23
ATOM     23  C   UNL     1     -10.391  14.649  68.566  0.00  0.00    +0.098 A 
ATOM     24  C   UNL     1     -10.490  15.995  68.904  0.00  0.00    +0.156 A 
ATOM     25  F   UNL     1     -10.246  17.001  68.013  0.00  0.00    -0.203 F 
ATOM     26  C   UNL     1     -11.311  16.312  69.979  0.00  0.00    +0.037 A 
ATOM     27  C   UNL     1     -12.133  15.368  70.582  0.00  0.00    +0.032 A 
ATOM     28  I   UNL     1     -12.655  15.496  72.629  0.00  0.00    -0.042 I 
ATOM     29  C   UNL     1     -12.400  14.209  69.865  0.00  0.00    +0.007 A 
ATOM     30  C   UNL     1     -11.509  13.874  68.864  0.00  0.00    +0.019 A 
ENDBRANCH  22  23
ENDBRANCH   2  22
TORSDOF 4
ENDMDL
MODEL 4
REMARK VINA RESULT:      -7.2      2.895      3.463
REMARK  Name = 
REMARK  4 active torsions:
REMARK  status: ('A' for Active; 'I' for Inactive)
REMARK    1  A    between atoms: C_2  and  C_3
REMARK    2  A    between atoms: C_10  and  N_11
REMARK    3  A    between atoms: N_11  and  C_12
REMARK    4  A    between atoms: C_22  and  C_24
REMARK                            x       y       z     vdW  Elec       q    Type
REMARK                         _______ _______ _______ _____ _____    ______ ____
ROOT
ATOM      1  C   UNL     1     -10.044  12.778  65.655  0.00  0.00    +0.071 A 
ATOM      2  C   UNL     1     -11.364  12.713  66.095  0.00  0.00    +0.105 A 
ATOM      3  C   UNL     1     -12.294  12.584  65.066  0.00  0.00    +0.183 A 
ATOM      4  F   UNL     1     -13.522  13.067  65.303  0.00  0.00    -0.200 F 
ATOM      5  C   UNL     1     -11.971  12.212  63.788  0.00  0.00    +0.169 A 
ATOM      6  F   UNL     1     -12.907  11.831  62.870  0.00  0.00    -0.202 F 
ATOM      7  C   UNL     1     -10.629  12.117  63.442  0.00  0.00    +0.032 A 
ATOM      8  C   UNL     1      -9.659  12.338  64.405  0.00  0.00    +0.008 A 
ENDROOT
BRANCH   1  10
ATOM      9  O   UNL     1      -8.836  12.496  66.852  0.00  0.00    -0.270 OA
ATOM     10  C   UNL     1      -9.003  12.848  66.693  0.00  0.00    +0.250 C 
ATOM     11  N   UNL     1      -8.445  14.154  66.927  0.00  0.00    -0.271 N 
ATOM     12  C   UNL     1      -8.869  15.475  67.290  0.00  0.00    +0.127 C 
ATOM     13  C   UNL     1      -7.740  15.548  68.246  0.00  0.00    +0.177 C 
ATOM     14  O   UNL     1      -7.980  15.328  69.577  0.00  0.00    -0.221 OA
ATOM     15  C   UNL     1      -7.113  14.486  67.441  0.00  0.00    +0.127 C 
BRANCH  13  16
ATOM     16  C   UNL     1      -6.933  16.962  68.074  0.00  0.00    +0.104 C 
ATOM     17  N   UNL     1      -8.113  17.798  68.696  0.00  0.00    -0.217 NA
ATOM     18  C   UNL     1      -7.658  19.164  68.700  0.00  0.00    +0.089 C 
ATOM     19  C   UNL     1      -6.138  19.194  68.771  0.00  0.00    +0.019 C 
ATOM     20  C   UNL     1      -5.626  18.199  69.778  0.00  0.00    +0.003 C 
ATOM     21  C   UNL     1      -6.178  16.817  69.525  0.00  0.00    +0.020 C 
ENDBRANCH  13  16
ENDBRANCH   1  10
BRANCH   2  22
ATOM     22  N   UNL     1     -11.745  12.209  67.353  0.00  0.00    -0.208 NA
BRANCH  22  23
ATOM     23  C   UNL     1     -12.072  12.918  68.511  0.00  0.00    +0.098 A 
ATOM     24  C   UNL     1     -11.945  12.266  69.733  0.00  0.00    +0.156 A 
ATOM     25  F   UNL     1     -11.110  11.201  69.921  0.00  0.00    -0.203 F 
ATOM     26  C   UNL     1     -12.275  12.995  70.870  0.00  0.00    +0.037 A 
ATOM     27  C   UNL     1     -12.550  14.355  70.818  0.00  0.00    +0.032 A 
ATOM     28  I   UNL     1     -13.867  15.276  72.195  0.00  0.00    -0.042 I 
ATOM     29  C   UNL     1     -12.126  15.045  69.689  0.00  0.00    +0.007 A 
ATOM     30  C   UNL     1     -11.898  14.299  68.550  0.00  0.00    +0.019 A 
ENDBRANCH  22  23
ENDBRANCH   2  22
TORSDOF 4
ENDMDL
MODEL 5
REMARK VINA RESULT:      -7.1      2.153      2.495
REMARK  Name = 
REMARK  4 active torsions:
REMARK  status: ('A' for Active; 'I' for Inactive)
REMARK    1  A    between atoms: C_2  and  C_3
REMARK    2  A    between atoms: C_10  and  N_11
REMARK    3  A    between atoms: N_11  and  C_12
REMARK    4  A    between atoms: C_22  and  C_24
REMARK                            x       y       z     vdW  Elec       q    Type
REMARK                         _______ _______ _______ _____ _____    ______ ____
ROOT
ATOM      1  C   UNL     1     -11.200  12.394  65.030  0.00  0.00    +0.071 A 
ATOM      2  C   UNL     1     -10.839  11.429  65.967  0.00  0.00    +0.105 A 
ATOM      3  C   UNL     1     -10.277  10.284  65.407  0.00  0.00    +0.183 A 
ATOM      4  F   UNL     1     -10.425   9.143  66.097  0.00  0.00    -0.200 F 
ATOM      5  C   UNL     1      -9.800  10.217  64.125  0.00  0.00    +0.169 A 
ATOM      6  F   UNL     1      -9.019   9.190  63.680  0.00  0.00    -0.202 F 
ATOM      7  C   UNL     1     -10.033  11.288  63.272  0.00  0.00    +0.032 A 
ATOM      8  C   UNL     1     -10.681  12.414  63.752  0.00  0.00    +0.008 A 
ENDROOT
BRANCH   1  10
ATOM      9  O   UNL     1     -12.152  13.704  65.621  0.00  0.00    -0.270 OA
ATOM     10  C   UNL     1     -11.738  13.658  65.558  0.00  0.00    +0.250 C 
ATOM     11  N   UNL     1     -10.762  14.588  66.061  0.00  0.00    -0.271 N 
ATOM     12  C   UNL     1      -9.594  15.293  65.618  0.00  0.00    +0.127 C 
ATOM     13  C   UNL     1     -10.121  16.519  66.260  0.00  0.00    +0.177 C 
ATOM     14  O   UNL     1     -10.735  17.466  65.483  0.00  0.00    -0.221 OA
ATOM     15  C   UNL     1     -10.944  15.620  67.086  0.00  0.00    +0.127 C 
BRANCH  13  16
ATOM     16  C   UNL     1      -8.960  17.237  67.163  0.00  0.00    +0.104 C 
ATOM     17  N   UNL     1      -8.556  18.218  65.999  0.00  0.00    -0.217 NA
ATOM     18  C   UNL     1      -7.507  19.044  66.537  0.00  0.00    +0.089 C 
ATOM     19  C   UNL     1      -7.660  19.142  68.049  0.00  0.00    +0.019 C 
ATOM     20  C   UNL     1      -9.099  19.363  68.431  0.00  0.00    +0.003 C 
ATOM     21  C   UNL     1     -10.004  18.326  67.811  0.00  0.00    +0.020 C 
ENDBRANCH  13  16
ENDBRANCH   1  10
BRANCH   2  22
ATOM     22  N   UNL     1     -10.469  11.725  67.293  0.00  0.00    -0.208 NA
BRANCH  22  23
ATOM     23  C   UNL     1      -9.192  11.744  67.857  0.00  0.00    +0.098 A 
ATOM     24  C   UNL     1      -8.849  10.720  68.734  0.00  0.00    +0.156 A 
ATOM     25  F   UNL     1      -9.458   9.498  68.717  0.00  0.00    -0.203 F 
ATOM     26  C   UNL     1      -7.571  10.763  69.279  0.00  0.00    +0.037 A 
ATOM     27  C   UNL     1      -6.616  11.673  68.844  0.00  0.00    +0.032 A 
ATOM     28  I   UNL     1      -5.099  12.392  70.135  0.00  0.00    -0.042 I 
ATOM     29  C   UNL     1      -6.831  12.282  67.615  0.00  0.00    +0.007 A 
ATOM     30  C   UNL     1      -8.131  12.304  67.148  0.00  0.00    +0.019 A 
ENDBRANCH  22  23
ENDBRANCH   2  22
TORSDOF 4
ENDMDL
MODEL 6
REMARK VINA RESULT:      -7.0      2.961      5.042
REMARK  Name = 
REMARK  4 active torsions:
REMARK  status: ('A' for Active; 'I' for Inactive)
REMARK    1  A    between atoms: C_2  and  C_3
REMARK    2  A    between atoms: C_10  and  N_11
REMARK    3  A    between atoms: N_11  and  C_12
REMARK    4  A    between atoms: C_22  and  C_24
REMARK                            x       y       z     vdW  Elec       q    Type
REMARK                         _______ _______ _______ _____ _____    ______ ____
ROOT
ATOM      1  C   UNL     1     -11.614  10.643  69.646  0.00  0.00    +0.071 A 
ATOM      2  C   UNL     1     -10.439   9.944  69.915  0.00  0.00    +0.105 A 
ATOM      3  C   UNL     1     -10.450   9.271  71.134  0.00  0.00    +0.183 A 
ATOM      4  F   UNL     1      -9.261   9.071  71.721  0.00  0.00    -0.200 F 
ATOM      5  C   UNL     1     -11.588   9.016  71.853  0.00  0.00    +0.169 A 
ATOM      6  F   UNL     1     -11.621   8.134  72.896  0.00  0.00    -0.202 F 
ATOM      7  C   UNL     1     -12.780   9.597  71.441  0.00  0.00    +0.032 A 
ATOM      8  C   UNL     1     -12.802  10.363  70.288  0.00  0.00    +0.008 A 
ENDROOT
BRANCH   1  10
ATOM      9  O   UNL     1     -11.847  11.121  68.007  0.00  0.00    -0.270 OA
ATOM     10  C   UNL     1     -11.696  11.322  68.343  0.00  0.00    +0.250 C 
ATOM     11  N   UNL     1     -11.471  12.743  68.369  0.00  0.00    -0.271 N 
ATOM     12  C   UNL     1     -10.468  13.685  68.774  0.00  0.00    +0.127 C 
ATOM     13  C   UNL     1     -10.661  14.405  67.495  0.00  0.00    +0.177 C 
ATOM     14  O   UNL     1      -9.767  14.204  66.476  0.00  0.00    -0.221 OA
ATOM     15  C   UNL     1     -11.980  13.753  67.436  0.00  0.00    +0.127 C 
BRANCH  13  16
ATOM     16  C   UNL     1     -10.819  16.013  67.760  0.00  0.00    +0.104 C 
ATOM     17  N   UNL     1      -9.310  16.167  68.183  0.00  0.00    -0.217 NA
ATOM     18  C   UNL     1      -9.131  17.566  68.469  0.00  0.00    +0.089 C 
ATOM     19  C   UNL     1     -10.132  18.383  67.664  0.00  0.00    +0.019 C 
ATOM     20  C   UNL     1     -10.221  17.883  66.248  0.00  0.00    +0.003 C 
ATOM     21  C   UNL     1     -10.493  16.399  66.198  0.00  0.00    +0.020 C 
ENDBRANCH  13  16
ENDBRANCH   1  10
BRANCH   2  22
ATOM     22  N   UNL     1      -9.595   9.420  68.916  0.00  0.00    -0.208 NA
BRANCH  22  23
ATOM     23  C   UNL     1      -9.437   8.090  68.521  0.00  0.00    +0.098 A 
ATOM     24  C   UNL     1     -10.314   7.584  67.567  0.00  0.00    +0.156 A 
ATOM     25  F   UNL     1     -10.978   8.378  66.677  0.00  0.00    -0.203 F 
ATOM     26  C   UNL     1     -10.133   6.257  67.190  0.00  0.00    +0.037 A 
ATOM     27  C   UNL     1      -9.033   5.518  67.604  0.00  0.00    +0.032 A 
ATOM     28  I   UNL     1      -9.134   3.419  67.853  0.00  0.00    -0.042 I 
ATOM     29  C   UNL     1      -7.937   6.225  68.084  0.00  0.00    +0.007 A 
ATOM     30  C   UNL     1      -8.171   7.508  68.538  0.00  0.00    +0.019 A 
ENDBRANCH  22  23
ENDBRANCH   2  22
TORSDOF 4
ENDMDL
MODEL 7
REMARK VINA RESULT:      -7.0      3.801      6.974
REMARK  Name = 
REMARK  4 active torsions:
REMARK  status: ('A' for Active; 'I' for Inactive)
REMARK    1  A    between atoms: C_2  and  C_3
REMARK    2  A    between atoms: C_10  and  N_11
REMARK    3  A    between atoms: N_11  and  C_12
REMARK    4  A    between atoms: C_22  and  C_24
REMARK                            x       y       z     vdW  Elec       q    Type
REMARK                         _______ _______ _______ _____ _____    ______ ____
ROOT
ATOM      1  C   UNL     1     -11.460  12.518  66.653  0.00  0.00    +0.071 A 
ATOM      2  C   UNL     1     -10.748  11.854  65.657  0.00  0.00    +0.105 A 
ATOM      3  C   UNL     1     -11.263  12.043  64.377  0.00  0.00    +0.183 A 
ATOM      4  F   UNL     1     -11.040  11.063  63.489  0.00  0.00    -0.200 F 
ATOM      5  C   UNL     1     -12.151  13.033  64.051  0.00  0.00    +0.169 A 
ATOM      6  F   UNL     1     -12.438  13.373  62.759  0.00  0.00    -0.202 F 
ATOM      7  C   UNL     1     -12.705  13.793  65.073  0.00  0.00    +0.032 A 
ATOM      8  C   UNL     1     -12.303  13.575  66.380  0.00  0.00    +0.008 A 
ENDROOT
BRANCH   1  10
ATOM      9  O   UNL     1     -10.752  12.749  68.208  0.00  0.00    -0.270 OA
ATOM     10  C   UNL     1     -10.931  12.416  68.023  0.00  0.00    +0.250 C 
ATOM     11  N   UNL     1     -11.289  11.221  68.740  0.00  0.00    -0.271 N 
ATOM     12  C   UNL     1     -11.180   9.796  68.614  0.00  0.00    +0.127 C 
ATOM     13  C   UNL     1     -10.758   9.727  70.032  0.00  0.00    +0.177 C 
ATOM     14  O   UNL     1      -9.425   9.595  70.323  0.00  0.00    -0.221 OA
ATOM     15  C   UNL     1     -11.405  11.040  70.191  0.00  0.00    +0.127 C 
BRANCH  13  16
ATOM     16  C   UNL     1     -11.597   8.566  70.824  0.00  0.00    +0.104 C 
ATOM     17  N   UNL     1     -10.784   7.405  70.139  0.00  0.00    -0.217 NA
ATOM     18  C   UNL     1     -11.312   6.185  70.691  0.00  0.00    +0.089 C 
ATOM     19  C   UNL     1     -11.877   6.457  72.079  0.00  0.00    +0.019 C 
ATOM     20  C   UNL     1     -10.949   7.335  72.875  0.00  0.00    +0.003 C 
ATOM     21  C   UNL     1     -10.594   8.596  72.124  0.00  0.00    +0.020 C 
ENDBRANCH  13  16
ENDBRANCH   1  10
BRANCH   2  22
ATOM     22  N   UNL     1      -9.374  11.556  65.743  0.00  0.00    -0.208 NA
BRANCH  22  23
ATOM     23  C   UNL     1      -8.766  10.322  65.982  0.00  0.00    +0.098 A 
ATOM     24  C   UNL     1      -7.877  10.228  67.048  0.00  0.00    +0.156 A 
ATOM     25  F   UNL     1      -7.914  11.073  68.120  0.00  0.00    -0.203 F 
ATOM     26  C   UNL     1      -7.286   8.987  67.264  0.00  0.00    +0.037 A 
ATOM     27  C   UNL     1      -7.686   7.851  66.573  0.00  0.00    +0.032 A 
ATOM     28  I   UNL     1      -6.343   6.266  66.170  0.00  0.00    -0.042 I 
ATOM     29  C   UNL     1      -8.923   7.894  65.942  0.00  0.00    +0.007 A 
ATOM     30  C   UNL     1      -9.436   9.145  65.657  0.00  0.00    +0.019 A 
ENDBRANCH  22  23
ENDBRANCH   2  22
TORSDOF 4
ENDMDL
MODEL 8
REMARK VINA RESULT:      -7.0      3.761      7.153
REMARK  Name = 
REMARK  4 active torsions:
REMARK  status: ('A' for Active; 'I' for Inactive)
REMARK    1  A    between atoms: C_2  and  C_3
REMARK    2  A    between atoms: C_10  and  N_11
REMARK    3  A    between atoms: N_11  and  C_12
REMARK    4  A    between atoms: C_22  and  C_24
REMARK                            x       y       z     vdW  Elec       q    Type
REMARK                         _______ _______ _______ _____ _____    ______ ____
ROOT
ATOM      1  C   UNL     1      -9.876  11.373  65.770  0.00  0.00    +0.071 A 
ATOM      2  C   UNL     1     -11.092  11.866  66.236  0.00  0.00    +0.105 A 
ATOM      3  C   UNL     1     -11.961  12.268  65.224  0.00  0.00    +0.183 A 
ATOM      4  F   UNL     1     -12.845  13.226  65.537  0.00  0.00    -0.200 F 
ATOM      5  C   UNL     1     -11.815  11.915  63.908  0.00  0.00    +0.169 A 
ATOM      6  F   UNL     1     -12.805  12.087  62.983  0.00  0.00    -0.202 F 
ATOM      7  C   UNL     1     -10.653  11.262  63.520  0.00  0.00    +0.032 A 
ATOM      8  C   UNL     1      -9.706  10.929  64.475  0.00  0.00    +0.008 A 
ENDROOT
BRANCH   1  10
ATOM      9  O   UNL     1      -8.607  11.101  66.905  0.00  0.00    -0.270 OA
ATOM     10  C   UNL     1      -8.936  10.867  66.783  0.00  0.00    +0.250 C 
ATOM     11  N   UNL     1      -9.353   9.680  67.480  0.00  0.00    -0.271 N 
ATOM     12  C   UNL     1      -9.747   8.329  67.201  0.00  0.00    +0.127 C 
ATOM     13  C   UNL     1      -8.872   7.871  68.305  0.00  0.00    +0.177 C 
ATOM     14  O   UNL     1      -7.639   7.355  68.005  0.00  0.00    -0.221 OA
ATOM     15  C   UNL     1      -8.972   9.245  68.828  0.00  0.00    +0.127 C 
BRANCH  13  16
ATOM     16  C   UNL     1      -9.672   6.822  69.273  0.00  0.00    +0.104 C 
ATOM     17  N   UNL     1      -9.195   5.574  68.440  0.00  0.00    -0.217 NA
ATOM     18  C   UNL     1      -9.755   4.428  69.108  0.00  0.00    +0.089 C 
ATOM     19  C   UNL     1      -9.962   4.747  70.582  0.00  0.00    +0.019 C 
ATOM     20  C   UNL     1      -8.772   5.474  71.148  0.00  0.00    +0.003 C 
ATOM     21  C   UNL     1      -8.418   6.688  70.324  0.00  0.00    +0.020 C 
ENDBRANCH  13  16
ENDBRANCH   1  10
BRANCH   2  22
ATOM     22  N   UNL     1     -11.684  11.468  67.450  0.00  0.00    -0.208 NA
BRANCH  22  23
ATOM     23  C   UNL     1     -11.970  12.246  68.574  0.00  0.00    +0.098 A 
ATOM     24  C   UNL     1     -12.143  11.595  69.791  0.00  0.00    +0.156 A 
ATOM     25  F   UNL     1     -11.606  10.368  70.057  0.00  0.00    -0.203 F 
ATOM     26  C   UNL     1     -12.425  12.394  70.894  0.00  0.00    +0.037 A 
ATOM     27  C   UNL     1     -12.367  13.780  70.833  0.00  0.00    +0.032 A 
ATOM     28  I   UNL     1     -13.586  14.998  72.062  0.00  0.00    -0.042 I 
ATOM     29  C   UNL     1     -11.665  14.340  69.773  0.00  0.00    +0.007 A 
ATOM     30  C   UNL     1     -11.485  13.549  68.656  0.00  0.00    +0.019 A 
ENDBRANCH  22  23
ENDBRANCH   2  22
TORSDOF 4
ENDMDL
MODEL 9
REMARK VINA RESULT:      -7.0      1.479      1.912
REMARK  Name = 
REMARK  4 active torsions:
REMARK  status: ('A' for Active; 'I' for Inactive)
REMARK    1  A    between atoms: C_2  and  C_3
REMARK    2  A    between atoms: C_10  and  N_11
REMARK    3  A    between atoms: N_11  and  C_12
REMARK    4  A    between atoms: C_22  and  C_24
REMARK                            x       y       z     vdW  Elec       q    Type
REMARK                         _______ _______ _______ _____ _____    ______ ____
ROOT
ATOM      1  C   UNL     1     -11.082  12.596  65.728  0.00  0.00    +0.071 A 
ATOM      2  C   UNL     1     -10.471  11.425  66.170  0.00  0.00    +0.105 A 
ATOM      3  C   UNL     1     -10.253  10.490  65.162  0.00  0.00    +0.183 A 
ATOM      4  F   UNL     1     -10.218   9.202  65.535  0.00  0.00    -0.200 F 
ATOM      5  C   UNL     1     -10.302  10.783  63.825  0.00  0.00    +0.169 A 
ATOM      6  F   UNL     1      -9.829   9.936  62.864  0.00  0.00    -0.202 F 
ATOM      7  C   UNL     1     -10.755  12.037  63.435  0.00  0.00    +0.032 A 
ATOM      8  C   UNL     1     -11.084  12.974  64.401  0.00  0.00    +0.008 A 
ENDROOT
BRANCH   1  10
ATOM      9  O   UNL     1     -11.595  13.630  67.009  0.00  0.00    -0.270 OA
ATOM     10  C   UNL     1     -11.282  13.656  66.729  0.00  0.00    +0.250 C 
ATOM     11  N   UNL     1     -10.216  14.617  66.837  0.00  0.00    -0.271 N 
ATOM     12  C   UNL     1      -9.500  15.552  66.019  0.00  0.00    +0.127 C 
ATOM     13  C   UNL     1      -9.625  16.558  67.099  0.00  0.00    +0.177 C 
ATOM     14  O   UNL     1     -10.591  17.525  66.999  0.00  0.00    -0.221 OA
ATOM     15  C   UNL     1      -9.838  15.417  68.007  0.00  0.00    +0.127 C 
BRANCH  13  16
ATOM     16  C   UNL     1      -8.181  17.270  67.391  0.00  0.00    +0.104 C 
ATOM     17  N   UNL     1      -8.290  18.184  66.113  0.00  0.00    -0.217 NA
ATOM     18  C   UNL     1      -7.099  18.993  66.115  0.00  0.00    +0.089 C 
ATOM     19  C   UNL     1      -6.600  19.161  67.543  0.00  0.00    +0.019 C 
ATOM     20  C   UNL     1      -7.739  19.451  68.483  0.00  0.00    +0.003 C 
ATOM     21  C   UNL     1      -8.838  18.423  68.358  0.00  0.00    +0.020 C 
ENDBRANCH  13  16
ENDBRANCH   1  10
BRANCH   2  22
ATOM     22  N   UNL     1      -9.606  11.365  67.280  0.00  0.00    -0.208 NA
BRANCH  22  23
ATOM     23  C   UNL     1      -9.673  10.521  68.390  0.00  0.00    +0.098 A 
ATOM     24  C   UNL     1     -10.836  10.537  69.153  0.00  0.00    +0.156 A 
ATOM     25  F   UNL     1     -12.043  10.937  68.655  0.00  0.00    -0.203 F 
ATOM     26  C   UNL     1     -10.877   9.686  70.252  0.00  0.00    +0.037 A 
ATOM     27  C   UNL     1      -9.890   8.737  70.484  0.00  0.00    +0.032 A 
ATOM     28  I   UNL     1      -9.399   8.101  72.443  0.00  0.00    -0.042 I 
ATOM     29  C   UNL     1      -9.069   8.399  69.415  0.00  0.00    +0.007 A 
ATOM     30  C   UNL     1      -8.979   9.313  68.384  0.00  0.00    +0.019 A 
ENDBRANCH  22  23
ENDBRANCH   2  22
TORSDOF 4
ENDMDL
