MODEL 1
REMARK VINA RESULT:      -7.1      0.000      0.000
REMARK  Name = 
REMARK  0 active torsions:
REMARK  status: ('A' for Active; 'I' for Inactive)
REMARK                            x       y       z     vdW  Elec       q    Type
REMARK                         _______ _______ _______ _____ _____    ______ ____
ROOT
ATOM      1  C   UNL     1     -10.324  13.842  64.819  0.00  0.00    +0.090 C 
ATOM      2  N   UNL     1     -11.016  13.818  66.104  0.00  0.00    -0.271 NA
ATOM      3  C   UNL     1     -10.128  13.443  67.115  0.00  0.00    +0.077 C 
ATOM      4  C   UNL     1      -9.837  14.813  67.958  0.00  0.00    +0.047 C 
ATOM      5  C   UNL     1     -10.020  15.735  66.517  0.00  0.00    +0.047 C 
ATOM      6  C   UNL     1     -10.521  17.114  67.158  0.00  0.00    +0.014 A 
ATOM      7  C   UNL     1     -10.136  17.621  68.369  0.00  0.00    +0.141 A 
ATOM      8  O   UNL     1     -10.768  17.056  69.489  0.00  0.00    -0.454 OA
ATOM      9  C   UNL     1     -11.402  15.811  69.597  0.00  0.00    +0.141 A 
ATOM     10  C   UNL     1     -12.338  15.720  70.593  0.00  0.00    +0.038 A 
ATOM     11  C   UNL     1     -12.928  14.469  70.734  0.00  0.00    +0.015 A 
ATOM     12  C   UNL     1     -12.310  13.381  70.129  0.00  0.00    +0.058 A 
ATOM     13  C   UNL     1     -11.756  13.650  68.894  0.00  0.00    +0.010 A 
ATOM     14 CL   UNL     1     -12.263  11.821  70.932  0.00  0.00    -0.082 Cl
ATOM     15  C   UNL     1      -9.935  18.983  68.552  0.00  0.00    +0.037 A 
ATOM     16  C   UNL     1      -9.999  19.822  67.461  0.00  0.00    +0.003 A 
ATOM     17  C   UNL     1     -10.297  19.339  66.204  0.00  0.00    -0.000 A 
ATOM     18  C   UNL     1     -10.360  17.958  66.060  0.00  0.00    -0.001 A 
ATOM     19  C   UNL     1     -11.353  14.931  68.505  0.00  0.00    +0.015 A 
ATOM     20  C   UNL     1     -11.535  15.140  66.285  0.00  0.00    +0.077 C 
ENDROOT
TORSDOF 0
ENDMDL
MODEL 2
REMARK VINA RESULT:      -7.0      2.584      5.192
REMARK  Name = 
REMARK  0 active torsions:
REMARK  status: ('A' for Active; 'I' for Inactive)
REMARK                            x       y       z     vdW  Elec       q    Type
REMARK                         _______ _______ _______ _____ _____    ______ ____
ROOT
ATOM      1  C   UNL     1     -11.099  12.522  63.827  0.00  0.00    +0.090 C 
ATOM      2  N   UNL     1     -10.676  13.665  64.630  0.00  0.00    -0.271 NA
ATOM      3  C   UNL     1     -11.758  14.523  64.840  0.00  0.00    +0.077 C 
ATOM      4  C   UNL     1     -12.169  14.317  66.408  0.00  0.00    +0.047 C 
ATOM      5  C   UNL     1     -11.678  12.671  66.317  0.00  0.00    +0.047 C 
ATOM      6  C   UNL     1     -11.274  12.439  67.849  0.00  0.00    +0.014 A 
ATOM      7  C   UNL     1     -11.876  13.019  68.932  0.00  0.00    +0.141 A 
ATOM      8  O   UNL     1     -11.495  14.344  69.199  0.00  0.00    -0.454 OA
ATOM      9  C   UNL     1     -10.932  15.282  68.323  0.00  0.00    +0.141 A 
ATOM     10  C   UNL     1     -10.215  16.282  68.926  0.00  0.00    +0.038 A 
ATOM     11  C   UNL     1      -9.701  17.242  68.060  0.00  0.00    +0.015 A 
ATOM     12  C   UNL     1     -10.219  17.307  66.773  0.00  0.00    +0.058 A 
ATOM     13  C   UNL     1     -10.510  16.081  66.208  0.00  0.00    +0.010 A 
ATOM     14 CL   UNL     1     -10.470  18.857  65.988  0.00  0.00    -0.082 Cl
ATOM     15  C   UNL     1     -12.069  12.315  70.114  0.00  0.00    +0.037 A 
ATOM     16  C   UNL     1     -11.766  10.972  70.151  0.00  0.00    +0.003 A 
ATOM     17  C   UNL     1     -11.239  10.327  69.051  0.00  0.00    -0.000 A 
ATOM     18  C   UNL     1     -11.189  11.048  67.865  0.00  0.00    -0.001 A 
ATOM     19  C   UNL     1     -10.789  14.942  66.969  0.00  0.00    +0.015 A 
ATOM     20  C   UNL     1     -10.165  13.111  65.847  0.00  0.00    +0.077 C 
ENDROOT
TORSDOF 0
ENDMDL
MODEL 3
REMARK VINA RESULT:      -6.7      3.452      5.499
REMARK  Name = 
REMARK  0 active torsions:
REMARK  status: ('A' for Active; 'I' for Inactive)
REMARK                            x       y       z     vdW  Elec       q    Type
REMARK                         _______ _______ _______ _____ _____    ______ ____
ROOT
ATOM      1  C   UNL     1      -7.356  14.475  69.201  0.00  0.00    +0.090 C 
ATOM      2  N   UNL     1      -7.810  15.817  68.850  0.00  0.00    -0.271 NA
ATOM      3  C   UNL     1      -7.094  16.287  67.747  0.00  0.00    +0.077 C 
ATOM      4  C   UNL     1      -8.149  16.237  66.500  0.00  0.00    +0.047 C 
ATOM      5  C   UNL     1      -8.908  14.861  67.201  0.00  0.00    +0.047 C 
ATOM      6  C   UNL     1     -10.383  15.054  66.610  0.00  0.00    +0.014 A 
ATOM      7  C   UNL     1     -10.693  15.582  65.386  0.00  0.00    +0.141 A 
ATOM      8  O   UNL     1     -10.650  16.983  65.303  0.00  0.00    -0.454 OA
ATOM      9  C   UNL     1      -9.959  17.884  66.125  0.00  0.00    +0.141 A 
ATOM     10  C   UNL     1     -10.466  19.156  66.147  0.00  0.00    +0.038 A 
ATOM     11  C   UNL     1      -9.749  20.063  66.921  0.00  0.00    +0.015 A 
ATOM     12  C   UNL     1      -8.457  19.721  67.301  0.00  0.00    +0.058 A 
ATOM     13  C   UNL     1      -8.286  18.389  67.621  0.00  0.00    +0.010 A 
ATOM     14 CL   UNL     1      -7.187  20.933  67.338  0.00  0.00    -0.082 Cl
ATOM     15  C   UNL     1     -11.740  15.076  64.625  0.00  0.00    +0.037 A 
ATOM     16  C   UNL     1     -12.392  13.941  65.054  0.00  0.00    +0.003 A 
ATOM     17  C   UNL     1     -12.051  13.325  66.240  0.00  0.00    -0.000 A 
ATOM     18  C   UNL     1     -10.918  13.798  66.891  0.00  0.00    -0.001 A 
ATOM     19  C   UNL     1      -9.110  17.377  67.121  0.00  0.00    +0.015 A 
ATOM     20  C   UNL     1      -9.211  15.690  68.588  0.00  0.00    +0.077 C 
ENDROOT
TORSDOF 0
ENDMDL
MODEL 4
REMARK VINA RESULT:      -6.4      3.196      6.278
REMARK  Name = 
REMARK  0 active torsions:
REMARK  status: ('A' for Active; 'I' for Inactive)
REMARK                            x       y       z     vdW  Elec       q    Type
REMARK                         _______ _______ _______ _____ _____    ______ ____
ROOT
ATOM      1  C   UNL     1     -12.090  16.240  71.521  0.00  0.00    +0.090 C 
ATOM      2  N   UNL     1     -12.135  15.870  70.110  0.00  0.00    -0.271 NA
ATOM      3  C   UNL     1     -10.837  15.693  69.625  0.00  0.00    +0.077 C 
ATOM      4  C   UNL     1     -10.666  14.078  69.441  0.00  0.00    +0.047 C 
ATOM      5  C   UNL     1     -11.714  13.818  70.781  0.00  0.00    +0.047 C 
ATOM      6  C   UNL     1     -12.305  12.388  70.370  0.00  0.00    +0.014 A 
ATOM      7  C   UNL     1     -11.629  11.404  69.701  0.00  0.00    +0.141 A 
ATOM      8  O   UNL     1     -11.522  11.581  68.312  0.00  0.00    -0.454 OA
ATOM      9  C   UNL     1     -11.627  12.767  67.574  0.00  0.00    +0.141 A 
ATOM     10  C   UNL     1     -11.979  12.604  66.259  0.00  0.00    +0.038 A 
ATOM     11  C   UNL     1     -12.032  13.778  65.514  0.00  0.00    +0.015 A 
ATOM     12  C   UNL     1     -11.417  14.911  66.032  0.00  0.00    +0.058 A 
ATOM     13  C   UNL     1     -11.545  15.059  67.399  0.00  0.00    +0.010 A 
ATOM     14 CL   UNL     1     -10.552  16.018  64.980  0.00  0.00    -0.082 Cl
ATOM     15  C   UNL     1     -11.808  10.062  70.014  0.00  0.00    +0.037 A 
ATOM     16  C   UNL     1     -12.582   9.727  71.103  0.00  0.00    +0.003 A 
ATOM     17  C   UNL     1     -13.210  10.693  71.859  0.00  0.00    -0.000 A 
ATOM     18  C   UNL     1     -12.892  12.016  71.578  0.00  0.00    -0.001 A 
ATOM     19  C   UNL     1     -11.766  13.982  68.262  0.00  0.00    +0.015 A 
ATOM     20  C   UNL     1     -12.916  14.671  70.053  0.00  0.00    +0.077 C 
ENDROOT
TORSDOF 0
ENDMDL
MODEL 5
REMARK VINA RESULT:      -6.4      3.785      5.415
REMARK  Name = 
REMARK  0 active torsions:
REMARK  status: ('A' for Active; 'I' for Inactive)
REMARK                            x       y       z     vdW  Elec       q    Type
REMARK                         _______ _______ _______ _____ _____    ______ ____
ROOT
ATOM      1  C   UNL     1      -8.950   8.388  66.599  0.00  0.00    +0.090 C 
ATOM      2  N   UNL     1      -9.779   8.419  67.800  0.00  0.00    -0.271 NA
ATOM      3  C   UNL     1      -9.045   8.934  68.870  0.00  0.00    +0.077 C 
ATOM      4  C   UNL     1      -9.649  10.431  69.122  0.00  0.00    +0.047 C 
ATOM      5  C   UNL     1      -9.974  10.580  67.439  0.00  0.00    +0.047 C 
ATOM      6  C   UNL     1     -11.209  11.595  67.506  0.00  0.00    +0.014 A 
ATOM      7  C   UNL     1     -11.378  12.592  68.428  0.00  0.00    +0.141 A 
ATOM      8  O   UNL     1     -11.855  12.180  69.683  0.00  0.00    -0.454 OA
ATOM      9  C   UNL     1     -11.794  10.906  70.264  0.00  0.00    +0.141 A 
ATOM     10  C   UNL     1     -12.738  10.661  71.226  0.00  0.00    +0.038 A 
ATOM     11  C   UNL     1     -12.643   9.416  71.839  0.00  0.00    +0.015 A 
ATOM     12  C   UNL     1     -11.459   8.702  71.694  0.00  0.00    +0.058 A 
ATOM     13  C   UNL     1     -10.878   8.804  70.445  0.00  0.00    +0.010 A 
ATOM     14 CL   UNL     1     -10.805   7.775  73.032  0.00  0.00    -0.082 Cl
ATOM     15  C   UNL     1     -11.922  13.820  68.073  0.00  0.00    +0.037 A 
ATOM     16  C   UNL     1     -12.175  14.082  66.745  0.00  0.00    +0.003 A 
ATOM     17  C   UNL     1     -11.935  13.135  65.771  0.00  0.00    -0.000 A 
ATOM     18  C   UNL     1     -11.274  11.980  66.167  0.00  0.00    -0.001 A 
ATOM     19  C   UNL     1     -11.097   9.890  69.592  0.00  0.00    +0.015 A 
ATOM     20  C   UNL     1     -10.910   9.229  67.463  0.00  0.00    +0.077 C 
ENDROOT
TORSDOF 0
ENDMDL
MODEL 6
REMARK VINA RESULT:      -6.2      2.775      5.585
REMARK  Name = 
REMARK  0 active torsions:
REMARK  status: ('A' for Active; 'I' for Inactive)
REMARK                            x       y       z     vdW  Elec       q    Type
REMARK                         _______ _______ _______ _____ _____    ______ ____
ROOT
ATOM      1  C   UNL     1      -9.793  11.448  65.511  0.00  0.00    +0.090 C 
ATOM      2  N   UNL     1      -9.812  12.652  66.336  0.00  0.00    -0.271 NA
ATOM      3  C   UNL     1     -11.012  13.340  66.144  0.00  0.00    +0.077 C 
ATOM      4  C   UNL     1     -11.870  13.093  67.513  0.00  0.00    +0.047 C 
ATOM      5  C   UNL     1     -11.151  11.539  67.680  0.00  0.00    +0.047 C 
ATOM      6  C   UNL     1     -11.230  11.390  69.272  0.00  0.00    +0.014 A 
ATOM      7  C   UNL     1     -12.221  11.885  70.075  0.00  0.00    +0.141 A 
ATOM      8  O   UNL     1     -12.132  13.256  70.368  0.00  0.00    -0.454 OA
ATOM      9  C   UNL     1     -11.455  14.257  69.659  0.00  0.00    +0.141 A 
ATOM     10  C   UNL     1     -11.114  15.361  70.396  0.00  0.00    +0.038 A 
ATOM     11  C   UNL     1     -10.489  16.377  69.679  0.00  0.00    +0.015 A 
ATOM     12  C   UNL     1     -10.573  16.347  68.293  0.00  0.00    +0.058 A 
ATOM     13  C   UNL     1     -10.495  15.085  67.740  0.00  0.00    +0.010 A 
ATOM     14 CL   UNL     1     -10.772  17.832  67.379  0.00  0.00    -0.082 Cl
ATOM     15  C   UNL     1     -12.681  11.175  71.177  0.00  0.00    +0.037 A 
ATOM     16  C   UNL     1     -12.222   9.894  71.387  0.00  0.00    +0.003 A 
ATOM     17  C   UNL     1     -11.288   9.322  70.548  0.00  0.00    -0.000 A 
ATOM     18  C   UNL     1     -10.962  10.027  69.397  0.00  0.00    -0.001 A 
ATOM     19  C   UNL     1     -10.842  13.926  68.441  0.00  0.00    +0.015 A 
ATOM     20  C   UNL     1      -9.644  12.195  67.683  0.00  0.00    +0.077 C 
ENDROOT
TORSDOF 0
ENDMDL
MODEL 7
REMARK VINA RESULT:      -6.2      2.446      4.917
REMARK  Name = 
REMARK  0 active torsions:
REMARK  status: ('A' for Active; 'I' for Inactive)
REMARK                            x       y       z     vdW  Elec       q    Type
REMARK                         _______ _______ _______ _____ _____    ______ ____
ROOT
ATOM      1  C   UNL     1     -10.600  11.406  67.118  0.00  0.00    +0.090 C 
ATOM      2  N   UNL     1     -10.062  12.746  67.331  0.00  0.00    -0.271 NA
ATOM      3  C   UNL     1     -10.745  13.663  66.528  0.00  0.00    +0.077 C 
ATOM      4  C   UNL     1     -11.689  14.512  67.558  0.00  0.00    +0.047 C 
ATOM      5  C   UNL     1     -11.854  13.117  68.552  0.00  0.00    +0.047 C 
ATOM      6  C   UNL     1     -12.088  13.835  69.963  0.00  0.00    +0.014 A 
ATOM      7  C   UNL     1     -12.744  15.020  70.161  0.00  0.00    +0.141 A 
ATOM      8  O   UNL     1     -12.000  16.177  69.877  0.00  0.00    -0.454 OA
ATOM      9  C   UNL     1     -10.873  16.309  69.054  0.00  0.00    +0.141 A 
ATOM     10  C   UNL     1     -10.070  17.382  69.336  0.00  0.00    +0.038 A 
ATOM     11  C   UNL     1      -8.981  17.543  68.486  0.00  0.00    +0.015 A 
ATOM     12  C   UNL     1      -8.988  16.858  67.277  0.00  0.00    +0.058 A 
ATOM     13  C   UNL     1      -9.519  15.585  67.341  0.00  0.00    +0.010 A 
ATOM     14 CL   UNL     1      -8.366  17.613  65.820  0.00  0.00    -0.082 Cl
ATOM     15  C   UNL     1     -13.560  15.219  71.267  0.00  0.00    +0.037 A 
ATOM     16  C   UNL     1     -13.816  14.160  72.109  0.00  0.00    +0.003 A 
ATOM     17  C   UNL     1     -13.245  12.923  71.897  0.00  0.00    -0.000 A 
ATOM     18  C   UNL     1     -12.545  12.750  70.709  0.00  0.00    -0.001 A 
ATOM     19  C   UNL     1     -10.438  15.195  68.319  0.00  0.00    +0.015 A 
ATOM     20  C   UNL     1     -10.223  13.006  68.729  0.00  0.00    +0.077 C 
ENDROOT
TORSDOF 0
ENDMDL
MODEL 8
REMARK VINA RESULT:      -6.1      2.880      5.285
REMARK  Name = 
REMARK  0 active torsions:
REMARK  status: ('A' for Active; 'I' for Inactive)
REMARK                            x       y       z     vdW  Elec       q    Type
REMARK                         _______ _______ _______ _____ _____    ______ ____
ROOT
ATOM      1  C   UNL     1     -12.494  15.450  70.362  0.00  0.00    +0.090 C 
ATOM      2  N   UNL     1     -11.419  16.192  69.711  0.00  0.00    -0.271 NA
ATOM      3  C   UNL     1     -10.188  15.608  70.016  0.00  0.00    +0.077 C 
ATOM      4  C   UNL     1      -9.716  14.862  68.640  0.00  0.00    +0.047 C 
ATOM      5  C   UNL     1     -11.362  14.550  68.248  0.00  0.00    +0.047 C 
ATOM      6  C   UNL     1     -11.242  14.508  66.652  0.00  0.00    +0.014 A 
ATOM      7  C   UNL     1     -10.167  14.048  65.942  0.00  0.00    +0.141 A 
ATOM      8  O   UNL     1      -9.085  14.938  65.840  0.00  0.00    -0.454 OA
ATOM      9  C   UNL     1      -8.766  16.022  66.669  0.00  0.00    +0.141 A 
ATOM     10  C   UNL     1      -7.992  16.991  66.087  0.00  0.00    +0.038 A 
ATOM     11  C   UNL     1      -7.632  18.040  66.926  0.00  0.00    +0.015 A 
ATOM     12  C   UNL     1      -7.775  17.861  68.297  0.00  0.00    +0.058 A 
ATOM     13  C   UNL     1      -8.899  17.151  68.669  0.00  0.00    +0.010 A 
ATOM     14 CL   UNL     1      -6.580  18.502  69.410  0.00  0.00    -0.082 Cl
ATOM     15  C   UNL     1     -10.332  13.337  64.760  0.00  0.00    +0.037 A 
ATOM     16  C   UNL     1     -11.602  12.976  64.368  0.00  0.00    +0.003 A 
ATOM     17  C   UNL     1     -12.709  13.343  65.104  0.00  0.00    -0.000 A 
ATOM     18  C   UNL     1     -12.475  13.940  66.336  0.00  0.00    -0.001 A 
ATOM     19  C   UNL     1      -9.539  16.243  67.820  0.00  0.00    +0.015 A 
ATOM     20  C   UNL     1     -11.719  16.153  68.312  0.00  0.00    +0.077 C 
ENDROOT
TORSDOF 0
ENDMDL
MODEL 9
REMARK VINA RESULT:      -6.1      3.207      6.058
REMARK  Name = 
REMARK  0 active torsions:
REMARK  status: ('A' for Active; 'I' for Inactive)
REMARK                            x       y       z     vdW  Elec       q    Type
REMARK                         _______ _______ _______ _____ _____    ______ ____
ROOT
ATOM      1  C   UNL     1      -9.541   9.744  65.388  0.00  0.00    +0.090 C 
ATOM      2  N   UNL     1      -9.559  11.117  65.883  0.00  0.00    -0.271 NA
ATOM      3  C   UNL     1     -10.755  11.738  65.516  0.00  0.00    +0.077 C 
ATOM      4  C   UNL     1     -11.622  11.847  66.897  0.00  0.00    +0.047 C 
ATOM      5  C   UNL     1     -10.911  10.383  67.456  0.00  0.00    +0.047 C 
ATOM      6  C   UNL     1     -10.999  10.641  69.033  0.00  0.00    +0.014 A 
ATOM      7  C   UNL     1     -11.992  11.326  69.679  0.00  0.00    +0.141 A 
ATOM      8  O   UNL     1     -11.900  12.726  69.617  0.00  0.00    -0.454 OA
ATOM      9  C   UNL     1     -11.214  13.514  68.682  0.00  0.00    +0.141 A 
ATOM     10  C   UNL     1     -10.872  14.767  69.119  0.00  0.00    +0.038 A 
ATOM     11  C   UNL     1     -10.239  15.567  68.173  0.00  0.00    +0.015 A 
ATOM     12  C   UNL     1     -10.315  15.189  66.839  0.00  0.00    +0.058 A 
ATOM     13  C   UNL     1     -10.239  13.827  66.623  0.00  0.00    +0.010 A 
ATOM     14 CL   UNL     1     -10.502  16.395  65.578  0.00  0.00    -0.082 Cl
ATOM     15  C   UNL     1     -12.463  10.918  70.921  0.00  0.00    +0.037 A 
ATOM     16  C   UNL     1     -12.010   9.730  71.450  0.00  0.00    +0.003 A 
ATOM     17  C   UNL     1     -11.074   8.962  70.790  0.00  0.00    -0.000 A 
ATOM     18  C   UNL     1     -10.739   9.353  69.499  0.00  0.00    -0.001 A 
ATOM     19  C   UNL     1     -10.595  12.884  67.591  0.00  0.00    +0.015 A 
ATOM     20  C   UNL     1      -9.401  11.015  67.302  0.00  0.00    +0.077 C 
ENDROOT
TORSDOF 0
ENDMDL
