MODEL 1
REMARK VINA RESULT:      -8.0      0.000      0.000
REMARK  Name = 
REMARK  9 active torsions:
REMARK  status: ('A' for Active; 'I' for Inactive)
REMARK    1  A    between atoms: C_6  and  C_8
REMARK    2  A    between atoms: C_8  and  C_9
REMARK    3  A    between atoms: C_8  and  N_16
REMARK    4  A    between atoms: C_9  and  C_10
REMARK    5  A    between atoms: C_10  and  C_11
REMARK    6  A    between atoms: C_11  and  N_12
REMARK    7  A    between atoms: N_16  and  S_17
REMARK    8  A    between atoms: S_17  and  C_20
REMARK    9  A    between atoms: C_31  and  C_32
REMARK                            x       y       z     vdW  Elec       q    Type
REMARK                         _______ _______ _______ _____ _____    ______ ____
ROOT
ATOM      1  C   UNL     1     -11.008  16.198  68.011  0.00  0.00    +0.174 C 
ENDROOT
BRANCH   1   7
ATOM      2  C   UNL     1      -5.081  19.244  68.668  0.00  0.00    +0.000 C 
ATOM      3  C   UNL     1      -6.384  19.374  67.694  0.00  0.00    +0.004 C 
ATOM      4  C   UNL     1      -6.506  17.767  67.536  0.00  0.00    +0.032 C 
ATOM      5  C   UNL     1      -7.874  17.493  66.665  0.00  0.00    +0.179 C 
ATOM      6  N   UNL     1      -8.798  17.785  67.911  0.00  0.00    -0.270 N 
ATOM      7  C   UNL     1     -10.046  17.476  68.091  0.00  0.00    +0.244 C 
ATOM      8  O   UNL     1     -10.917  18.413  68.001  0.00  0.00    -0.273 OA
ATOM      9  C   UNL     1      -8.585  19.151  68.438  0.00  0.00    +0.094 C 
ATOM     10  C   UNL     1      -7.325  19.437  69.028  0.00  0.00    +0.022 C 
BRANCH   5  11
ATOM     11  C   UNL     1      -8.003  18.971  66.015  0.00  0.00    +0.382 C 
ATOM     12  O   UNL     1      -6.962  19.378  65.215  0.00  0.00    -0.244 OA
ATOM     13  O   UNL     1      -9.151  19.361  65.774  0.00  0.00    -0.244 OA
ENDBRANCH   5  11
ENDBRANCH   1   7
BRANCH   1  14
ATOM     14  N   UNL     1     -10.288  15.442  66.837  0.00  0.00    -0.070 NA
BRANCH  14  15
ATOM     15  S   UNL     1     -11.143  14.552  65.830  0.00  0.00    +0.078 S 
ATOM     16  O   UNL     1     -11.745  15.140  64.593  0.00  0.00    -0.152 OA
ATOM     17  O   UNL     1     -12.351  14.139  66.673  0.00  0.00    -0.152 OA
BRANCH  15  18
ATOM     18  C   UNL     1     -10.444  13.037  65.221  0.00  0.00    +0.138 A 
ATOM     19  C   UNL     1     -10.481  11.942  66.086  0.00  0.00    +0.080 A 
ATOM     20  N   UNL     1      -9.993  12.248  67.400  0.00  0.00    -0.237 NA
ATOM     21  C   UNL     1      -9.626  11.316  68.375  0.00  0.00    +0.113 C 
ATOM     22  C   UNL     1      -8.740  10.118  67.706  0.00  0.00    +0.026 C 
ATOM     23  C   UNL     1      -9.926   9.649  66.687  0.00  0.00    +0.029 C 
ATOM     24  C   UNL     1      -7.975  11.086  66.630  0.00  0.00    +0.002 C 
ATOM     25  C   UNL     1     -10.174  10.659  65.686  0.00  0.00    -0.006 A 
ATOM     26  C   UNL     1     -10.171  10.391  64.319  0.00  0.00    -0.003 A 
ATOM     27  C   UNL     1     -10.437  11.395  63.418  0.00  0.00    +0.001 A 
ATOM     28  C   UNL     1     -10.712  12.645  63.907  0.00  0.00    +0.021 A 
ENDBRANCH  15  18
ENDBRANCH  14  15
ENDBRANCH   1  14
BRANCH   1  29
ATOM     29  C   UNL     1     -10.150  15.431  69.200  0.00  0.00    +0.032 C 
BRANCH  29  30
ATOM     30  C   UNL     1     -11.166  14.878  70.151  0.00  0.00    +0.049 C 
BRANCH  30  31
ATOM     31  C   UNL     1     -11.850  15.891  71.011  0.00  0.00    +0.220 C 
BRANCH  31  32
ATOM     32  N   UNL     1     -11.779  15.467  72.388  0.00  0.00    -0.087 NA
ATOM     33  C   UNL     1     -12.807  15.965  73.232  0.00  0.00    +0.535 C 
ATOM     34  N   UNL     1     -12.577  16.082  74.634  0.00  0.00    +0.135 NA
ATOM     35  N   UNL     1     -14.022  15.963  72.792  0.00  0.00    +0.135 NA
ENDBRANCH  31  32
ENDBRANCH  30  31
ENDBRANCH  29  30
ENDBRANCH   1  29
TORSDOF 9
ENDMDL
MODEL 2
REMARK VINA RESULT:      -7.9      1.925      3.157
REMARK  Name = 
REMARK  9 active torsions:
REMARK  status: ('A' for Active; 'I' for Inactive)
REMARK    1  A    between atoms: C_6  and  C_8
REMARK    2  A    between atoms: C_8  and  C_9
REMARK    3  A    between atoms: C_8  and  N_16
REMARK    4  A    between atoms: C_9  and  C_10
REMARK    5  A    between atoms: C_10  and  C_11
REMARK    6  A    between atoms: C_11  and  N_12
REMARK    7  A    between atoms: N_16  and  S_17
REMARK    8  A    between atoms: S_17  and  C_20
REMARK    9  A    between atoms: C_31  and  C_32
REMARK                            x       y       z     vdW  Elec       q    Type
REMARK                         _______ _______ _______ _____ _____    ______ ____
ROOT
ATOM      1  C   UNL     1     -11.760  14.308  68.859  0.00  0.00    +0.174 C 
ENDROOT
BRANCH   1   7
ATOM      2  C   UNL     1      -6.299  17.339  66.443  0.00  0.00    +0.000 C 
ATOM      3  C   UNL     1      -7.819  17.773  66.851  0.00  0.00    +0.004 C 
ATOM      4  C   UNL     1      -8.451  16.461  66.143  0.00  0.00    +0.032 C 
ATOM      5  C   UNL     1     -10.062  16.489  66.478  0.00  0.00    +0.179 C 
ATOM      6  N   UNL     1      -9.824  15.998  67.958  0.00  0.00    -0.270 N 
ATOM      7  C   UNL     1     -10.675  15.484  68.794  0.00  0.00    +0.244 C 
ATOM      8  O   UNL     1     -11.090  16.220  69.758  0.00  0.00    -0.273 OA
ATOM      9  C   UNL     1      -8.953  16.929  68.708  0.00  0.00    +0.094 C 
ATOM     10  C   UNL     1      -7.599  17.039  68.294  0.00  0.00    +0.022 C 
BRANCH   5  11
ATOM     11  C   UNL     1     -10.168  18.064  66.843  0.00  0.00    +0.382 C 
ATOM     12  O   UNL     1      -9.751  18.944  65.874  0.00  0.00    -0.244 OA
ATOM     13  O   UNL     1     -11.082  18.384  67.610  0.00  0.00    -0.244 OA
ENDBRANCH   5  11
ENDBRANCH   1   7
BRANCH   1  14
ATOM     14  N   UNL     1     -10.772  13.090  68.964  0.00  0.00    -0.070 NA
BRANCH  14  15
ATOM     15  S   UNL     1     -11.296  11.621  68.639  0.00  0.00    +0.078 S 
ATOM     16  O   UNL     1     -12.709  11.220  68.923  0.00  0.00    -0.152 OA
ATOM     17  O   UNL     1     -10.463  10.742  69.574  0.00  0.00    -0.152 OA
BRANCH  15  18
ATOM     18  C   UNL     1     -11.041  10.962  67.009  0.00  0.00    +0.138 A 
ATOM     19  C   UNL     1     -10.815  11.891  65.991  0.00  0.00    +0.080 A 
ATOM     20  N   UNL     1     -11.777  12.955  65.978  0.00  0.00    -0.237 NA
ATOM     21  C   UNL     1     -11.996  13.847  64.925  0.00  0.00    +0.113 C 
ATOM     22  C   UNL     1     -12.017  13.047  63.502  0.00  0.00    +0.026 C 
ATOM     23  C   UNL     1     -10.489  12.493  63.655  0.00  0.00    +0.029 C 
ATOM     24  C   UNL     1     -12.737  11.704  64.100  0.00  0.00    +0.002 C 
ATOM     25  C   UNL     1     -10.395  11.533  64.729  0.00  0.00    -0.006 A 
ATOM     26  C   UNL     1      -9.848  10.261  64.566  0.00  0.00    -0.003 A 
ATOM     27  C   UNL     1      -9.768   9.402  65.636  0.00  0.00    +0.001 A 
ATOM     28  C   UNL     1     -10.229   9.837  66.850  0.00  0.00    +0.021 A 
ENDBRANCH  15  18
ENDBRANCH  14  15
ENDBRANCH   1  14
BRANCH   1  29
ATOM     29  C   UNL     1     -11.913  14.488  70.496  0.00  0.00    +0.032 C 
BRANCH  29  30
ATOM     30  C   UNL     1     -13.320  14.096  70.826  0.00  0.00    +0.049 C 
BRANCH  30  31
ATOM     31  C   UNL     1     -13.834  14.605  72.133  0.00  0.00    +0.220 C 
BRANCH  31  32
ATOM     32  N   UNL     1     -13.082  15.777  72.511  0.00  0.00    -0.087 NA
ATOM     33  C   UNL     1     -12.656  15.816  73.865  0.00  0.00    +0.535 C 
ATOM     34  N   UNL     1     -12.405  17.071  74.493  0.00  0.00    +0.135 NA
ATOM     35  N   UNL     1     -12.164  14.742  74.388  0.00  0.00    +0.135 NA
ENDBRANCH  31  32
ENDBRANCH  30  31
ENDBRANCH  29  30
ENDBRANCH   1  29
TORSDOF 9
ENDMDL
MODEL 3
REMARK VINA RESULT:      -7.7      1.895      7.143
REMARK  Name = 
REMARK  9 active torsions:
REMARK  status: ('A' for Active; 'I' for Inactive)
REMARK    1  A    between atoms: C_6  and  C_8
REMARK    2  A    between atoms: C_8  and  C_9
REMARK    3  A    between atoms: C_8  and  N_16
REMARK    4  A    between atoms: C_9  and  C_10
REMARK    5  A    between atoms: C_10  and  C_11
REMARK    6  A    between atoms: C_11  and  N_12
REMARK    7  A    between atoms: N_16  and  S_17
REMARK    8  A    between atoms: S_17  and  C_20
REMARK    9  A    between atoms: C_31  and  C_32
REMARK                            x       y       z     vdW  Elec       q    Type
REMARK                         _______ _______ _______ _____ _____    ______ ____
ROOT
ATOM      1  C   UNL     1     -10.222  15.429  68.193  0.00  0.00    +0.174 C 
ENDROOT
BRANCH   1   7
ATOM      2  C   UNL     1      -9.641  10.458  63.745  0.00  0.00    +0.000 C 
ATOM      3  C   UNL     1     -10.500  10.745  65.103  0.00  0.00    +0.004 C 
ATOM      4  C   UNL     1      -9.212  11.367  65.862  0.00  0.00    +0.032 C 
ATOM      5  C   UNL     1      -9.756  11.920  67.313  0.00  0.00    +0.179 C 
ATOM      6  N   UNL     1     -10.410  13.193  66.650  0.00  0.00    -0.270 N 
ATOM      7  C   UNL     1     -10.794  14.299  67.213  0.00  0.00    +0.244 C 
ATOM      8  O   UNL     1     -12.052  14.491  67.366  0.00  0.00    -0.273 OA
ATOM      9  C   UNL     1     -11.422  12.822  65.637  0.00  0.00    +0.094 C 
ATOM     10  C   UNL     1     -10.964  12.174  64.459  0.00  0.00    +0.022 C 
BRANCH   5  11
ATOM     11  C   UNL     1     -11.118  11.045  67.367  0.00  0.00    +0.382 C 
ATOM     12  O   UNL     1     -10.971   9.681  67.285  0.00  0.00    -0.244 OA
ATOM     13  O   UNL     1     -12.045  11.524  68.030  0.00  0.00    -0.244 OA
ENDBRANCH   5  11
ENDBRANCH   1   7
BRANCH   1  14
ATOM     14  N   UNL     1     -10.716  16.693  67.400  0.00  0.00    -0.070 NA
BRANCH  14  15
ATOM     15  S   UNL     1      -9.674  17.543  66.546  0.00  0.00    +0.078 S 
ATOM     16  O   UNL     1     -10.124  18.673  65.674  0.00  0.00    -0.152 OA
ATOM     17  O   UNL     1      -9.110  16.515  65.564  0.00  0.00    -0.152 OA
BRANCH  15  18
ATOM     18  C   UNL     1      -8.264  18.245  67.368  0.00  0.00    +0.138 A 
ATOM     19  C   UNL     1      -7.442  19.070  66.597  0.00  0.00    +0.080 A 
ATOM     20  N   UNL     1      -7.073  18.480  65.343  0.00  0.00    -0.237 NA
ATOM     21  C   UNL     1      -6.040  18.914  64.507  0.00  0.00    +0.113 C 
ATOM     22  C   UNL     1      -4.708  19.257  65.387  0.00  0.00    +0.026 C 
ATOM     23  C   UNL     1      -5.442  20.418  66.267  0.00  0.00    +0.029 C 
ATOM     24  C   UNL     1      -4.939  18.057  66.475  0.00  0.00    +0.002 C 
ATOM     25  C   UNL     1      -6.442  19.849  67.138  0.00  0.00    -0.006 A 
ATOM     26  C   UNL     1      -6.480  20.089  68.511  0.00  0.00    -0.003 A 
ATOM     27  C   UNL     1      -7.474  19.532  69.281  0.00  0.00    +0.001 A 
ATOM     28  C   UNL     1      -8.415  18.755  68.660  0.00  0.00    +0.021 A 
ENDBRANCH  15  18
ENDBRANCH  14  15
ENDBRANCH   1  14
BRANCH   1  29
ATOM     29  C   UNL     1     -11.575  15.342  69.143  0.00  0.00    +0.032 C 
BRANCH  29  30
ATOM     30  C   UNL     1     -11.225  16.036  70.424  0.00  0.00    +0.049 C 
BRANCH  30  31
ATOM     31  C   UNL     1     -11.853  15.460  71.652  0.00  0.00    +0.220 C 
BRANCH  31  32
ATOM     32  N   UNL     1     -13.205  15.952  71.766  0.00  0.00    -0.087 NA
ATOM     33  C   UNL     1     -14.219  14.959  71.722  0.00  0.00    +0.535 C 
ATOM     34  N   UNL     1     -15.532  15.308  71.291  0.00  0.00    +0.135 NA
ATOM     35  N   UNL     1     -14.047  13.870  72.396  0.00  0.00    +0.135 NA
ENDBRANCH  31  32
ENDBRANCH  30  31
ENDBRANCH  29  30
ENDBRANCH   1  29
TORSDOF 9
ENDMDL
MODEL 4
REMARK VINA RESULT:      -7.7      1.699      2.360
REMARK  Name = 
REMARK  9 active torsions:
REMARK  status: ('A' for Active; 'I' for Inactive)
REMARK    1  A    between atoms: C_6  and  C_8
REMARK    2  A    between atoms: C_8  and  C_9
REMARK    3  A    between atoms: C_8  and  N_16
REMARK    4  A    between atoms: C_9  and  C_10
REMARK    5  A    between atoms: C_10  and  C_11
REMARK    6  A    between atoms: C_11  and  N_12
REMARK    7  A    between atoms: N_16  and  S_17
REMARK    8  A    between atoms: S_17  and  C_20
REMARK    9  A    between atoms: C_31  and  C_32
REMARK                            x       y       z     vdW  Elec       q    Type
REMARK                         _______ _______ _______ _____ _____    ______ ____
ROOT
ATOM      1  C   UNL     1     -11.694  14.884  68.812  0.00  0.00    +0.174 C 
ENDROOT
BRANCH   1   7
ATOM      2  C   UNL     1      -6.204  17.818  66.343  0.00  0.00    +0.000 C 
ATOM      3  C   UNL     1      -7.723  18.271  66.730  0.00  0.00    +0.004 C 
ATOM      4  C   UNL     1      -8.360  16.944  66.055  0.00  0.00    +0.032 C 
ATOM      5  C   UNL     1      -9.971  16.990  66.381  0.00  0.00    +0.179 C 
ATOM      6  N   UNL     1      -9.744  16.538  67.875  0.00  0.00    -0.270 N 
ATOM      7  C   UNL     1     -10.601  16.052  68.721  0.00  0.00    +0.244 C 
ATOM      8  O   UNL     1     -11.018  16.816  69.662  0.00  0.00    -0.273 OA
ATOM      9  C   UNL     1      -8.871  17.484  68.605  0.00  0.00    +0.094 C 
ATOM     10  C   UNL     1      -7.515  17.575  68.194  0.00  0.00    +0.022 C 
BRANCH   5  11
ATOM     11  C   UNL     1     -10.070  18.575  66.703  0.00  0.00    +0.382 C 
ATOM     12  O   UNL     1      -9.594  19.425  65.734  0.00  0.00    -0.244 OA
ATOM     13  O   UNL     1     -11.016  18.927  67.417  0.00  0.00    -0.244 OA
ENDBRANCH   5  11
ENDBRANCH   1   7
BRANCH   1  14
ATOM     14  N   UNL     1     -10.741  13.659  68.560  0.00  0.00    -0.070 NA
BRANCH  14  15
ATOM     15  S   UNL     1     -10.814  12.876  67.174  0.00  0.00    +0.078 S 
ATOM     16  O   UNL     1     -10.332  13.501  65.904  0.00  0.00    -0.152 OA
ATOM     17  O   UNL     1     -12.317  12.697  66.956  0.00  0.00    -0.152 OA
BRANCH  15  18
ATOM     18  C   UNL     1     -10.118  11.245  67.075  0.00  0.00    +0.138 A 
ATOM     19  C   UNL     1     -10.645  10.290  67.948  0.00  0.00    +0.080 A 
ATOM     20  N   UNL     1     -10.709  10.746  69.306  0.00  0.00    -0.237 NA
ATOM     21  C   UNL     1     -10.897   9.940  70.433  0.00  0.00    +0.113 C 
ATOM     22  C   UNL     1      -9.969   8.600  70.328  0.00  0.00    +0.026 C 
ATOM     23  C   UNL     1     -10.675   8.073  68.954  0.00  0.00    +0.029 C 
ATOM     24  C   UNL     1      -8.715   9.348  69.590  0.00  0.00    +0.002 C 
ATOM     25  C   UNL     1     -10.361   8.945  67.847  0.00  0.00    -0.006 A 
ATOM     26  C   UNL     1      -9.826   8.485  66.646  0.00  0.00    -0.003 A 
ATOM     27  C   UNL     1      -9.570   9.366  65.622  0.00  0.00    +0.001 A 
ATOM     28  C   UNL     1      -9.865  10.689  65.819  0.00  0.00    +0.021 A 
ENDBRANCH  15  18
ENDBRANCH  14  15
ENDBRANCH   1  14
BRANCH   1  29
ATOM     29  C   UNL     1     -11.545  14.822  70.458  0.00  0.00    +0.032 C 
BRANCH  29  30
ATOM     30  C   UNL     1     -12.331  13.625  70.899  0.00  0.00    +0.049 C 
BRANCH  30  31
ATOM     31  C   UNL     1     -13.600  13.930  71.628  0.00  0.00    +0.220 C 
BRANCH  31  32
ATOM     32  N   UNL     1     -13.300  14.164  73.020  0.00  0.00    -0.087 NA
ATOM     33  C   UNL     1     -13.256  15.529  73.411  0.00  0.00    +0.535 C 
ATOM     34  N   UNL     1     -12.480  15.916  74.541  0.00  0.00    +0.135 NA
ATOM     35  N   UNL     1     -14.178  16.325  72.978  0.00  0.00    +0.135 NA
ENDBRANCH  31  32
ENDBRANCH  30  31
ENDBRANCH  29  30
ENDBRANCH   1  29
TORSDOF 9
ENDMDL
MODEL 5
REMARK VINA RESULT:      -7.7      2.069      7.228
REMARK  Name = 
REMARK  9 active torsions:
REMARK  status: ('A' for Active; 'I' for Inactive)
REMARK    1  A    between atoms: C_6  and  C_8
REMARK    2  A    between atoms: C_8  and  C_9
REMARK    3  A    between atoms: C_8  and  N_16
REMARK    4  A    between atoms: C_9  and  C_10
REMARK    5  A    between atoms: C_10  and  C_11
REMARK    6  A    between atoms: C_11  and  N_12
REMARK    7  A    between atoms: N_16  and  S_17
REMARK    8  A    between atoms: S_17  and  C_20
REMARK    9  A    between atoms: C_31  and  C_32
REMARK                            x       y       z     vdW  Elec       q    Type
REMARK                         _______ _______ _______ _____ _____    ______ ____
ROOT
ATOM      1  C   UNL     1      -9.947  14.933  68.448  0.00  0.00    +0.174 C 
ENDROOT
BRANCH   1   7
ATOM      2  C   UNL     1     -10.223  10.573  63.374  0.00  0.00    +0.000 C 
ATOM      3  C   UNL     1     -11.144  11.792  63.945  0.00  0.00    +0.004 C 
ATOM      4  C   UNL     1     -10.947  11.309  65.478  0.00  0.00    +0.032 C 
ATOM      5  C   UNL     1     -11.677  12.445  66.417  0.00  0.00    +0.179 C 
ATOM      6  N   UNL     1     -10.484  13.459  66.222  0.00  0.00    -0.270 N 
ATOM      7  C   UNL     1     -10.187  14.513  66.921  0.00  0.00    +0.244 C 
ATOM      8  O   UNL     1     -10.438  15.662  66.413  0.00  0.00    -0.273 OA
ATOM      9  C   UNL     1     -10.273  13.785  64.795  0.00  0.00    +0.094 C 
ATOM     10  C   UNL     1      -9.815  12.743  63.945  0.00  0.00    +0.022 C 
BRANCH   5  11
ATOM     11  C   UNL     1     -12.624  13.082  65.268  0.00  0.00    +0.382 C 
ATOM     12  O   UNL     1     -13.353  12.193  64.516  0.00  0.00    -0.244 OA
ATOM     13  O   UNL     1     -13.080  14.207  65.501  0.00  0.00    -0.244 OA
ENDBRANCH   5  11
ENDBRANCH   1   7
BRANCH   1  14
ATOM     14  N   UNL     1      -9.010  16.170  68.201  0.00  0.00    -0.070 NA
BRANCH  14  15
ATOM     15  S   UNL     1      -7.429  15.988  68.276  0.00  0.00    +0.078 S 
ATOM     16  O   UNL     1      -6.675  15.299  67.184  0.00  0.00    -0.152 OA
ATOM     17  O   UNL     1      -7.242  15.079  69.491  0.00  0.00    -0.152 OA
BRANCH  15  18
ATOM     18  C   UNL     1      -6.417  17.415  68.585  0.00  0.00    +0.138 A 
ATOM     19  C   UNL     1      -6.862  18.623  68.043  0.00  0.00    +0.080 A 
ATOM     20  N   UNL     1      -7.209  18.521  66.655  0.00  0.00    -0.237 NA
ATOM     21  C   UNL     1      -7.391  19.593  65.776  0.00  0.00    +0.113 C 
ATOM     22  C   UNL     1      -6.211  20.702  65.987  0.00  0.00    +0.026 C 
ATOM     23  C   UNL     1      -6.596  20.991  67.546  0.00  0.00    +0.029 C 
ATOM     24  C   UNL     1      -5.038  19.608  66.309  0.00  0.00    +0.002 C 
ATOM     25  C   UNL     1      -6.307  19.841  68.369  0.00  0.00    -0.006 A 
ATOM     26  C   UNL     1      -5.525  19.908  69.521  0.00  0.00    -0.003 A 
ATOM     27  C   UNL     1      -5.306  18.778  70.273  0.00  0.00    +0.001 A 
ATOM     28  C   UNL     1      -5.882  17.606  69.861  0.00  0.00    +0.021 A 
ENDBRANCH  15  18
ENDBRANCH  14  15
ENDBRANCH   1  14
BRANCH   1  29
ATOM     29  C   UNL     1     -11.338  15.830  68.459  0.00  0.00    +0.032 C 
BRANCH  29  30
ATOM     30  C   UNL     1     -11.726  15.973  69.898  0.00  0.00    +0.049 C 
BRANCH  30  31
ATOM     31  C   UNL     1     -12.537  14.847  70.454  0.00  0.00    +0.220 C 
BRANCH  31  32
ATOM     32  N   UNL     1     -12.389  14.823  71.889  0.00  0.00    -0.087 NA
ATOM     33  C   UNL     1     -13.256  15.691  72.604  0.00  0.00    +0.535 C 
ATOM     34  N   UNL     1     -12.878  16.162  73.895  0.00  0.00    +0.135 NA
ATOM     35  N   UNL     1     -14.498  15.752  72.251  0.00  0.00    +0.135 NA
ENDBRANCH  31  32
ENDBRANCH  30  31
ENDBRANCH  29  30
ENDBRANCH   1  29
TORSDOF 9
ENDMDL
MODEL 6
REMARK VINA RESULT:      -7.7      1.899      7.214
REMARK  Name = 
REMARK  9 active torsions:
REMARK  status: ('A' for Active; 'I' for Inactive)
REMARK    1  A    between atoms: C_6  and  C_8
REMARK    2  A    between atoms: C_8  and  C_9
REMARK    3  A    between atoms: C_8  and  N_16
REMARK    4  A    between atoms: C_9  and  C_10
REMARK    5  A    between atoms: C_10  and  C_11
REMARK    6  A    between atoms: C_11  and  N_12
REMARK    7  A    between atoms: N_16  and  S_17
REMARK    8  A    between atoms: S_17  and  C_20
REMARK    9  A    between atoms: C_31  and  C_32
REMARK                            x       y       z     vdW  Elec       q    Type
REMARK                         _______ _______ _______ _____ _____    ______ ____
ROOT
ATOM      1  C   UNL     1     -10.368  14.461  67.957  0.00  0.00    +0.174 C 
ENDROOT
BRANCH   1   7
ATOM      2  C   UNL     1      -8.645   8.645  65.121  0.00  0.00    +0.000 C 
ATOM      3  C   UNL     1      -9.794   9.171  66.153  0.00  0.00    +0.004 C 
ATOM      4  C   UNL     1      -8.729  10.065  66.983  0.00  0.00    +0.032 C 
ATOM      5  C   UNL     1      -9.601  10.897  68.103  0.00  0.00    +0.179 C 
ATOM      6  N   UNL     1     -10.133  11.915  67.021  0.00  0.00    -0.270 N 
ATOM      7  C   UNL     1     -10.669  13.085  67.195  0.00  0.00    +0.244 C 
ATOM      8  O   UNL     1     -11.935  13.198  67.030  0.00  0.00    -0.273 OA
ATOM      9  C   UNL     1     -10.880  11.227  65.945  0.00  0.00    +0.094 C 
ATOM     10  C   UNL     1     -10.149  10.360  65.090  0.00  0.00    +0.022 C 
BRANCH   5  11
ATOM     11  C   UNL     1     -10.912   9.946  68.091  0.00  0.00    +0.382 C 
ATOM     12  O   UNL     1     -10.696   8.607  68.316  0.00  0.00    -0.244 OA
ATOM     13  O   UNL     1     -11.967  10.469  68.465  0.00  0.00    -0.244 OA
ENDBRANCH   5  11
ENDBRANCH   1   7
BRANCH   1  14
ATOM     14  N   UNL     1     -11.092  15.438  66.963  0.00  0.00    -0.070 NA
BRANCH  14  15
ATOM     15  S   UNL     1     -10.234  16.479  66.115  0.00  0.00    +0.078 S 
ATOM     16  O   UNL     1     -10.745  17.038  64.825  0.00  0.00    -0.152 OA
ATOM     17  O   UNL     1      -9.004  15.666  65.710  0.00  0.00    -0.152 OA
BRANCH  15  18
ATOM     18  C   UNL     1      -9.604  17.929  66.925  0.00  0.00    +0.138 A 
ATOM     19  C   UNL     1      -8.603  18.633  66.251  0.00  0.00    +0.080 A 
ATOM     20  N   UNL     1      -7.539  17.791  65.790  0.00  0.00    -0.237 NA
ATOM     21  C   UNL     1      -6.279  18.222  65.363  0.00  0.00    +0.113 C 
ATOM     22  C   UNL     1      -5.701  19.365  66.376  0.00  0.00    +0.026 C 
ATOM     23  C   UNL     1      -6.934  20.399  66.106  0.00  0.00    +0.029 C 
ATOM     24  C   UNL     1      -6.340  18.699  67.727  0.00  0.00    +0.002 C 
ATOM     25  C   UNL     1      -8.168  19.880  66.646  0.00  0.00    -0.006 A 
ATOM     26  C   UNL     1      -8.981  20.603  67.517  0.00  0.00    -0.003 A 
ATOM     27  C   UNL     1     -10.156  20.058  67.977  0.00  0.00    +0.001 A 
ATOM     28  C   UNL     1     -10.499  18.804  67.547  0.00  0.00    +0.021 A 
ENDBRANCH  15  18
ENDBRANCH  14  15
ENDBRANCH   1  14
BRANCH   1  29
ATOM     29  C   UNL     1     -11.695  14.259  68.924  0.00  0.00    +0.032 C 
BRANCH  29  30
ATOM     30  C   UNL     1     -11.929  15.582  69.587  0.00  0.00    +0.049 C 
BRANCH  30  31
ATOM     31  C   UNL     1     -12.870  15.555  70.748  0.00  0.00    +0.220 C 
BRANCH  31  32
ATOM     32  N   UNL     1     -12.171  15.989  71.933  0.00  0.00    -0.087 NA
ATOM     33  C   UNL     1     -12.780  15.628  73.164  0.00  0.00    +0.535 C 
ATOM     34  N   UNL     1     -12.529  16.405  74.332  0.00  0.00    +0.135 NA
ATOM     35  N   UNL     1     -13.247  14.430  73.294  0.00  0.00    +0.135 NA
ENDBRANCH  31  32
ENDBRANCH  30  31
ENDBRANCH  29  30
ENDBRANCH   1  29
TORSDOF 9
ENDMDL
MODEL 7
REMARK VINA RESULT:      -7.6      1.868      6.451
REMARK  Name = 
REMARK  9 active torsions:
REMARK  status: ('A' for Active; 'I' for Inactive)
REMARK    1  A    between atoms: C_6  and  C_8
REMARK    2  A    between atoms: C_8  and  C_9
REMARK    3  A    between atoms: C_8  and  N_16
REMARK    4  A    between atoms: C_9  and  C_10
REMARK    5  A    between atoms: C_10  and  C_11
REMARK    6  A    between atoms: C_11  and  N_12
REMARK    7  A    between atoms: N_16  and  S_17
REMARK    8  A    between atoms: S_17  and  C_20
REMARK    9  A    between atoms: C_31  and  C_32
REMARK                            x       y       z     vdW  Elec       q    Type
REMARK                         _______ _______ _______ _____ _____    ______ ____
ROOT
ATOM      1  C   UNL     1     -10.208  15.979  67.882  0.00  0.00    +0.174 C 
ENDROOT
BRANCH   1   7
ATOM      2  C   UNL     1     -10.190  10.319  64.303  0.00  0.00    +0.000 C 
ATOM      3  C   UNL     1     -11.123  11.653  64.414  0.00  0.00    +0.004 C 
ATOM      4  C   UNL     1     -11.058  11.641  66.033  0.00  0.00    +0.032 C 
ATOM      5  C   UNL     1     -11.833  13.004  66.533  0.00  0.00    +0.179 C 
ATOM      6  N   UNL     1     -10.604  13.916  66.149  0.00  0.00    -0.270 N 
ATOM      7  C   UNL     1     -10.337  15.128  66.531  0.00  0.00    +0.244 C 
ATOM      8  O   UNL     1     -10.519  16.078  65.689  0.00  0.00    -0.273 OA
ATOM      9  C   UNL     1     -10.273  13.807  64.711  0.00  0.00    +0.094 C 
ATOM     10  C   UNL     1      -9.775  12.561  64.245  0.00  0.00    +0.022 C 
BRANCH   5  11
ATOM     11  C   UNL     1     -12.671  13.275  65.174  0.00  0.00    +0.382 C 
ATOM     12  O   UNL     1     -13.303  12.188  64.620  0.00  0.00    -0.244 OA
ATOM     13  O   UNL     1     -13.169  14.400  65.058  0.00  0.00    -0.244 OA
ENDBRANCH   5  11
ENDBRANCH   1   7
BRANCH   1  14
ATOM     14  N   UNL     1     -10.655  17.376  67.316  0.00  0.00    -0.070 NA
BRANCH  14  15
ATOM     15  S   UNL     1      -9.904  18.696  67.797  0.00  0.00    +0.078 S 
ATOM     16  O   UNL     1      -9.821  19.058  69.246  0.00  0.00    -0.152 OA
ATOM     17  O   UNL     1     -10.743  19.816  67.180  0.00  0.00    -0.152 OA
BRANCH  15  18
ATOM     18  C   UNL     1      -8.241  18.985  67.244  0.00  0.00    +0.138 A 
ATOM     19  C   UNL     1      -7.344  17.924  67.391  0.00  0.00    +0.080 A 
ATOM     20  N   UNL     1      -7.364  17.350  68.705  0.00  0.00    -0.237 NA
ATOM     21  C   UNL     1      -6.393  16.499  69.241  0.00  0.00    +0.113 C 
ATOM     22  C   UNL     1      -4.898  17.054  68.887  0.00  0.00    +0.026 C 
ATOM     23  C   UNL     1      -5.114  16.954  67.272  0.00  0.00    +0.029 C 
ATOM     24  C   UNL     1      -5.297  18.637  69.007  0.00  0.00    +0.002 C 
ATOM     25  C   UNL     1      -6.088  17.920  66.823  0.00  0.00    -0.006 A 
ATOM     26  C   UNL     1      -5.840  18.828  65.795  0.00  0.00    -0.003 A 
ATOM     27  C   UNL     1      -6.820  19.708  65.400  0.00  0.00    +0.001 A 
ATOM     28  C   UNL     1      -8.032  19.653  66.035  0.00  0.00    +0.021 A 
ENDBRANCH  15  18
ENDBRANCH  14  15
ENDBRANCH   1  14
BRANCH   1  29
ATOM     29  C   UNL     1     -11.734  15.539  68.348  0.00  0.00    +0.032 C 
BRANCH  29  30
ATOM     30  C   UNL     1     -11.601  15.002  69.740  0.00  0.00    +0.049 C 
BRANCH  30  31
ATOM     31  C   UNL     1     -11.689  16.024  70.828  0.00  0.00    +0.220 C 
BRANCH  31  32
ATOM     32  N   UNL     1     -11.685  15.354  72.106  0.00  0.00    -0.087 NA
ATOM     33  C   UNL     1     -12.696  15.769  73.012  0.00  0.00    +0.535 C 
ATOM     34  N   UNL     1     -12.496  15.614  74.415  0.00  0.00    +0.135 NA
ATOM     35  N   UNL     1     -13.896  15.938  72.563  0.00  0.00    +0.135 NA
ENDBRANCH  31  32
ENDBRANCH  30  31
ENDBRANCH  29  30
ENDBRANCH   1  29
TORSDOF 9
ENDMDL
MODEL 8
REMARK VINA RESULT:      -7.6      2.190      7.156
REMARK  Name = 
REMARK  9 active torsions:
REMARK  status: ('A' for Active; 'I' for Inactive)
REMARK    1  A    between atoms: C_6  and  C_8
REMARK    2  A    between atoms: C_8  and  C_9
REMARK    3  A    between atoms: C_8  and  N_16
REMARK    4  A    between atoms: C_9  and  C_10
REMARK    5  A    between atoms: C_10  and  C_11
REMARK    6  A    between atoms: C_11  and  N_12
REMARK    7  A    between atoms: N_16  and  S_17
REMARK    8  A    between atoms: S_17  and  C_20
REMARK    9  A    between atoms: C_31  and  C_32
REMARK                            x       y       z     vdW  Elec       q    Type
REMARK                         _______ _______ _______ _____ _____    ______ ____
ROOT
ATOM      1  C   UNL     1     -10.524  13.893  68.274  0.00  0.00    +0.174 C 
ENDROOT
BRANCH   1   7
ATOM      2  C   UNL     1      -8.754   7.550  67.060  0.00  0.00    +0.000 C 
ATOM      3  C   UNL     1      -9.884   8.320  67.951  0.00  0.00    +0.004 C 
ATOM      4  C   UNL     1      -8.816   9.421  68.470  0.00  0.00    +0.032 C 
ATOM      5  C   UNL     1      -9.673  10.513  69.352  0.00  0.00    +0.179 C 
ATOM      6  N   UNL     1     -10.259  11.192  68.054  0.00  0.00    -0.270 N 
ATOM      7  C   UNL     1     -10.816  12.358  67.923  0.00  0.00    +0.244 C 
ATOM      8  O   UNL     1     -12.089  12.403  67.778  0.00  0.00    -0.273 OA
ATOM      9  C   UNL     1     -11.022  10.227  67.232  0.00  0.00    +0.094 C 
ATOM     10  C   UNL     1     -10.297   9.171  66.619  0.00  0.00    +0.022 C 
BRANCH   5  11
ATOM     11  C   UNL     1     -10.961   9.576  69.644  0.00  0.00    +0.382 C 
ATOM     12  O   UNL     1     -10.708   8.349  70.209  0.00  0.00    -0.244 OA
ATOM     13  O   UNL     1     -12.016  10.166  69.904  0.00  0.00    -0.244 OA
ENDBRANCH   5  11
ENDBRANCH   1   7
BRANCH   1  14
ATOM     14  N   UNL     1     -11.214  14.549  67.024  0.00  0.00    -0.070 NA
BRANCH  14  15
ATOM     15  S   UNL     1     -10.318  15.230  65.896  0.00  0.00    +0.078 S 
ATOM     16  O   UNL     1     -10.935  16.028  64.791  0.00  0.00    -0.152 OA
ATOM     17  O   UNL     1      -9.686  14.033  65.185  0.00  0.00    -0.152 OA
BRANCH  15  18
ATOM     18  C   UNL     1      -8.961  16.265  66.390  0.00  0.00    +0.138 A 
ATOM     19  C   UNL     1      -9.261  17.304  67.274  0.00  0.00    +0.080 A 
ATOM     20  N   UNL     1     -10.388  18.087  66.858  0.00  0.00    -0.237 NA
ATOM     21  C   UNL     1     -10.737  19.347  67.354  0.00  0.00    +0.113 C 
ATOM     22  C   UNL     1      -9.410  20.289  67.488  0.00  0.00    +0.026 C 
ATOM     23  C   UNL     1      -8.664  19.293  68.545  0.00  0.00    +0.029 C 
ATOM     24  C   UNL     1      -8.673  19.693  66.155  0.00  0.00    +0.002 C 
ATOM     25  C   UNL     1      -8.292  18.052  67.907  0.00  0.00    -0.006 A 
ATOM     26  C   UNL     1      -6.997  17.538  67.942  0.00  0.00    -0.003 A 
ATOM     27  C   UNL     1      -6.714  16.339  67.333  0.00  0.00    +0.001 A 
ATOM     28  C   UNL     1      -7.736  15.674  66.710  0.00  0.00    +0.021 A 
ENDBRANCH  15  18
ENDBRANCH  14  15
ENDBRANCH   1  14
BRANCH   1  29
ATOM     29  C   UNL     1     -11.878  13.973  69.221  0.00  0.00    +0.032 C 
BRANCH  29  30
ATOM     30  C   UNL     1     -11.932  15.374  69.747  0.00  0.00    +0.049 C 
BRANCH  30  31
ATOM     31  C   UNL     1     -12.931  15.608  70.835  0.00  0.00    +0.220 C 
BRANCH  31  32
ATOM     32  N   UNL     1     -12.236  15.995  72.038  0.00  0.00    -0.087 NA
ATOM     33  C   UNL     1     -12.762  15.458  73.243  0.00  0.00    +0.535 C 
ATOM     34  N   UNL     1     -12.547  16.141  74.475  0.00  0.00    +0.135 NA
ATOM     35  N   UNL     1     -13.104  14.212  73.266  0.00  0.00    +0.135 NA
ENDBRANCH  31  32
ENDBRANCH  30  31
ENDBRANCH  29  30
ENDBRANCH   1  29
TORSDOF 9
ENDMDL
MODEL 9
REMARK VINA RESULT:      -7.5      1.519      2.091
REMARK  Name = 
REMARK  9 active torsions:
REMARK  status: ('A' for Active; 'I' for Inactive)
REMARK    1  A    between atoms: C_6  and  C_8
REMARK    2  A    between atoms: C_8  and  C_9
REMARK    3  A    between atoms: C_8  and  N_16
REMARK    4  A    between atoms: C_9  and  C_10
REMARK    5  A    between atoms: C_10  and  C_11
REMARK    6  A    between atoms: C_11  and  N_12
REMARK    7  A    between atoms: N_16  and  S_17
REMARK    8  A    between atoms: S_17  and  C_20
REMARK    9  A    between atoms: C_31  and  C_32
REMARK                            x       y       z     vdW  Elec       q    Type
REMARK                         _______ _______ _______ _____ _____    ______ ____
ROOT
ATOM      1  C   UNL     1     -10.907  16.168  68.080  0.00  0.00    +0.174 C 
ENDROOT
BRANCH   1   7
ATOM      2  C   UNL     1      -4.881  19.010  68.745  0.00  0.00    +0.000 C 
ATOM      3  C   UNL     1      -6.187  19.201  67.785  0.00  0.00    +0.004 C 
ATOM      4  C   UNL     1      -6.361  17.602  67.597  0.00  0.00    +0.032 C 
ATOM      5  C   UNL     1      -7.745  17.390  66.732  0.00  0.00    +0.179 C 
ATOM      6  N   UNL     1      -8.648  17.686  67.992  0.00  0.00    -0.270 N 
ATOM      7  C   UNL     1      -9.905  17.413  68.177  0.00  0.00    +0.244 C 
ATOM      8  O   UNL     1     -10.745  18.378  68.113  0.00  0.00    -0.273 OA
ATOM      9  C   UNL     1      -8.388  19.033  68.545  0.00  0.00    +0.094 C 
ATOM     10  C   UNL     1      -7.115  19.267  69.128  0.00  0.00    +0.022 C 
BRANCH   5  11
ATOM     11  C   UNL     1      -7.831  18.883  66.113  0.00  0.00    +0.382 C 
ATOM     12  O   UNL     1      -6.756  19.296  65.363  0.00  0.00    -0.244 OA
ATOM     13  O   UNL     1      -8.965  19.293  65.838  0.00  0.00    -0.244 OA
ENDBRANCH   5  11
ENDBRANCH   1   7
BRANCH   1  14
ATOM     14  N   UNL     1     -10.065  15.270  67.103  0.00  0.00    -0.070 NA
BRANCH  14  15
ATOM     15  S   UNL     1     -10.746  14.010  66.407  0.00  0.00    +0.078 S 
ATOM     16  O   UNL     1     -10.476  13.675  64.974  0.00  0.00    -0.152 OA
ATOM     17  O   UNL     1     -12.234  14.359  66.435  0.00  0.00    -0.152 OA
BRANCH  15  18
ATOM     18  C   UNL     1     -10.612  12.422  67.192  0.00  0.00    +0.138 A 
ATOM     19  C   UNL     1      -9.401  12.144  67.831  0.00  0.00    +0.080 A 
ATOM     20  N   UNL     1      -8.258  12.417  67.010  0.00  0.00    -0.237 NA
ATOM     21  C   UNL     1      -6.955  11.967  67.244  0.00  0.00    +0.113 C 
ATOM     22  C   UNL     1      -6.972  10.395  67.690  0.00  0.00    +0.026 C 
ATOM     23  C   UNL     1      -7.882  10.658  69.019  0.00  0.00    +0.029 C 
ATOM     24  C   UNL     1      -8.222   9.982  66.717  0.00  0.00    +0.002 C 
ATOM     25  C   UNL     1      -9.222  11.055  68.656  0.00  0.00    -0.006 A 
ATOM     26  C   UNL     1     -10.361  10.416  69.142  0.00  0.00    -0.003 A 
ATOM     27  C   UNL     1     -11.610  10.858  68.773  0.00  0.00    +0.001 A 
ATOM     28  C   UNL     1     -11.692  11.936  67.933  0.00  0.00    +0.021 A 
ENDBRANCH  15  18
ENDBRANCH  14  15
ENDBRANCH   1  14
BRANCH   1  29
ATOM     29  C   UNL     1     -10.267  15.497  69.450  0.00  0.00    +0.032 C 
BRANCH  29  30
ATOM     30  C   UNL     1     -11.409  14.840  70.161  0.00  0.00    +0.049 C 
BRANCH  30  31
ATOM     31  C   UNL     1     -11.642  15.309  71.561  0.00  0.00    +0.220 C 
BRANCH  31  32
ATOM     32  N   UNL     1     -12.959  15.890  71.652  0.00  0.00    -0.087 NA
ATOM     33  C   UNL     1     -14.026  14.962  71.782  0.00  0.00    +0.535 C 
ATOM     34  N   UNL     1     -15.336  15.324  71.352  0.00  0.00    +0.135 NA
ATOM     35  N   UNL     1     -13.884  13.968  72.596  0.00  0.00    +0.135 NA
ENDBRANCH  31  32
ENDBRANCH  30  31
ENDBRANCH  29  30
ENDBRANCH   1  29
TORSDOF 9
ENDMDL
