MODEL 1
REMARK VINA RESULT:      -6.4      0.000      0.000
REMARK  Name = 
REMARK  1 active torsions:
REMARK  status: ('A' for Active; 'I' for Inactive)
REMARK    1  A    between atoms: O_2  and  C_3
REMARK                            x       y       z     vdW  Elec       q    Type
REMARK                         _______ _______ _______ _____ _____    ______ ____
ROOT
ATOM      1  C   UNL     1     -12.245  12.773  70.106  0.00  0.00    +0.138 A 
ATOM      2  C   UNL     1     -12.034  13.376  68.882  0.00  0.00    +0.032 A 
ATOM      3  C   UNL     1     -11.710  12.653  67.731  0.00  0.00    -0.024 A 
ATOM      4  C   UNL     1     -11.212  13.425  66.701  0.00  0.00    +0.021 C 
ATOM      5  C   UNL     1     -10.253  14.497  67.222  0.00  0.00    +0.021 C 
ATOM      6  C   UNL     1      -8.948  13.713  67.352  0.00  0.00    +0.072 C 
ATOM      7  N   UNL     1      -9.215  12.343  67.665  0.00  0.00    -0.272 NA
ATOM      8  C   UNL     1      -7.933  11.777  68.078  0.00  0.00    +0.090 C 
ATOM      9  C   UNL     1      -9.478  11.566  66.334  0.00  0.00    +0.062 C 
ATOM     10  C   UNL     1     -10.790  10.730  66.816  0.00  0.00    +0.042 C 
ATOM     11  C   UNL     1     -10.280  12.856  65.542  0.00  0.00    +0.019 C 
ATOM     12  C   UNL     1     -11.444  11.948  64.853  0.00  0.00    +0.002 C 
ATOM     13  C   UNL     1     -11.960  12.934  63.807  0.00  0.00    +0.000 C 
ATOM     14  C   UNL     1     -12.049  14.287  64.506  0.00  0.00    +0.000 C 
ATOM     15  C   UNL     1     -12.341  14.093  65.962  0.00  0.00    +0.004 C 
ATOM     16  C   UNL     1     -11.379  11.329  67.986  0.00  0.00    -0.025 A 
ATOM     17  C   UNL     1     -11.377  10.755  69.223  0.00  0.00    -0.001 A 
ATOM     18  C   UNL     1     -11.838  11.474  70.291  0.00  0.00    +0.037 A 
ENDROOT
BRANCH   1  20
ATOM     19  C   UNL     1     -13.504  13.315  72.147  0.00  0.00    +0.252 C 
ATOM     20  O   UNL     1     -12.422  13.523  71.274  0.00  0.00    -0.471 OA
ENDBRANCH   1  20
TORSDOF 1
ENDMDL
MODEL 2
REMARK VINA RESULT:      -6.3      1.227      1.427
REMARK  Name = 
REMARK  1 active torsions:
REMARK  status: ('A' for Active; 'I' for Inactive)
REMARK    1  A    between atoms: O_2  and  C_3
REMARK                            x       y       z     vdW  Elec       q    Type
REMARK                         _______ _______ _______ _____ _____    ______ ____
ROOT
ATOM      1  C   UNL     1     -12.264  14.798  69.544  0.00  0.00    +0.138 A 
ATOM      2  C   UNL     1     -11.992  14.801  68.190  0.00  0.00    +0.032 A 
ATOM      3  C   UNL     1     -11.816  13.627  67.454  0.00  0.00    -0.024 A 
ATOM      4  C   UNL     1     -11.230  13.818  66.219  0.00  0.00    +0.021 C 
ATOM      5  C   UNL     1     -10.101  14.848  66.291  0.00  0.00    +0.021 C 
ATOM      6  C   UNL     1      -8.933  13.997  66.787  0.00  0.00    +0.072 C 
ATOM      7  N   UNL     1      -9.404  12.937  67.625  0.00  0.00    -0.272 NA
ATOM      8  C   UNL     1      -8.216  12.403  68.288  0.00  0.00    +0.090 C 
ATOM      9  C   UNL     1      -9.821  11.731  66.722  0.00  0.00    +0.062 C 
ATOM     10  C   UNL     1     -11.235  11.382  67.451  0.00  0.00    +0.042 C 
ATOM     11  C   UNL     1     -10.430  12.685  65.438  0.00  0.00    +0.019 C 
ATOM     12  C   UNL     1     -11.740  11.765  65.136  0.00  0.00    +0.002 C 
ATOM     13  C   UNL     1     -12.122  12.298  63.756  0.00  0.00    +0.000 C 
ATOM     14  C   UNL     1     -11.978  13.814  63.832  0.00  0.00    +0.000 C 
ATOM     15  C   UNL     1     -12.259  14.286  65.225  0.00  0.00    +0.004 C 
ATOM     16  C   UNL     1     -11.691  12.493  68.245  0.00  0.00    -0.025 A 
ATOM     17  C   UNL     1     -11.748  12.489  69.608  0.00  0.00    -0.001 A 
ATOM     18  C   UNL     1     -12.062  13.646  70.265  0.00  0.00    +0.037 A 
ENDROOT
BRANCH   1  20
ATOM     19  C   UNL     1     -11.907  16.028  71.644  0.00  0.00    +0.252 C 
ATOM     20  O   UNL     1     -12.289  15.982  70.292  0.00  0.00    -0.471 OA
ENDBRANCH   1  20
TORSDOF 1
ENDMDL
MODEL 3
REMARK VINA RESULT:      -6.1      1.272      1.485
REMARK  Name = 
REMARK  1 active torsions:
REMARK  status: ('A' for Active; 'I' for Inactive)
REMARK    1  A    between atoms: O_2  and  C_3
REMARK                            x       y       z     vdW  Elec       q    Type
REMARK                         _______ _______ _______ _____ _____    ______ ____
ROOT
ATOM      1  C   UNL     1     -11.805  10.925  69.472  0.00  0.00    +0.138 A 
ATOM      2  C   UNL     1     -11.762  11.785  68.392  0.00  0.00    +0.032 A 
ATOM      3  C   UNL     1     -11.313  11.388  67.130  0.00  0.00    -0.024 A 
ATOM      4  C   UNL     1     -11.024  12.435  66.278  0.00  0.00    +0.021 C 
ATOM      5  C   UNL     1     -10.314  13.572  67.016  0.00  0.00    +0.021 C 
ATOM      6  C   UNL     1      -8.865  13.087  67.017  0.00  0.00    +0.072 C 
ATOM      7  N   UNL     1      -8.814  11.658  67.054  0.00  0.00    -0.272 NA
ATOM      8  C   UNL     1      -7.429  11.322  67.376  0.00  0.00    +0.090 C 
ATOM      9  C   UNL     1      -8.931  11.113  65.593  0.00  0.00    +0.062 C 
ATOM     10  C   UNL     1     -10.013   9.931  65.879  0.00  0.00    +0.042 C 
ATOM     11  C   UNL     1     -10.017  12.321  65.050  0.00  0.00    +0.019 C 
ATOM     12  C   UNL     1     -10.967  11.328  64.176  0.00  0.00    +0.002 C 
ATOM     13  C   UNL     1     -11.714  12.358  63.331  0.00  0.00    +0.000 C 
ATOM     14  C   UNL     1     -12.083  13.496  64.276  0.00  0.00    +0.000 C 
ATOM     15  C   UNL     1     -12.290  12.965  65.661  0.00  0.00    +0.004 C 
ATOM     16  C   UNL     1     -10.691  10.147  67.131  0.00  0.00    -0.025 A 
ATOM     17  C   UNL     1     -10.533   9.359  68.233  0.00  0.00    -0.001 A 
ATOM     18  C   UNL     1     -11.116   9.738  69.410  0.00  0.00    +0.037 A 
ENDROOT
BRANCH   1  20
ATOM     19  C   UNL     1     -12.979  10.675  71.618  0.00  0.00    +0.252 C 
ATOM     20  O   UNL     1     -12.115  11.379  70.760  0.00  0.00    -0.471 OA
ENDBRANCH   1  20
TORSDOF 1
ENDMDL
MODEL 4
REMARK VINA RESULT:      -6.1      3.184      4.485
REMARK  Name = 
REMARK  1 active torsions:
REMARK  status: ('A' for Active; 'I' for Inactive)
REMARK    1  A    between atoms: O_2  and  C_3
REMARK                            x       y       z     vdW  Elec       q    Type
REMARK                         _______ _______ _______ _____ _____    ______ ____
ROOT
ATOM      1  C   UNL     1     -11.439  15.423  70.424  0.00  0.00    +0.138 A 
ATOM      2  C   UNL     1     -10.751  16.490  69.881  0.00  0.00    +0.032 A 
ATOM      3  C   UNL     1     -10.683  16.721  68.505  0.00  0.00    -0.024 A 
ATOM      4  C   UNL     1      -9.697  17.612  68.130  0.00  0.00    +0.021 C 
ATOM      5  C   UNL     1      -8.412  17.388  68.929  0.00  0.00    +0.021 C 
ATOM      6  C   UNL     1      -7.760  16.241  68.159  0.00  0.00    +0.072 C 
ATOM      7  N   UNL     1      -8.757  15.399  67.573  0.00  0.00    -0.272 NA
ATOM      8  C   UNL     1      -8.053  14.190  67.152  0.00  0.00    +0.090 C 
ATOM      9  C   UNL     1      -9.179  16.005  66.194  0.00  0.00    +0.062 C 
ATOM     10  C   UNL     1     -10.791  15.843  66.361  0.00  0.00    +0.042 C 
ATOM     11  C   UNL     1      -9.040  17.641  66.680  0.00  0.00    +0.019 C 
ATOM     12  C   UNL     1     -10.382  18.168  65.923  0.00  0.00    +0.002 C 
ATOM     13  C   UNL     1     -10.126  19.673  65.953  0.00  0.00    +0.000 C 
ATOM     14  C   UNL     1      -9.594  19.986  67.348  0.00  0.00    +0.000 C 
ATOM     15  C   UNL     1     -10.169  19.025  68.343  0.00  0.00    +0.004 C 
ATOM     16  C   UNL     1     -11.148  15.658  67.743  0.00  0.00    -0.025 A 
ATOM     17  C   UNL     1     -11.646  14.496  68.256  0.00  0.00    -0.001 A 
ATOM     18  C   UNL     1     -11.817  14.385  69.608  0.00  0.00    +0.037 A 
ENDROOT
BRANCH   1  20
ATOM     19  C   UNL     1     -12.127  15.821  72.752  0.00  0.00    +0.252 C 
ATOM     20  O   UNL     1     -11.372  15.125  71.791  0.00  0.00    -0.471 OA
ENDBRANCH   1  20
TORSDOF 1
ENDMDL
MODEL 5
REMARK VINA RESULT:      -6.1      2.471      5.197
REMARK  Name = 
REMARK  1 active torsions:
REMARK  status: ('A' for Active; 'I' for Inactive)
REMARK    1  A    between atoms: O_2  and  C_3
REMARK                            x       y       z     vdW  Elec       q    Type
REMARK                         _______ _______ _______ _____ _____    ______ ____
ROOT
ATOM      1  C   UNL     1     -10.871  11.330  63.822  0.00  0.00    +0.138 A 
ATOM      2  C   UNL     1     -10.534  11.088  65.139  0.00  0.00    +0.032 A 
ATOM      3  C   UNL     1     -11.087  11.805  66.203  0.00  0.00    -0.024 A 
ATOM      4  C   UNL     1     -10.402  11.668  67.393  0.00  0.00    +0.021 C 
ATOM      5  C   UNL     1      -8.889  11.684  67.169  0.00  0.00    +0.021 C 
ATOM      6  C   UNL     1      -8.599  13.183  67.100  0.00  0.00    +0.072 C 
ATOM      7  N   UNL     1      -9.720  13.886  66.554  0.00  0.00    -0.272 NA
ATOM      8  C   UNL     1      -9.228  15.225  66.237  0.00  0.00    +0.090 C 
ATOM      9  C   UNL     1     -10.729  14.196  67.709  0.00  0.00    +0.062 C 
ATOM     10  C   UNL     1     -12.095  13.760  66.937  0.00  0.00    +0.042 C 
ATOM     11  C   UNL     1     -10.452  12.741  68.568  0.00  0.00    +0.019 C 
ATOM     12  C   UNL     1     -12.009  12.460  68.953  0.00  0.00    +0.002 C 
ATOM     13  C   UNL     1     -11.824  11.419  70.056  0.00  0.00    +0.000 C 
ATOM     14  C   UNL     1     -10.744  10.464  69.559  0.00  0.00    +0.000 C 
ATOM     15  C   UNL     1     -10.785  10.376  68.065  0.00  0.00    +0.004 C 
ATOM     16  C   UNL     1     -11.800  12.927  65.801  0.00  0.00    -0.025 A 
ATOM     17  C   UNL     1     -11.975  13.310  64.503  0.00  0.00    -0.001 A 
ATOM     18  C   UNL     1     -11.529  12.492  63.502  0.00  0.00    +0.037 A 
ENDROOT
BRANCH   1  20
ATOM     19  C   UNL     1      -9.076   9.882  62.967  0.00  0.00    +0.252 C 
ATOM     20  O   UNL     1     -10.197  10.706  62.764  0.00  0.00    -0.471 OA
ENDBRANCH   1  20
TORSDOF 1
ENDMDL
MODEL 6
REMARK VINA RESULT:      -5.9      1.791      3.520
REMARK  Name = 
REMARK  1 active torsions:
REMARK  status: ('A' for Active; 'I' for Inactive)
REMARK    1  A    between atoms: O_2  and  C_3
REMARK                            x       y       z     vdW  Elec       q    Type
REMARK                         _______ _______ _______ _____ _____    ______ ____
ROOT
ATOM      1  C   UNL     1     -12.015  15.425  70.052  0.00  0.00    +0.138 A 
ATOM      2  C   UNL     1     -12.030  14.319  69.224  0.00  0.00    +0.032 A 
ATOM      3  C   UNL     1     -10.901  13.885  68.525  0.00  0.00    -0.024 A 
ATOM      4  C   UNL     1     -11.175  12.993  67.508  0.00  0.00    +0.021 C 
ATOM      5  C   UNL     1     -12.437  13.393  66.742  0.00  0.00    +0.021 C 
ATOM      6  C   UNL     1     -11.894  14.438  65.768  0.00  0.00    +0.072 C 
ATOM      7  N   UNL     1     -10.787  15.135  66.346  0.00  0.00    -0.272 NA
ATOM      8  C   UNL     1     -10.562  16.296  65.488  0.00  0.00    +0.090 C 
ATOM      9  C   UNL     1      -9.484  14.309  66.091  0.00  0.00    +0.062 C 
ATOM     10  C   UNL     1      -8.849  14.421  67.586  0.00  0.00    +0.042 C 
ATOM     11  C   UNL     1     -10.226  12.773  66.248  0.00  0.00    +0.019 C 
ATOM     12  C   UNL     1      -9.021  12.077  67.095  0.00  0.00    +0.002 C 
ATOM     13  C   UNL     1      -9.401  10.607  66.931  0.00  0.00    +0.000 C 
ATOM     14  C   UNL     1     -10.912  10.535  67.126  0.00  0.00    +0.000 C 
ATOM     15  C   UNL     1     -11.359  11.609  68.070  0.00  0.00    +0.004 C 
ATOM     16  C   UNL     1      -9.855  14.798  68.544  0.00  0.00    -0.025 A 
ATOM     17  C   UNL     1      -9.888  16.001  69.187  0.00  0.00    -0.001 A 
ATOM     18  C   UNL     1     -10.966  16.308  69.969  0.00  0.00    +0.037 A 
ENDROOT
BRANCH   1  20
ATOM     19  C   UNL     1     -13.957  15.192  71.543  0.00  0.00    +0.252 C 
ATOM     20  O   UNL     1     -13.188  15.930  70.625  0.00  0.00    -0.471 OA
ENDBRANCH   1  20
TORSDOF 1
ENDMDL
MODEL 7
REMARK VINA RESULT:      -5.7      6.434      8.032
REMARK  Name = 
REMARK  1 active torsions:
REMARK  status: ('A' for Active; 'I' for Inactive)
REMARK    1  A    between atoms: O_2  and  C_3
REMARK                            x       y       z     vdW  Elec       q    Type
REMARK                         _______ _______ _______ _____ _____    ______ ____
ROOT
ATOM      1  C   UNL     1      -5.995  19.786  70.665  0.00  0.00    +0.138 A 
ATOM      2  C   UNL     1      -6.828  20.065  69.599  0.00  0.00    +0.032 A 
ATOM      3  C   UNL     1      -7.270  19.082  68.710  0.00  0.00    -0.024 A 
ATOM      4  C   UNL     1      -7.804  19.579  67.539  0.00  0.00    +0.021 C 
ATOM      5  C   UNL     1      -6.994  20.768  67.018  0.00  0.00    +0.021 C 
ATOM      6  C   UNL     1      -5.854  20.070  66.278  0.00  0.00    +0.072 C 
ATOM      7  N   UNL     1      -5.546  18.818  66.898  0.00  0.00    -0.272 NA
ATOM      8  C   UNL     1      -4.265  18.402  66.330  0.00  0.00    +0.090 C 
ATOM      9  C   UNL     1      -6.505  17.724  66.325  0.00  0.00    +0.062 C 
ATOM     10  C   UNL     1      -6.900  17.010  67.735  0.00  0.00    +0.042 C 
ATOM     11  C   UNL     1      -7.865  18.755  66.178  0.00  0.00    +0.019 C 
ATOM     12  C   UNL     1      -8.965  17.678  66.710  0.00  0.00    +0.002 C 
ATOM     13  C   UNL     1     -10.248  18.357  66.232  0.00  0.00    +0.000 C 
ATOM     14  C   UNL     1     -10.086  19.840  66.549  0.00  0.00    +0.000 C 
ATOM     15  C   UNL     1      -9.227  20.014  67.763  0.00  0.00    +0.004 C 
ATOM     16  C   UNL     1      -6.601  17.873  68.849  0.00  0.00    -0.025 A 
ATOM     17  C   UNL     1      -5.619  17.630  69.763  0.00  0.00    -0.001 A 
ATOM     18  C   UNL     1      -5.329  18.585  70.697  0.00  0.00    +0.037 A 
ENDROOT
BRANCH   1  20
ATOM     19  C   UNL     1      -4.065  20.900  71.705  0.00  0.00    +0.252 C 
ATOM     20  O   UNL     1      -5.445  20.805  71.453  0.00  0.00    -0.471 OA
ENDBRANCH   1  20
TORSDOF 1
ENDMDL
MODEL 8
REMARK VINA RESULT:      -5.7      4.914      7.421
REMARK  Name = 
REMARK  1 active torsions:
REMARK  status: ('A' for Active; 'I' for Inactive)
REMARK    1  A    between atoms: O_2  and  C_3
REMARK                            x       y       z     vdW  Elec       q    Type
REMARK                         _______ _______ _______ _____ _____    ______ ____
ROOT
ATOM      1  C   UNL     1     -13.167   9.107  72.129  0.00  0.00    +0.138 A 
ATOM      2  C   UNL     1     -12.167   8.239  72.523  0.00  0.00    +0.032 A 
ATOM      3  C   UNL     1     -10.832   8.404  72.143  0.00  0.00    -0.024 A 
ATOM      4  C   UNL     1     -10.048   7.286  72.338  0.00  0.00    +0.021 C 
ATOM      5  C   UNL     1     -10.795   6.008  71.954  0.00  0.00    +0.021 C 
ATOM      6  C   UNL     1     -10.591   5.968  70.440  0.00  0.00    +0.072 C 
ATOM      7  N   UNL     1     -10.498   7.295  69.912  0.00  0.00    -0.272 NA
ATOM      8  C   UNL     1     -10.630   7.151  68.464  0.00  0.00    +0.090 C 
ATOM      9  C   UNL     1      -9.018   7.783  70.038  0.00  0.00    +0.062 C 
ATOM     10  C   UNL     1      -9.321   9.275  70.615  0.00  0.00    +0.042 C 
ATOM     11  C   UNL     1      -8.708   6.996  71.527  0.00  0.00    +0.019 C 
ATOM     12  C   UNL     1      -7.865   8.216  72.202  0.00  0.00    +0.002 C 
ATOM     13  C   UNL     1      -7.201   7.467  73.357  0.00  0.00    +0.000 C 
ATOM     14  C   UNL     1      -8.277   6.565  73.952  0.00  0.00    +0.000 C 
ATOM     15  C   UNL     1      -9.626   7.194  73.780  0.00  0.00    +0.004 C 
ATOM     16  C   UNL     1     -10.655   9.358  71.149  0.00  0.00    -0.025 A 
ATOM     17  C   UNL     1     -11.661  10.090  70.590  0.00  0.00    -0.001 A 
ATOM     18  C   UNL     1     -12.925   9.984  71.100  0.00  0.00    +0.037 A 
ENDROOT
BRANCH   1  20
ATOM     19  C   UNL     1     -15.151   7.664  71.967  0.00  0.00    +0.252 C 
ATOM     20  O   UNL     1     -14.516   8.843  72.395  0.00  0.00    -0.471 OA
ENDBRANCH   1  20
TORSDOF 1
ENDMDL
MODEL 9
REMARK VINA RESULT:      -5.7      4.289      5.687
REMARK  Name = 
REMARK  1 active torsions:
REMARK  status: ('A' for Active; 'I' for Inactive)
REMARK    1  A    between atoms: O_2  and  C_3
REMARK                            x       y       z     vdW  Elec       q    Type
REMARK                         _______ _______ _______ _____ _____    ______ ____
ROOT
ATOM      1  C   UNL     1     -12.641  10.921  71.159  0.00  0.00    +0.138 A 
ATOM      2  C   UNL     1     -11.722  10.277  70.354  0.00  0.00    +0.032 A 
ATOM      3  C   UNL     1     -11.653   8.885  70.251  0.00  0.00    -0.024 A 
ATOM      4  C   UNL     1     -10.486   8.417  69.683  0.00  0.00    +0.021 C 
ATOM      5  C   UNL     1      -9.271   9.205  70.178  0.00  0.00    +0.021 C 
ATOM      6  C   UNL     1      -8.975   8.517  71.510  0.00  0.00    +0.072 C 
ATOM      7  N   UNL     1     -10.182   8.024  72.100  0.00  0.00    -0.272 NA
ATOM      8  C   UNL     1      -9.837   7.688  73.479  0.00  0.00    +0.090 C 
ATOM      9  C   UNL     1     -10.489   6.609  71.507  0.00  0.00    +0.062 C 
ATOM     10  C   UNL     1     -12.078   6.823  71.224  0.00  0.00    +0.042 C 
ATOM     11  C   UNL     1      -9.906   6.956  69.935  0.00  0.00    +0.019 C 
ATOM     12  C   UNL     1     -11.095   6.188  69.128  0.00  0.00    +0.002 C 
ATOM     13  C   UNL     1     -10.452   6.089  67.746  0.00  0.00    +0.000 C 
ATOM     14  C   UNL     1      -9.798   7.441  67.484  0.00  0.00    +0.000 C 
ATOM     15  C   UNL     1     -10.562   8.524  68.183  0.00  0.00    +0.004 C 
ATOM     16  C   UNL     1     -12.413   8.224  71.207  0.00  0.00    -0.025 A 
ATOM     17  C   UNL     1     -13.174   8.841  72.155  0.00  0.00    -0.001 A 
ATOM     18  C   UNL     1     -13.311  10.200  72.117  0.00  0.00    +0.037 A 
ENDROOT
BRANCH   1  20
ATOM     19  C   UNL     1     -13.563  12.986  72.125  0.00  0.00    +0.252 C 
ATOM     20  O   UNL     1     -12.596  12.305  71.363  0.00  0.00    -0.471 OA
ENDBRANCH   1  20
TORSDOF 1
ENDMDL
