MODEL 1
REMARK VINA RESULT:      -4.1      0.000      0.000
REMARK  Name = 
REMARK  1 active torsions:
REMARK  status: ('A' for Active; 'I' for Inactive)
REMARK    1  A    between atoms: C_2  and  C_4
REMARK                            x       y       z     vdW  Elec       q    Type
REMARK                         _______ _______ _______ _____ _____    ______ ____
ROOT
ATOM      1  C   UNL     1     -11.338  11.970  65.746  0.00  0.00    +0.030 C 
ATOM      2  C   UNL     1     -10.095  13.113  66.027  0.00  0.00    +0.152 C 
ATOM      3  O   UNL     1     -10.853  13.864  67.111  0.00  0.00    -0.223 OA
ATOM      4  C   UNL     1     -10.448  14.185  64.885  0.00  0.00    +0.033 C 
ATOM      5  C   UNL     1     -11.960  14.294  64.375  0.00  0.00    +0.003 C 
ATOM      6  C   UNL     1     -12.814  13.873  65.711  0.00  0.00    +0.000 C 
ATOM      7  C   UNL     1     -12.044  12.813  63.683  0.00  0.00    +0.000 C 
ATOM      8  C   UNL     1     -11.021  11.926  64.164  0.00  0.00    +0.003 C 
ENDROOT
BRANCH   1  10
ATOM      9  C   UNL     1     -10.746  10.125  67.315  0.00  0.00    +0.000 C 
ATOM     10  C   UNL     1     -10.351  10.749  66.101  0.00  0.00    +0.002 C 
ATOM     11  C   UNL     1      -9.938  10.012  64.926  0.00  0.00    +0.000 C 
ENDBRANCH   1  10
TORSDOF 1
ENDMDL
MODEL 2
REMARK VINA RESULT:      -4.1      1.557      2.717
REMARK  Name = 
REMARK  1 active torsions:
REMARK  status: ('A' for Active; 'I' for Inactive)
REMARK    1  A    between atoms: C_2  and  C_4
REMARK                            x       y       z     vdW  Elec       q    Type
REMARK                         _______ _______ _______ _____ _____    ______ ____
ROOT
ATOM      1  C   UNL     1     -10.521  12.693  64.814  0.00  0.00    +0.030 C 
ATOM      2  C   UNL     1     -12.224  12.684  64.982  0.00  0.00    +0.152 C 
ATOM      3  O   UNL     1     -12.461  13.777  63.952  0.00  0.00    -0.223 OA
ATOM      4  C   UNL     1     -12.379  13.679  66.233  0.00  0.00    +0.033 C 
ATOM      5  C   UNL     1     -11.246  14.779  66.485  0.00  0.00    +0.003 C 
ATOM      6  C   UNL     1     -10.713  15.089  64.964  0.00  0.00    +0.000 C 
ATOM      7  C   UNL     1     -10.035  13.738  66.848  0.00  0.00    +0.000 C 
ATOM      8  C   UNL     1     -10.304  12.404  66.388  0.00  0.00    +0.003 C 
ENDROOT
BRANCH   1  10
ATOM      9  C   UNL     1     -10.053  10.975  63.069  0.00  0.00    +0.000 C 
ATOM     10  C   UNL     1     -10.512  11.137  64.404  0.00  0.00    +0.002 C 
ATOM     11  C   UNL     1     -10.101  10.279  65.495  0.00  0.00    +0.000 C 
ENDBRANCH   1  10
TORSDOF 1
ENDMDL
MODEL 3
REMARK VINA RESULT:      -4.0      6.313      8.121
REMARK  Name = 
REMARK  1 active torsions:
REMARK  status: ('A' for Active; 'I' for Inactive)
REMARK    1  A    between atoms: C_2  and  C_4
REMARK                            x       y       z     vdW  Elec       q    Type
REMARK                         _______ _______ _______ _____ _____    ______ ____
ROOT
ATOM      1  C   UNL     1      -8.295  19.568  66.160  0.00  0.00    +0.030 C 
ATOM      2  C   UNL     1      -7.800  18.077  66.839  0.00  0.00    +0.152 C 
ATOM      3  O   UNL     1      -8.461  17.222  65.769  0.00  0.00    -0.223 OA
ATOM      4  C   UNL     1      -8.983  17.855  67.901  0.00  0.00    +0.033 C 
ATOM      5  C   UNL     1     -10.407  18.525  67.617  0.00  0.00    +0.003 C 
ATOM      6  C   UNL     1     -10.466  18.541  65.977  0.00  0.00    +0.000 C 
ATOM      7  C   UNL     1      -9.925  20.083  67.754  0.00  0.00    +0.000 C 
ATOM      8  C   UNL     1      -8.503  20.231  67.618  0.00  0.00    +0.003 C 
ENDROOT
BRANCH   1  10
ATOM      9  C   UNL     1      -6.408  20.185  64.652  0.00  0.00    +0.000 C 
ATOM     10  C   UNL     1      -6.769  20.059  66.021  0.00  0.00    +0.002 C 
ATOM     11  C   UNL     1      -6.405  21.029  67.032  0.00  0.00    +0.000 C 
ENDBRANCH   1  10
TORSDOF 1
ENDMDL
MODEL 4
REMARK VINA RESULT:      -4.0      5.043      6.462
REMARK  Name = 
REMARK  1 active torsions:
REMARK  status: ('A' for Active; 'I' for Inactive)
REMARK    1  A    between atoms: C_2  and  C_4
REMARK                            x       y       z     vdW  Elec       q    Type
REMARK                         _______ _______ _______ _____ _____    ______ ____
ROOT
ATOM      1  C   UNL     1      -9.135  17.663  66.615  0.00  0.00    +0.030 C 
ATOM      2  C   UNL     1      -9.579  17.735  68.266  0.00  0.00    +0.152 C 
ATOM      3  O   UNL     1     -11.064  17.910  67.993  0.00  0.00    -0.223 OA
ATOM      4  C   UNL     1      -9.335  19.297  68.545  0.00  0.00    +0.033 C 
ATOM      5  C   UNL     1      -9.443  20.322  67.323  0.00  0.00    +0.003 C 
ATOM      6  C   UNL     1     -10.548  19.595  66.352  0.00  0.00    +0.000 C 
ATOM      7  C   UNL     1      -8.145  19.776  66.489  0.00  0.00    +0.000 C 
ATOM      8  C   UNL     1      -7.754  18.453  66.889  0.00  0.00    +0.003 C 
ENDROOT
BRANCH   1  10
ATOM      9  C   UNL     1      -9.209  15.229  66.079  0.00  0.00    +0.000 C 
ATOM     10  C   UNL     1      -8.481  16.206  66.811  0.00  0.00    +0.002 C 
ATOM     11  C   UNL     1      -7.035  16.250  66.858  0.00  0.00    +0.000 C 
ENDBRANCH   1  10
TORSDOF 1
ENDMDL
MODEL 5
REMARK VINA RESULT:      -4.0      5.201      7.947
REMARK  Name = 
REMARK  1 active torsions:
REMARK  status: ('A' for Active; 'I' for Inactive)
REMARK    1  A    between atoms: C_2  and  C_4
REMARK                            x       y       z     vdW  Elec       q    Type
REMARK                         _______ _______ _______ _____ _____    ______ ____
ROOT
ATOM      1  C   UNL     1     -11.972   8.959  70.749  0.00  0.00    +0.030 C 
ATOM      2  C   UNL     1     -10.729   8.815  71.916  0.00  0.00    +0.152 C 
ATOM      3  O   UNL     1      -9.770   8.081  70.992  0.00  0.00    -0.223 OA
ATOM      4  C   UNL     1     -11.209   7.475  72.660  0.00  0.00    +0.033 C 
ATOM      5  C   UNL     1     -12.094   6.420  71.848  0.00  0.00    +0.003 C 
ATOM      6  C   UNL     1     -11.563   6.626  70.309  0.00  0.00    +0.000 C 
ATOM      7  C   UNL     1     -13.417   7.367  71.668  0.00  0.00    +0.000 C 
ATOM      8  C   UNL     1     -13.124   8.760  71.863  0.00  0.00    +0.003 C 
ENDROOT
BRANCH   1  10
ATOM      9  C   UNL     1     -11.531  11.156  69.655  0.00  0.00    +0.000 C 
ATOM     10  C   UNL     1     -11.961  10.563  70.874  0.00  0.00    +0.002 C 
ATOM     11  C   UNL     1     -13.071  11.066  71.654  0.00  0.00    +0.000 C 
ENDBRANCH   1  10
TORSDOF 1
ENDMDL
MODEL 6
REMARK VINA RESULT:      -3.9      1.694      3.635
REMARK  Name = 
REMARK  1 active torsions:
REMARK  status: ('A' for Active; 'I' for Inactive)
REMARK    1  A    between atoms: C_2  and  C_4
REMARK                            x       y       z     vdW  Elec       q    Type
REMARK                         _______ _______ _______ _____ _____    ______ ____
ROOT
ATOM      1  C   UNL     1     -11.662  12.293  65.867  0.00  0.00    +0.030 C 
ATOM      2  C   UNL     1      -9.955  12.355  65.758  0.00  0.00    +0.152 C 
ATOM      3  O   UNL     1      -9.763  10.851  65.874  0.00  0.00    -0.223 OA
ATOM      4  C   UNL     1      -9.594  12.629  67.299  0.00  0.00    +0.033 C 
ATOM      5  C   UNL     1     -10.615  12.137  68.426  0.00  0.00    +0.003 C 
ATOM      6  C   UNL     1     -11.295  10.814  67.732  0.00  0.00    +0.000 C 
ATOM      7  C   UNL     1     -11.844  13.145  68.036  0.00  0.00    +0.000 C 
ATOM      8  C   UNL     1     -11.719  13.671  66.705  0.00  0.00    +0.003 C 
ENDROOT
BRANCH   1  10
ATOM      9  C   UNL     1     -12.371  12.117  63.483  0.00  0.00    +0.000 C 
ATOM     10  C   UNL     1     -11.821  13.015  64.437  0.00  0.00    +0.002 C 
ATOM     11  C   UNL     1     -12.232  14.397  64.558  0.00  0.00    +0.000 C 
ENDBRANCH   1  10
TORSDOF 1
ENDMDL
MODEL 7
REMARK VINA RESULT:      -3.9      6.711      8.500
REMARK  Name = 
REMARK  1 active torsions:
REMARK  status: ('A' for Active; 'I' for Inactive)
REMARK    1  A    between atoms: C_2  and  C_4
REMARK                            x       y       z     vdW  Elec       q    Type
REMARK                         _______ _______ _______ _____ _____    ______ ____
ROOT
ATOM      1  C   UNL     1      -7.839  19.986  67.522  0.00  0.00    +0.030 C 
ATOM      2  C   UNL     1      -7.396  18.450  66.910  0.00  0.00    +0.152 C 
ATOM      3  O   UNL     1      -7.724  18.789  65.464  0.00  0.00    -0.223 OA
ATOM      4  C   UNL     1      -8.770  17.656  67.149  0.00  0.00    +0.033 C 
ATOM      5  C   UNL     1     -10.139  18.481  67.187  0.00  0.00    +0.003 C 
ATOM      6  C   UNL     1      -9.821  19.735  66.177  0.00  0.00    +0.000 C 
ATOM      7  C   UNL     1      -9.827  19.322  68.556  0.00  0.00    +0.000 C 
ATOM      8  C   UNL     1      -8.428  19.341  68.880  0.00  0.00    +0.003 C 
ENDROOT
BRANCH   1  10
ATOM      9  C   UNL     1      -5.706  21.274  67.447  0.00  0.00    +0.000 C 
ATOM     10  C   UNL     1      -6.365  20.215  68.127  0.00  0.00    +0.002 C 
ATOM     11  C   UNL     1      -6.324  20.046  69.564  0.00  0.00    +0.000 C 
ENDBRANCH   1  10
TORSDOF 1
ENDMDL
MODEL 8
REMARK VINA RESULT:      -3.8      4.795      6.113
REMARK  Name = 
REMARK  1 active torsions:
REMARK  status: ('A' for Active; 'I' for Inactive)
REMARK    1  A    between atoms: C_2  and  C_4
REMARK                            x       y       z     vdW  Elec       q    Type
REMARK                         _______ _______ _______ _____ _____    ______ ____
ROOT
ATOM      1  C   UNL     1     -10.108  17.543  67.406  0.00  0.00    +0.030 C 
ATOM      2  C   UNL     1      -8.417  17.586  67.146  0.00  0.00    +0.152 C 
ATOM      3  O   UNL     1      -8.068  17.807  68.610  0.00  0.00    -0.223 OA
ATOM      4  C   UNL     1      -8.240  19.134  66.758  0.00  0.00    +0.033 C 
ATOM      5  C   UNL     1      -9.303  20.192  67.314  0.00  0.00    +0.003 C 
ATOM      6  C   UNL     1      -9.758  19.518  68.739  0.00  0.00    +0.000 C 
ATOM      7  C   UNL     1     -10.595  19.633  66.478  0.00  0.00    +0.000 C 
ATOM      8  C   UNL     1     -10.402  18.290  66.005  0.00  0.00    +0.003 C 
ENDROOT
BRANCH   1  10
ATOM      9  C   UNL     1     -10.711  15.147  67.739  0.00  0.00    +0.000 C 
ATOM     10  C   UNL     1     -10.209  16.065  66.777  0.00  0.00    +0.002 C 
ATOM     11  C   UNL     1     -10.634  16.079  65.394  0.00  0.00    +0.000 C 
ENDBRANCH   1  10
TORSDOF 1
ENDMDL
MODEL 9
REMARK VINA RESULT:      -3.8      6.692      8.116
REMARK  Name = 
REMARK  1 active torsions:
REMARK  status: ('A' for Active; 'I' for Inactive)
REMARK    1  A    between atoms: C_2  and  C_4
REMARK                            x       y       z     vdW  Elec       q    Type
REMARK                         _______ _______ _______ _____ _____    ______ ____
ROOT
ATOM      1  C   UNL     1     -11.706   8.502  71.045  0.00  0.00    +0.030 C 
ATOM      2  C   UNL     1     -10.852   8.179  72.493  0.00  0.00    +0.152 C 
ATOM      3  O   UNL     1      -9.606   8.948  72.082  0.00  0.00    -0.223 OA
ATOM      4  C   UNL     1     -10.223   6.749  72.124  0.00  0.00    +0.033 C 
ATOM      5  C   UNL     1      -9.970   6.393  70.586  0.00  0.00    +0.003 C 
ATOM      6  C   UNL     1      -9.667   7.867  69.930  0.00  0.00    +0.000 C 
ATOM      7  C   UNL     1     -11.541   6.358  70.129  0.00  0.00    +0.000 C 
ATOM      8  C   UNL     1     -12.397   7.043  71.056  0.00  0.00    +0.003 C 
ENDROOT
BRANCH   1  10
ATOM      9  C   UNL     1     -12.924  10.606  71.598  0.00  0.00    +0.000 C 
ATOM     10  C   UNL     1     -12.901   9.209  71.858  0.00  0.00    +0.002 C 
ATOM     11  C   UNL     1     -14.094   8.390  71.912  0.00  0.00    +0.000 C 
ENDBRANCH   1  10
TORSDOF 1
ENDMDL
