MODEL 1
REMARK VINA RESULT:      -6.4      0.000      0.000
REMARK  Name = 
REMARK  11 active torsions:
REMARK  status: ('A' for Active; 'I' for Inactive)
REMARK    1  A    between atoms: C_2  and  C_3
REMARK    2  A    between atoms: C_3  and  C_5
REMARK    3  A    between atoms: C_5  and  O_7
REMARK    4  A    between atoms: O_7  and  C_8
REMARK    5  A    between atoms: C_18  and  C_19
REMARK    6  A    between atoms: C_19  and  C_20
REMARK    7  A    between atoms: C_20  and  C_21
REMARK    8  A    between atoms: C_21  and  C_23
REMARK    9  A    between atoms: C_23  and  C_24
REMARK   10  A    between atoms: C_24  and  C_26
REMARK   11  A    between atoms: C_26  and  C_27
REMARK                            x       y       z     vdW  Elec       q    Type
REMARK                         _______ _______ _______ _____ _____    ______ ____
ROOT
ATOM      1  C   UNL     1      -8.486  18.615  69.008  0.00  0.00    +0.176 C 
ATOM      2  C   UNL     1      -9.139  17.428  67.949  0.00  0.00    +0.063 C 
ATOM      3  C   UNL     1      -8.143  17.763  66.780  0.00  0.00    -0.021 C 
ATOM      4  C   UNL     1      -6.801  17.352  66.858  0.00  0.00    -0.009 C 
ATOM      5  C   UNL     1      -6.567  16.077  67.181  0.00  0.00    -0.027 C 
ATOM      6  C   UNL     1      -7.889  15.178  67.384  0.00  0.00    +0.022 C 
ATOM      7  C   UNL     1      -8.701  15.867  66.161  0.00  0.00    +0.005 C 
ATOM      8  C   UNL     1      -8.906  18.647  66.344  0.00  0.00    +0.002 C 
ATOM      9  C   UNL     1      -9.561  19.966  66.997  0.00  0.00    +0.177 C 
ATOM     10  O   UNL     1     -10.995  19.499  66.676  0.00  0.00    -0.218 OA
ATOM     11  C   UNL     1      -8.407  16.115  68.698  0.00  0.00    +0.012 C 
ATOM     12  C   UNL     1      -9.759  19.533  68.580  0.00  0.00    +0.081 C 
ENDROOT
BRANCH   1  13
ATOM     13  O   UNL     1      -7.510  19.360  68.076  0.00  0.00    -0.452 OA
BRANCH  13  14
ATOM     14  C   UNL     1      -6.679  20.052  68.770  0.00  0.00    +0.316 C 
ATOM     15  O   UNL     1      -6.452  19.906  70.011  0.00  0.00    -0.250 OA
BRANCH  14  16
ATOM     16  C   UNL     1      -5.478  21.001  68.320  0.00  0.00    +0.099 C 
ATOM     17  C   UNL     1      -4.357  19.864  67.937  0.00  0.00    +0.012 C 
BRANCH  16  19
ATOM     18  C   UNL     1      -5.752  21.255  66.507  0.00  0.00    +0.001 C 
ATOM     19  C   UNL     1      -6.059  21.052  66.773  0.00  0.00    +0.011 C 
ENDBRANCH  16  19
ENDBRANCH  14  16
ENDBRANCH  13  14
ENDBRANCH   1  13
BRANCH  11  20
ATOM     20  C   UNL     1      -9.859  15.412  68.837  0.00  0.00    +0.003 C 
BRANCH  20  21
ATOM     21  C   UNL     1     -10.616  15.920  69.947  0.00  0.00    +0.033 C 
BRANCH  21  22
ATOM     22  C   UNL     1     -12.220  15.562  69.743  0.00  0.00    +0.155 C 
ATOM     23  O   UNL     1     -12.020  14.834  68.419  0.00  0.00    -0.223 OA
BRANCH  22  24
ATOM     24  C   UNL     1     -12.100  14.187  70.655  0.00  0.00    +0.066 C 
BRANCH  24  25
ATOM     25  C   UNL     1     -13.393  14.371  71.671  0.00  0.00    +0.166 C 
ATOM     26  O   UNL     1     -13.401  12.881  71.994  0.00  0.00    -0.222 OA
BRANCH  25  27
ATOM     27  C   UNL     1     -12.461  14.704  72.998  0.00  0.00    +0.147 C 
BRANCH  27  28
ATOM     28  C   UNL     1     -13.041  15.899  73.625  0.00  0.00    +0.367 C 
ATOM     29  O   UNL     1     -12.509  16.429  74.796  0.00  0.00    -0.246 OA
ATOM     30  O   UNL     1     -14.092  16.325  73.081  0.00  0.00    -0.246 OA
ENDBRANCH  27  28
ENDBRANCH  25  27
ENDBRANCH  24  25
ENDBRANCH  22  24
ENDBRANCH  21  22
ENDBRANCH  20  21
ENDBRANCH  11  20
TORSDOF 11
ENDMDL
MODEL 2
REMARK VINA RESULT:      -6.2      3.151      5.019
REMARK  Name = 
REMARK  11 active torsions:
REMARK  status: ('A' for Active; 'I' for Inactive)
REMARK    1  A    between atoms: C_2  and  C_3
REMARK    2  A    between atoms: C_3  and  C_5
REMARK    3  A    between atoms: C_5  and  O_7
REMARK    4  A    between atoms: O_7  and  C_8
REMARK    5  A    between atoms: C_18  and  C_19
REMARK    6  A    between atoms: C_19  and  C_20
REMARK    7  A    between atoms: C_20  and  C_21
REMARK    8  A    between atoms: C_21  and  C_23
REMARK    9  A    between atoms: C_23  and  C_24
REMARK   10  A    between atoms: C_24  and  C_26
REMARK   11  A    between atoms: C_26  and  C_27
REMARK                            x       y       z     vdW  Elec       q    Type
REMARK                         _______ _______ _______ _____ _____    ______ ____
ROOT
ATOM      1  C   UNL     1      -7.104  17.653  66.135  0.00  0.00    +0.176 C 
ATOM      2  C   UNL     1      -8.233  17.586  67.431  0.00  0.00    +0.063 C 
ATOM      3  C   UNL     1      -8.009  19.085  67.850  0.00  0.00    -0.021 C 
ATOM      4  C   UNL     1      -8.548  20.122  67.069  0.00  0.00    -0.009 C 
ATOM      5  C   UNL     1      -9.837  20.029  66.729  0.00  0.00    -0.027 C 
ATOM      6  C   UNL     1     -10.600  18.739  67.322  0.00  0.00    +0.022 C 
ATOM      7  C   UNL     1      -9.848  18.794  68.757  0.00  0.00    +0.005 C 
ATOM      8  C   UNL     1      -7.060  18.766  68.592  0.00  0.00    +0.002 C 
ATOM      9  C   UNL     1      -5.676  17.978  68.344  0.00  0.00    +0.177 C 
ATOM     10  O   UNL     1      -6.004  16.920  69.416  0.00  0.00    -0.218 OA
ATOM     11  C   UNL     1      -9.603  17.670  66.464  0.00  0.00    +0.012 C 
ATOM     12  C   UNL     1      -6.071  16.908  67.148  0.00  0.00    +0.081 C 
ENDROOT
BRANCH   1  13
ATOM     13  O   UNL     1      -6.468  19.040  66.348  0.00  0.00    -0.452 OA
BRANCH  13  14
ATOM     14  C   UNL     1      -5.855  19.413  65.282  0.00  0.00    +0.316 C 
ATOM     15  O   UNL     1      -6.207  19.135  64.094  0.00  0.00    -0.250 OA
BRANCH  14  16
ATOM     16  C   UNL     1      -4.758  20.547  65.050  0.00  0.00    +0.099 C 
ATOM     17  C   UNL     1      -4.889  21.353  66.474  0.00  0.00    +0.012 C 
BRANCH  16  19
ATOM     18  C   UNL     1      -3.283  19.805  65.886  0.00  0.00    +0.001 C 
ATOM     19  C   UNL     1      -3.569  19.558  65.635  0.00  0.00    +0.011 C 
ENDBRANCH  16  19
ENDBRANCH  14  16
ENDBRANCH  13  14
ENDBRANCH   1  13
BRANCH  11  20
ATOM     20  C   UNL     1     -10.160  16.324  67.172  0.00  0.00    +0.003 C 
BRANCH  20  21
ATOM     21  C   UNL     1      -9.440  15.148  66.770  0.00  0.00    +0.033 C 
BRANCH  21  22
ATOM     22  C   UNL     1      -9.722  13.922  67.846  0.00  0.00    +0.155 C 
ATOM     23  O   UNL     1      -9.903  14.845  69.046  0.00  0.00    -0.223 OA
BRANCH  22  24
ATOM     24  C   UNL     1     -11.336  13.882  67.482  0.00  0.00    +0.066 C 
BRANCH  24  25
ATOM     25  C   UNL     1     -11.323  12.970  66.101  0.00  0.00    +0.166 C 
ATOM     26  O   UNL     1     -12.093  11.848  66.788  0.00  0.00    -0.222 OA
BRANCH  25  27
ATOM     27  C   UNL     1     -12.719  13.630  65.505  0.00  0.00    +0.147 C 
BRANCH  27  28
ATOM     28  C   UNL     1     -12.360  14.297  64.246  0.00  0.00    +0.367 C 
ATOM     29  O   UNL     1     -11.978  15.634  64.222  0.00  0.00    -0.246 OA
ATOM     30  O   UNL     1     -12.525  13.601  63.212  0.00  0.00    -0.246 OA
ENDBRANCH  27  28
ENDBRANCH  25  27
ENDBRANCH  24  25
ENDBRANCH  22  24
ENDBRANCH  21  22
ENDBRANCH  20  21
ENDBRANCH  11  20
TORSDOF 11
ENDMDL
MODEL 3
REMARK VINA RESULT:      -6.2      3.425      5.439
REMARK  Name = 
REMARK  11 active torsions:
REMARK  status: ('A' for Active; 'I' for Inactive)
REMARK    1  A    between atoms: C_2  and  C_3
REMARK    2  A    between atoms: C_3  and  C_5
REMARK    3  A    between atoms: C_5  and  O_7
REMARK    4  A    between atoms: O_7  and  C_8
REMARK    5  A    between atoms: C_18  and  C_19
REMARK    6  A    between atoms: C_19  and  C_20
REMARK    7  A    between atoms: C_20  and  C_21
REMARK    8  A    between atoms: C_21  and  C_23
REMARK    9  A    between atoms: C_23  and  C_24
REMARK   10  A    between atoms: C_24  and  C_26
REMARK   11  A    between atoms: C_26  and  C_27
REMARK                            x       y       z     vdW  Elec       q    Type
REMARK                         _______ _______ _______ _____ _____    ______ ____
ROOT
ATOM      1  C   UNL     1      -7.111  17.692  66.097  0.00  0.00    +0.176 C 
ATOM      2  C   UNL     1      -8.256  17.487  67.364  0.00  0.00    +0.063 C 
ATOM      3  C   UNL     1      -8.130  18.971  67.866  0.00  0.00    -0.021 C 
ATOM      4  C   UNL     1      -8.718  20.016  67.132  0.00  0.00    -0.009 C 
ATOM      5  C   UNL     1      -9.993  19.864  66.761  0.00  0.00    -0.027 C 
ATOM      6  C   UNL     1     -10.686  18.500  67.268  0.00  0.00    +0.022 C 
ATOM      7  C   UNL     1      -9.964  18.522  68.720  0.00  0.00    +0.005 C 
ATOM      8  C   UNL     1      -7.176  18.670  68.610  0.00  0.00    +0.002 C 
ATOM      9  C   UNL     1      -5.743  17.981  68.348  0.00  0.00    +0.177 C 
ATOM     10  O   UNL     1      -6.025  16.848  69.356  0.00  0.00    -0.218 OA
ATOM     11  C   UNL     1      -9.612  17.541  66.375  0.00  0.00    +0.012 C 
ATOM     12  C   UNL     1      -6.052  16.956  67.088  0.00  0.00    +0.081 C 
ENDROOT
BRANCH   1  13
ATOM     13  O   UNL     1      -6.564  19.101  66.396  0.00  0.00    -0.452 OA
BRANCH  13  14
ATOM     14  C   UNL     1      -5.933  19.557  65.374  0.00  0.00    +0.316 C 
ATOM     15  O   UNL     1      -6.234  19.330  64.161  0.00  0.00    -0.250 OA
BRANCH  14  16
ATOM     16  C   UNL     1      -4.877  20.745  65.242  0.00  0.00    +0.099 C 
ATOM     17  C   UNL     1      -5.130  21.499  66.678  0.00  0.00    +0.012 C 
BRANCH  16  19
ATOM     18  C   UNL     1      -3.281  19.934  65.710  0.00  0.00    +0.001 C 
ATOM     19  C   UNL     1      -3.682  19.792  65.871  0.00  0.00    +0.011 C 
ENDBRANCH  16  19
ENDBRANCH  14  16
ENDBRANCH  13  14
ENDBRANCH   1  13
BRANCH  11  20
ATOM     20  C   UNL     1     -10.097  16.128  66.998  0.00  0.00    +0.003 C 
BRANCH  20  21
ATOM     21  C   UNL     1      -9.135  15.078  66.807  0.00  0.00    +0.033 C 
BRANCH  21  22
ATOM     22  C   UNL     1      -9.911  13.621  66.690  0.00  0.00    +0.155 C 
ATOM     23  O   UNL     1      -9.936  13.368  68.193  0.00  0.00    -0.223 OA
BRANCH  22  24
ATOM     24  C   UNL     1     -11.402  14.338  66.665  0.00  0.00    +0.066 C 
BRANCH  24  25
ATOM     25  C   UNL     1     -12.261  13.245  65.768  0.00  0.00    +0.166 C 
ATOM     26  O   UNL     1     -13.320  14.289  65.437  0.00  0.00    -0.222 OA
BRANCH  25  27
ATOM     27  C   UNL     1     -11.438  13.562  64.367  0.00  0.00    +0.147 C 
BRANCH  27  28
ATOM     28  C   UNL     1     -11.596  12.377  63.514  0.00  0.00    +0.367 C 
ATOM     29  O   UNL     1     -12.856  11.874  63.204  0.00  0.00    -0.246 OA
ATOM     30  O   UNL     1     -10.521  11.814  63.183  0.00  0.00    -0.246 OA
ENDBRANCH  27  28
ENDBRANCH  25  27
ENDBRANCH  24  25
ENDBRANCH  22  24
ENDBRANCH  21  22
ENDBRANCH  20  21
ENDBRANCH  11  20
TORSDOF 11
ENDMDL
MODEL 4
REMARK VINA RESULT:      -6.1      1.738      3.325
REMARK  Name = 
REMARK  11 active torsions:
REMARK  status: ('A' for Active; 'I' for Inactive)
REMARK    1  A    between atoms: C_2  and  C_3
REMARK    2  A    between atoms: C_3  and  C_5
REMARK    3  A    between atoms: C_5  and  O_7
REMARK    4  A    between atoms: O_7  and  C_8
REMARK    5  A    between atoms: C_18  and  C_19
REMARK    6  A    between atoms: C_19  and  C_20
REMARK    7  A    between atoms: C_20  and  C_21
REMARK    8  A    between atoms: C_21  and  C_23
REMARK    9  A    between atoms: C_23  and  C_24
REMARK   10  A    between atoms: C_24  and  C_26
REMARK   11  A    between atoms: C_26  and  C_27
REMARK                            x       y       z     vdW  Elec       q    Type
REMARK                         _______ _______ _______ _____ _____    ______ ____
ROOT
ATOM      1  C   UNL     1      -7.287  17.619  66.573  0.00  0.00    +0.176 C 
ATOM      2  C   UNL     1      -8.354  17.899  67.893  0.00  0.00    +0.063 C 
ATOM      3  C   UNL     1      -7.935  19.406  68.054  0.00  0.00    -0.021 C 
ATOM      4  C   UNL     1      -8.385  20.365  67.130  0.00  0.00    -0.009 C 
ATOM      5  C   UNL     1      -9.690  20.378  66.845  0.00  0.00    -0.027 C 
ATOM      6  C   UNL     1     -10.571  19.303  67.661  0.00  0.00    +0.022 C 
ATOM      7  C   UNL     1      -9.751  19.492  69.047  0.00  0.00    +0.005 C 
ATOM      8  C   UNL     1      -6.996  19.094  68.812  0.00  0.00    +0.002 C 
ATOM      9  C   UNL     1      -5.728  18.112  68.659  0.00  0.00    +0.177 C 
ATOM     10  O   UNL     1      -6.127  17.287  69.898  0.00  0.00    -0.218 OA
ATOM     11  C   UNL     1      -9.748  17.997  66.963  0.00  0.00    +0.012 C 
ATOM     12  C   UNL     1      -6.302  16.923  67.664  0.00  0.00    +0.081 C 
ENDROOT
BRANCH   1  13
ATOM     13  O   UNL     1      -6.483  18.933  66.539  0.00  0.00    -0.452 OA
BRANCH  13  14
ATOM     14  C   UNL     1      -5.818  19.016  65.442  0.00  0.00    +0.316 C 
ATOM     15  O   UNL     1      -6.288  18.821  64.278  0.00  0.00    -0.250 OA
BRANCH  14  16
ATOM     16  C   UNL     1      -4.403  19.681  65.124  0.00  0.00    +0.099 C 
ATOM     17  C   UNL     1      -4.811  20.581  63.813  0.00  0.00    +0.012 C 
BRANCH  16  19
ATOM     18  C   UNL     1      -4.343  21.170  66.223  0.00  0.00    +0.001 C 
ATOM     19  C   UNL     1      -4.721  20.925  66.166  0.00  0.00    +0.011 C 
ENDBRANCH  16  19
ENDBRANCH  14  16
ENDBRANCH  13  14
ENDBRANCH   1  13
BRANCH  11  20
ATOM     20  C   UNL     1     -10.425  16.860  67.896  0.00  0.00    +0.003 C 
BRANCH  20  21
ATOM     21  C   UNL     1     -10.576  15.603  67.216  0.00  0.00    +0.033 C 
BRANCH  21  22
ATOM     22  C   UNL     1     -11.389  14.536  68.186  0.00  0.00    +0.155 C 
ATOM     23  O   UNL     1     -10.207  13.588  68.352  0.00  0.00    -0.223 OA
BRANCH  22  24
ATOM     24  C   UNL     1     -11.040  15.403  69.551  0.00  0.00    +0.066 C 
BRANCH  24  25
ATOM     25  C   UNL     1     -12.485  15.322  70.352  0.00  0.00    +0.166 C 
ATOM     26  O   UNL     1     -12.176  13.915  70.849  0.00  0.00    -0.222 OA
BRANCH  25  27
ATOM     27  C   UNL     1     -11.893  15.998  71.743  0.00  0.00    +0.147 C 
BRANCH  27  28
ATOM     28  C   UNL     1     -12.896  15.750  72.787  0.00  0.00    +0.367 C 
ATOM     29  O   UNL     1     -14.246  15.995  72.561  0.00  0.00    -0.246 OA
ATOM     30  O   UNL     1     -12.427  15.406  73.901  0.00  0.00    -0.246 OA
ENDBRANCH  27  28
ENDBRANCH  25  27
ENDBRANCH  24  25
ENDBRANCH  22  24
ENDBRANCH  21  22
ENDBRANCH  20  21
ENDBRANCH  11  20
TORSDOF 11
ENDMDL
MODEL 5
REMARK VINA RESULT:      -6.1      3.657      5.164
REMARK  Name = 
REMARK  11 active torsions:
REMARK  status: ('A' for Active; 'I' for Inactive)
REMARK    1  A    between atoms: C_2  and  C_3
REMARK    2  A    between atoms: C_3  and  C_5
REMARK    3  A    between atoms: C_5  and  O_7
REMARK    4  A    between atoms: O_7  and  C_8
REMARK    5  A    between atoms: C_18  and  C_19
REMARK    6  A    between atoms: C_19  and  C_20
REMARK    7  A    between atoms: C_20  and  C_21
REMARK    8  A    between atoms: C_21  and  C_23
REMARK    9  A    between atoms: C_23  and  C_24
REMARK   10  A    between atoms: C_24  and  C_26
REMARK   11  A    between atoms: C_26  and  C_27
REMARK                            x       y       z     vdW  Elec       q    Type
REMARK                         _______ _______ _______ _____ _____    ______ ____
ROOT
ATOM      1  C   UNL     1      -7.189  17.723  65.966  0.00  0.00    +0.176 C 
ATOM      2  C   UNL     1      -8.356  17.509  67.213  0.00  0.00    +0.063 C 
ATOM      3  C   UNL     1      -8.080  18.914  67.862  0.00  0.00    -0.021 C 
ATOM      4  C   UNL     1      -8.554  20.082  67.240  0.00  0.00    -0.009 C 
ATOM      5  C   UNL     1      -9.836  20.100  66.863  0.00  0.00    -0.027 C 
ATOM      6  C   UNL     1     -10.668  18.770  67.233  0.00  0.00    +0.022 C 
ATOM      7  C   UNL     1      -9.954  18.571  68.676  0.00  0.00    +0.005 C 
ATOM      8  C   UNL     1      -7.166  18.442  68.566  0.00  0.00    +0.002 C 
ATOM      9  C   UNL     1      -5.810  17.640  68.228  0.00  0.00    +0.177 C 
ATOM     10  O   UNL     1      -6.211  16.445  69.117  0.00  0.00    -0.218 OA
ATOM     11  C   UNL     1      -9.694  17.802  66.242  0.00  0.00    +0.012 C 
ATOM     12  C   UNL     1      -6.216  16.785  66.872  0.00  0.00    +0.081 C 
ENDROOT
BRANCH   1  13
ATOM     13  O   UNL     1      -6.502  19.030  66.404  0.00  0.00    -0.452 OA
BRANCH  13  14
ATOM     14  C   UNL     1      -5.877  19.554  65.411  0.00  0.00    +0.316 C 
ATOM     15  O   UNL     1      -6.214  19.454  64.191  0.00  0.00    -0.250 OA
BRANCH  14  16
ATOM     16  C   UNL     1      -4.776  20.708  65.360  0.00  0.00    +0.099 C 
ATOM     17  C   UNL     1      -5.066  21.428  66.807  0.00  0.00    +0.012 C 
BRANCH  16  19
ATOM     18  C   UNL     1      -3.229  19.865  65.927  0.00  0.00    +0.001 C 
ATOM     19  C   UNL     1      -3.642  19.696  66.010  0.00  0.00    +0.011 C 
ENDBRANCH  16  19
ENDBRANCH  14  16
ENDBRANCH  13  14
ENDBRANCH   1  13
BRANCH  11  20
ATOM     20  C   UNL     1     -10.325  16.390  66.721  0.00  0.00    +0.003 C 
BRANCH  20  21
ATOM     21  C   UNL     1     -10.373  15.418  65.665  0.00  0.00    +0.033 C 
BRANCH  21  22
ATOM     22  C   UNL     1     -11.911  15.324  65.059  0.00  0.00    +0.155 C 
ATOM     23  O   UNL     1     -11.649  16.278  63.899  0.00  0.00    -0.223 OA
BRANCH  22  24
ATOM     24  C   UNL     1     -11.557  13.967  64.181  0.00  0.00    +0.066 C 
BRANCH  24  25
ATOM     25  C   UNL     1     -12.494  12.842  64.953  0.00  0.00    +0.166 C 
ATOM     26  O   UNL     1     -12.924  12.232  63.624  0.00  0.00    -0.222 OA
BRANCH  25  27
ATOM     27  C   UNL     1     -11.262  11.747  65.113  0.00  0.00    +0.147 C 
BRANCH  27  28
ATOM     28  C   UNL     1     -11.049  11.568  66.555  0.00  0.00    +0.367 C 
ATOM     29  O   UNL     1      -9.913  10.931  67.042  0.00  0.00    -0.246 OA
ATOM     30  O   UNL     1     -12.006  11.940  67.282  0.00  0.00    -0.246 OA
ENDBRANCH  27  28
ENDBRANCH  25  27
ENDBRANCH  24  25
ENDBRANCH  22  24
ENDBRANCH  21  22
ENDBRANCH  20  21
ENDBRANCH  11  20
TORSDOF 11
ENDMDL
MODEL 6
REMARK VINA RESULT:      -6.1      2.530      4.064
REMARK  Name = 
REMARK  11 active torsions:
REMARK  status: ('A' for Active; 'I' for Inactive)
REMARK    1  A    between atoms: C_2  and  C_3
REMARK    2  A    between atoms: C_3  and  C_5
REMARK    3  A    between atoms: C_5  and  O_7
REMARK    4  A    between atoms: O_7  and  C_8
REMARK    5  A    between atoms: C_18  and  C_19
REMARK    6  A    between atoms: C_19  and  C_20
REMARK    7  A    between atoms: C_20  and  C_21
REMARK    8  A    between atoms: C_21  and  C_23
REMARK    9  A    between atoms: C_23  and  C_24
REMARK   10  A    between atoms: C_24  and  C_26
REMARK   11  A    between atoms: C_26  and  C_27
REMARK                            x       y       z     vdW  Elec       q    Type
REMARK                         _______ _______ _______ _____ _____    ______ ____
ROOT
ATOM      1  C   UNL     1      -9.281  14.225  68.099  0.00  0.00    +0.176 C 
ATOM      2  C   UNL     1     -10.912  14.039  67.586  0.00  0.00    +0.063 C 
ATOM      3  C   UNL     1     -10.734  14.957  66.322  0.00  0.00    -0.021 C 
ATOM      4  C   UNL     1     -10.036  14.480  65.198  0.00  0.00    -0.009 C 
ATOM      5  C   UNL     1     -10.376  13.277  64.729  0.00  0.00    -0.027 C 
ATOM      6  C   UNL     1     -11.593  12.566  65.511  0.00  0.00    +0.022 C 
ATOM      7  C   UNL     1     -12.433  13.939  65.714  0.00  0.00    +0.005 C 
ATOM      8  C   UNL     1     -11.006  15.975  66.987  0.00  0.00    +0.002 C 
ATOM      9  C   UNL     1     -10.377  16.628  68.319  0.00  0.00    +0.177 C 
ATOM     10  O   UNL     1     -11.729  16.591  69.060  0.00  0.00    -0.218 OA
ATOM     11  C   UNL     1     -10.713  12.495  66.956  0.00  0.00    +0.012 C 
ATOM     12  C   UNL     1      -9.861  15.307  69.168  0.00  0.00    +0.081 C 
ENDROOT
BRANCH   1  13
ATOM     13  O   UNL     1      -8.771  15.308  67.130  0.00  0.00    -0.452 OA
BRANCH  13  14
ATOM     14  C   UNL     1      -7.490  15.396  67.199  0.00  0.00    +0.316 C 
ATOM     15  O   UNL     1      -6.686  14.414  67.253  0.00  0.00    -0.250 OA
BRANCH  14  16
ATOM     16  C   UNL     1      -6.508  16.617  66.902  0.00  0.00    +0.099 C 
ATOM     17  C   UNL     1      -7.557  17.638  66.158  0.00  0.00    +0.012 C 
BRANCH  16  19
ATOM     18  C   UNL     1      -6.505  17.581  68.482  0.00  0.00    +0.001 C 
ATOM     19  C   UNL     1      -6.819  17.267  68.390  0.00  0.00    +0.011 C 
ENDBRANCH  16  19
ENDBRANCH  14  16
ENDBRANCH  13  14
ENDBRANCH   1  13
BRANCH  11  20
ATOM     20  C   UNL     1     -11.947  11.986  67.873  0.00  0.00    +0.003 C 
BRANCH  20  21
ATOM     21  C   UNL     1     -11.549  11.003  68.843  0.00  0.00    +0.033 C 
BRANCH  21  22
ATOM     22  C   UNL     1     -12.569  11.054  70.145  0.00  0.00    +0.155 C 
ATOM     23  O   UNL     1     -11.661  10.231  71.051  0.00  0.00    -0.223 OA
BRANCH  22  24
ATOM     24  C   UNL     1     -11.960  12.506  70.653  0.00  0.00    +0.066 C 
BRANCH  24  25
ATOM     25  C   UNL     1     -13.353  13.312  71.040  0.00  0.00    +0.166 C 
ATOM     26  O   UNL     1     -13.411  12.636  72.405  0.00  0.00    -0.222 OA
BRANCH  25  27
ATOM     27  C   UNL     1     -12.564  14.625  71.669  0.00  0.00    +0.147 C 
BRANCH  27  28
ATOM     28  C   UNL     1     -13.561  15.379  72.441  0.00  0.00    +0.367 C 
ATOM     29  O   UNL     1     -14.763  15.781  71.868  0.00  0.00    -0.246 OA
ATOM     30  O   UNL     1     -13.196  15.706  73.599  0.00  0.00    -0.246 OA
ENDBRANCH  27  28
ENDBRANCH  25  27
ENDBRANCH  24  25
ENDBRANCH  22  24
ENDBRANCH  21  22
ENDBRANCH  20  21
ENDBRANCH  11  20
TORSDOF 11
ENDMDL
MODEL 7
REMARK VINA RESULT:      -6.0      2.126      4.011
REMARK  Name = 
REMARK  11 active torsions:
REMARK  status: ('A' for Active; 'I' for Inactive)
REMARK    1  A    between atoms: C_2  and  C_3
REMARK    2  A    between atoms: C_3  and  C_5
REMARK    3  A    between atoms: C_5  and  O_7
REMARK    4  A    between atoms: O_7  and  C_8
REMARK    5  A    between atoms: C_18  and  C_19
REMARK    6  A    between atoms: C_19  and  C_20
REMARK    7  A    between atoms: C_20  and  C_21
REMARK    8  A    between atoms: C_21  and  C_23
REMARK    9  A    between atoms: C_23  and  C_24
REMARK   10  A    between atoms: C_24  and  C_26
REMARK   11  A    between atoms: C_26  and  C_27
REMARK                            x       y       z     vdW  Elec       q    Type
REMARK                         _______ _______ _______ _____ _____    ______ ____
ROOT
ATOM      1  C   UNL     1      -8.645  18.730  68.827  0.00  0.00    +0.176 C 
ATOM      2  C   UNL     1      -9.310  17.596  67.717  0.00  0.00    +0.063 C 
ATOM      3  C   UNL     1      -8.136  17.752  66.684  0.00  0.00    -0.021 C 
ATOM      4  C   UNL     1      -6.882  17.173  66.950  0.00  0.00    -0.009 C 
ATOM      5  C   UNL     1      -6.865  15.893  67.330  0.00  0.00    -0.027 C 
ATOM      6  C   UNL     1      -8.311  15.182  67.376  0.00  0.00    +0.022 C 
ATOM      7  C   UNL     1      -8.859  15.921  66.040  0.00  0.00    +0.005 C 
ATOM      8  C   UNL     1      -8.711  18.708  66.130  0.00  0.00    +0.002 C 
ATOM      9  C   UNL     1      -9.262  20.127  66.660  0.00  0.00    +0.177 C 
ATOM     10  O   UNL     1     -10.692  19.838  66.163  0.00  0.00    -0.218 OA
ATOM     11  C   UNL     1      -8.863  16.230  68.587  0.00  0.00    +0.012 C 
ATOM     12  C   UNL     1      -9.718  19.788  68.212  0.00  0.00    +0.081 C 
ENDROOT
BRANCH   1  13
ATOM     13  O   UNL     1      -7.467  19.304  68.016  0.00  0.00    -0.452 OA
BRANCH  13  14
ATOM     14  C   UNL     1      -6.687  19.975  68.786  0.00  0.00    +0.316 C 
ATOM     15  O   UNL     1      -6.664  19.906  70.054  0.00  0.00    -0.250 OA
BRANCH  14  16
ATOM     16  C   UNL     1      -5.347  20.782  68.470  0.00  0.00    +0.099 C 
ATOM     17  C   UNL     1      -4.469  19.590  67.759  0.00  0.00    +0.012 C 
BRANCH  16  19
ATOM     18  C   UNL     1      -5.619  21.350  66.730  0.00  0.00    +0.001 C 
ATOM     19  C   UNL     1      -5.961  21.292  67.022  0.00  0.00    +0.011 C 
ENDBRANCH  16  19
ENDBRANCH  14  16
ENDBRANCH  13  14
ENDBRANCH   1  13
BRANCH  11  20
ATOM     20  C   UNL     1     -10.402  15.728  68.548  0.00  0.00    +0.003 C 
BRANCH  20  21
ATOM     21  C   UNL     1     -10.754  14.933  69.692  0.00  0.00    +0.033 C 
BRANCH  21  22
ATOM     22  C   UNL     1     -11.101  13.386  69.213  0.00  0.00    +0.155 C 
ATOM     23  O   UNL     1     -12.335  13.253  70.098  0.00  0.00    -0.223 OA
BRANCH  22  24
ATOM     24  C   UNL     1     -11.953  13.911  67.896  0.00  0.00    +0.066 C 
BRANCH  24  25
ATOM     25  C   UNL     1     -11.262  13.005  66.696  0.00  0.00    +0.166 C 
ATOM     26  O   UNL     1     -12.055  11.773  67.115  0.00  0.00    -0.222 OA
BRANCH  25  27
ATOM     27  C   UNL     1     -12.400  13.413  65.564  0.00  0.00    +0.147 C 
BRANCH  27  28
ATOM     28  C   UNL     1     -11.757  13.262  64.252  0.00  0.00    +0.367 C 
ATOM     29  O   UNL     1     -12.509  13.077  63.097  0.00  0.00    -0.246 OA
ATOM     30  O   UNL     1     -10.501  13.213  64.281  0.00  0.00    -0.246 OA
ENDBRANCH  27  28
ENDBRANCH  25  27
ENDBRANCH  24  25
ENDBRANCH  22  24
ENDBRANCH  21  22
ENDBRANCH  20  21
ENDBRANCH  11  20
TORSDOF 11
ENDMDL
MODEL 8
REMARK VINA RESULT:      -6.0      3.179      7.595
REMARK  Name = 
REMARK  11 active torsions:
REMARK  status: ('A' for Active; 'I' for Inactive)
REMARK    1  A    between atoms: C_2  and  C_3
REMARK    2  A    between atoms: C_3  and  C_5
REMARK    3  A    between atoms: C_5  and  O_7
REMARK    4  A    between atoms: O_7  and  C_8
REMARK    5  A    between atoms: C_18  and  C_19
REMARK    6  A    between atoms: C_19  and  C_20
REMARK    7  A    between atoms: C_20  and  C_21
REMARK    8  A    between atoms: C_21  and  C_23
REMARK    9  A    between atoms: C_23  and  C_24
REMARK   10  A    between atoms: C_24  and  C_26
REMARK   11  A    between atoms: C_26  and  C_27
REMARK                            x       y       z     vdW  Elec       q    Type
REMARK                         _______ _______ _______ _____ _____    ______ ____
ROOT
ATOM      1  C   UNL     1      -9.779  14.005  65.921  0.00  0.00    +0.176 C 
ATOM      2  C   UNL     1     -10.825  15.161  66.651  0.00  0.00    +0.063 C 
ATOM      3  C   UNL     1     -11.261  14.195  67.812  0.00  0.00    -0.021 C 
ATOM      4  C   UNL     1     -10.375  13.920  68.869  0.00  0.00    -0.009 C 
ATOM      5  C   UNL     1      -9.786  14.961  69.463  0.00  0.00    -0.027 C 
ATOM      6  C   UNL     1     -10.230  16.403  68.896  0.00  0.00    +0.022 C 
ATOM      7  C   UNL     1     -11.786  15.990  68.703  0.00  0.00    +0.005 C 
ATOM      8  C   UNL     1     -12.182  13.726  67.116  0.00  0.00    +0.002 C 
ATOM      9  C   UNL     1     -12.225  13.015  65.671  0.00  0.00    +0.177 C 
ATOM     10  O   UNL     1     -13.223  14.050  65.113  0.00  0.00    -0.218 OA
ATOM     11  C   UNL     1      -9.602  16.068  67.359  0.00  0.00    +0.012 C 
ATOM     12  C   UNL     1     -10.987  13.752  64.861  0.00  0.00    +0.081 C 
ENDROOT
BRANCH   1  13
ATOM     13  O   UNL     1     -10.098  12.738  66.737  0.00  0.00    -0.452 OA
BRANCH  13  14
ATOM     14  C   UNL     1      -9.144  11.886  66.620  0.00  0.00    +0.316 C 
ATOM     15  O   UNL     1      -7.909  12.132  66.789  0.00  0.00    -0.250 OA
BRANCH  14  16
ATOM     16  C   UNL     1      -9.165  10.291  66.586  0.00  0.00    +0.099 C 
ATOM     17  C   UNL     1     -10.635  10.021  67.266  0.00  0.00    +0.012 C 
BRANCH  16  19
ATOM     18  C   UNL     1      -9.840   9.874  64.914  0.00  0.00    +0.001 C 
ATOM     19  C   UNL     1      -9.794  10.302  65.058  0.00  0.00    +0.011 C 
ENDBRANCH  16  19
ENDBRANCH  14  16
ENDBRANCH  13  14
ENDBRANCH   1  13
BRANCH  11  20
ATOM     20  C   UNL     1     -10.201  17.393  66.646  0.00  0.00    +0.003 C 
BRANCH  20  21
ATOM     21  C   UNL     1      -9.189  18.368  66.350  0.00  0.00    +0.033 C 
BRANCH  21  22
ATOM     22  C   UNL     1      -9.793  19.892  66.585  0.00  0.00    +0.155 C 
ATOM     23  O   UNL     1     -11.081  19.418  67.246  0.00  0.00    -0.223 OA
BRANCH  22  24
ATOM     24  C   UNL     1      -8.981  20.068  68.015  0.00  0.00    +0.066 C 
BRANCH  24  25
ATOM     25  C   UNL     1      -7.430  19.750  67.536  0.00  0.00    +0.166 C 
ATOM     26  O   UNL     1      -7.137  21.236  67.362  0.00  0.00    -0.222 OA
BRANCH  25  27
ATOM     27  C   UNL     1      -6.821  19.760  69.076  0.00  0.00    +0.147 C 
BRANCH  27  28
ATOM     28  C   UNL     1      -6.179  18.455  69.279  0.00  0.00    +0.367 C 
ATOM     29  O   UNL     1      -6.751  17.286  68.789  0.00  0.00    -0.246 OA
ATOM     30  O   UNL     1      -5.150  18.478  70.002  0.00  0.00    -0.246 OA
ENDBRANCH  27  28
ENDBRANCH  25  27
ENDBRANCH  24  25
ENDBRANCH  22  24
ENDBRANCH  21  22
ENDBRANCH  20  21
ENDBRANCH  11  20
TORSDOF 11
ENDMDL
MODEL 9
REMARK VINA RESULT:      -6.0      6.041     10.050
REMARK  Name = 
REMARK  11 active torsions:
REMARK  status: ('A' for Active; 'I' for Inactive)
REMARK    1  A    between atoms: C_2  and  C_3
REMARK    2  A    between atoms: C_3  and  C_5
REMARK    3  A    between atoms: C_5  and  O_7
REMARK    4  A    between atoms: O_7  and  C_8
REMARK    5  A    between atoms: C_18  and  C_19
REMARK    6  A    between atoms: C_19  and  C_20
REMARK    7  A    between atoms: C_20  and  C_21
REMARK    8  A    between atoms: C_21  and  C_23
REMARK    9  A    between atoms: C_23  and  C_24
REMARK   10  A    between atoms: C_24  and  C_26
REMARK   11  A    between atoms: C_26  and  C_27
REMARK                            x       y       z     vdW  Elec       q    Type
REMARK                         _______ _______ _______ _____ _____    ______ ____
ROOT
ATOM      1  C   UNL     1     -10.555   8.699  66.727  0.00  0.00    +0.176 C 
ATOM      2  C   UNL     1      -9.398   9.905  66.317  0.00  0.00    +0.063 C 
ATOM      3  C   UNL     1      -8.225   9.195  67.086  0.00  0.00    -0.021 C 
ATOM      4  C   UNL     1      -7.624   8.044  66.547  0.00  0.00    -0.009 C 
ATOM      5  C   UNL     1      -7.245   8.091  65.267  0.00  0.00    -0.027 C 
ATOM      6  C   UNL     1      -7.495   9.508  64.540  0.00  0.00    +0.022 C 
ATOM      7  C   UNL     1      -7.084  10.391  65.837  0.00  0.00    +0.005 C 
ATOM      8  C   UNL     1      -8.529   9.775  68.146  0.00  0.00    +0.002 C 
ATOM      9  C   UNL     1      -9.883   9.852  69.017  0.00  0.00    +0.177 C 
ATOM     10  O   UNL     1      -9.932  11.391  68.937  0.00  0.00    -0.218 OA
ATOM     11  C   UNL     1      -9.174   9.390  64.735  0.00  0.00    +0.012 C 
ATOM     12  C   UNL     1     -11.066   9.740  67.869  0.00  0.00    +0.081 C 
ENDROOT
BRANCH   1  13
ATOM     13  O   UNL     1      -9.764   7.836  67.728  0.00  0.00    -0.452 OA
BRANCH  13  14
ATOM     14  C   UNL     1     -10.334   6.694  67.873  0.00  0.00    +0.316 C 
ATOM     15  O   UNL     1     -10.849   6.003  66.940  0.00  0.00    -0.250 OA
BRANCH  14  16
ATOM     16  C   UNL     1     -10.292   5.649  69.078  0.00  0.00    +0.099 C 
ATOM     17  C   UNL     1      -9.092   6.318  69.979  0.00  0.00    +0.012 C 
BRANCH  16  19
ATOM     18  C   UNL     1     -11.467   6.358  70.321  0.00  0.00    +0.001 C 
ATOM     19  C   UNL     1     -11.464   6.489  69.886  0.00  0.00    +0.011 C 
ENDBRANCH  16  19
ENDBRANCH  14  16
ENDBRANCH  13  14
ENDBRANCH   1  13
BRANCH  11  20
ATOM     20  C   UNL     1      -9.504  10.889  64.222  0.00  0.00    +0.003 C 
BRANCH  20  21
ATOM     21  C   UNL     1     -10.893  11.074  63.906  0.00  0.00    +0.033 C 
BRANCH  21  22
ATOM     22  C   UNL     1     -11.254  12.689  63.888  0.00  0.00    +0.155 C 
ATOM     23  O   UNL     1     -12.643  12.503  63.289  0.00  0.00    -0.223 OA
BRANCH  22  24
ATOM     24  C   UNL     1     -11.793  12.657  65.452  0.00  0.00    +0.066 C 
BRANCH  24  25
ATOM     25  C   UNL     1     -12.140  14.256  65.697  0.00  0.00    +0.166 C 
ATOM     26  O   UNL     1     -11.569  14.204  67.109  0.00  0.00    -0.222 OA
BRANCH  25  27
ATOM     27  C   UNL     1     -10.699  14.790  65.081  0.00  0.00    +0.147 C 
BRANCH  27  28
ATOM     28  C   UNL     1     -10.848  16.235  64.863  0.00  0.00    +0.367 C 
ATOM     29  O   UNL     1     -10.217  17.157  65.691  0.00  0.00    -0.246 OA
ATOM     30  O   UNL     1     -11.655  16.552  63.953  0.00  0.00    -0.246 OA
ENDBRANCH  27  28
ENDBRANCH  25  27
ENDBRANCH  24  25
ENDBRANCH  22  24
ENDBRANCH  21  22
ENDBRANCH  20  21
ENDBRANCH  11  20
TORSDOF 11
ENDMDL
