MODEL 1
REMARK VINA RESULT:      -7.2      0.000      0.000
REMARK  Name = 
REMARK  3 active torsions:
REMARK  status: ('A' for Active; 'I' for Inactive)
REMARK    1  A    between atoms: N_2  and  C_4
REMARK    2  A    between atoms: C_4  and  C_5
REMARK    3  A    between atoms: C_5  and  C_6
REMARK                            x       y       z     vdW  Elec       q    Type
REMARK                         _______ _______ _______ _____ _____    ______ ____
ROOT
ATOM      1  C   UNL     1     -11.921  14.377  69.395  0.00  0.00    -0.025 C 
ATOM      2  C   UNL     1     -11.685  13.148  68.975  0.00  0.00    -0.005 C 
ATOM      3  C   UNL     1     -11.426  12.989  67.538  0.00  0.00    -0.004 A 
ATOM      4  C   UNL     1     -11.187  11.774  66.906  0.00  0.00    -0.022 A 
ATOM      5  C   UNL     1     -11.302  11.793  65.522  0.00  0.00    -0.004 A 
ATOM      6  C   UNL     1     -12.049  12.765  64.867  0.00  0.00    -0.000 A 
ATOM      7  C   UNL     1     -12.493  13.879  65.563  0.00  0.00    -0.000 A 
ATOM      8  C   UNL     1     -11.251  10.375  67.422  0.00  0.00    +0.031 C 
ATOM      9  C   UNL     1     -10.586  10.212  68.758  0.00  0.00    +0.031 C 
ATOM     10  C   UNL     1     -11.410  10.794  69.860  0.00  0.00    -0.022 A 
ATOM     11  C   UNL     1     -11.984   9.827  70.675  0.00  0.00    -0.004 A 
ATOM     12  C   UNL     1     -13.004  10.187  71.545  0.00  0.00    -0.000 A 
ATOM     13  C   UNL     1     -13.150  11.530  71.867  0.00  0.00    -0.000 A 
ATOM     14  C   UNL     1     -12.530  12.506  71.095  0.00  0.00    -0.000 A 
ATOM     15  C   UNL     1     -11.919  14.065  66.816  0.00  0.00    -0.000 A 
ATOM     16  C   UNL     1     -11.700  12.140  70.043  0.00  0.00    -0.004 A 
ENDROOT
BRANCH   1  17
ATOM     17  C   UNL     1     -12.857  14.723  70.483  0.00  0.00    +0.043 C 
BRANCH  17  18
ATOM     18  C   UNL     1     -12.236  15.818  71.302  0.00  0.00    +0.077 C 
BRANCH  18  20
ATOM     19  C   UNL     1     -12.240  15.301  73.657  0.00  0.00    +0.090 C 
ATOM     20  N   UNL     1     -12.879  16.030  72.571  0.00  0.00    -0.270 NA
ATOM     21  C   UNL     1     -14.254  15.582  72.473  0.00  0.00    +0.090 C 
ENDBRANCH  18  20
ENDBRANCH  17  18
ENDBRANCH   1  17
TORSDOF 3
ENDMDL
MODEL 2
REMARK VINA RESULT:      -6.8      1.397      4.133
REMARK  Name = 
REMARK  3 active torsions:
REMARK  status: ('A' for Active; 'I' for Inactive)
REMARK    1  A    between atoms: N_2  and  C_4
REMARK    2  A    between atoms: C_4  and  C_5
REMARK    3  A    between atoms: C_5  and  C_6
REMARK                            x       y       z     vdW  Elec       q    Type
REMARK                         _______ _______ _______ _____ _____    ______ ____
ROOT
ATOM      1  C   UNL     1     -12.349  14.114  69.864  0.00  0.00    -0.025 C 
ATOM      2  C   UNL     1     -11.919  13.690  68.692  0.00  0.00    -0.005 C 
ATOM      3  C   UNL     1     -11.817  12.234  68.521  0.00  0.00    -0.004 A 
ATOM      4  C   UNL     1     -11.359  11.601  67.372  0.00  0.00    -0.022 A 
ATOM      5  C   UNL     1     -11.022  10.262  67.527  0.00  0.00    -0.004 A 
ATOM      6  C   UNL     1     -10.699   9.732  68.771  0.00  0.00    -0.000 A 
ATOM      7  C   UNL     1     -10.945  10.469  69.919  0.00  0.00    -0.000 A 
ATOM      8  C   UNL     1     -10.754  12.157  66.125  0.00  0.00    +0.031 C 
ATOM      9  C   UNL     1     -11.496  13.349  65.596  0.00  0.00    +0.031 C 
ATOM     10  C   UNL     1     -11.238  14.570  66.419  0.00  0.00    -0.022 A 
ATOM     11  C   UNL     1     -10.440  15.503  65.770  0.00  0.00    -0.004 A 
ATOM     12  C   UNL     1      -9.869  16.537  66.499  0.00  0.00    -0.000 A 
ATOM     13  C   UNL     1     -10.413  16.845  67.739  0.00  0.00    -0.000 A 
ATOM     14  C   UNL     1     -11.264  15.946  68.373  0.00  0.00    -0.000 A 
ATOM     15  C   UNL     1     -11.752  11.588  69.747  0.00  0.00    -0.000 A 
ATOM     16  C   UNL     1     -11.633  14.768  67.736  0.00  0.00    -0.004 A 
ENDROOT
BRANCH   1  17
ATOM     17  C   UNL     1     -11.884  15.347  70.530  0.00  0.00    +0.043 C 
BRANCH  17  18
ATOM     18  C   UNL     1     -11.789  15.074  72.003  0.00  0.00    +0.077 C 
BRANCH  18  20
ATOM     19  C   UNL     1     -12.458  15.700  74.233  0.00  0.00    +0.090 C 
ATOM     20  N   UNL     1     -12.639  15.913  72.805  0.00  0.00    -0.270 NA
ATOM     21  C   UNL     1     -14.020  15.622  72.475  0.00  0.00    +0.090 C 
ENDBRANCH  18  20
ENDBRANCH  17  18
ENDBRANCH   1  17
TORSDOF 3
ENDMDL
MODEL 3
REMARK VINA RESULT:      -6.8      2.694      5.156
REMARK  Name = 
REMARK  3 active torsions:
REMARK  status: ('A' for Active; 'I' for Inactive)
REMARK    1  A    between atoms: N_2  and  C_4
REMARK    2  A    between atoms: C_4  and  C_5
REMARK    3  A    between atoms: C_5  and  C_6
REMARK                            x       y       z     vdW  Elec       q    Type
REMARK                         _______ _______ _______ _____ _____    ______ ____
ROOT
ATOM      1  C   UNL     1     -11.554  15.804  68.633  0.00  0.00    -0.025 C 
ATOM      2  C   UNL     1     -11.676  14.577  69.102  0.00  0.00    -0.005 C 
ATOM      3  C   UNL     1     -12.552  14.409  70.270  0.00  0.00    -0.004 A 
ATOM      4  C   UNL     1     -12.782  13.203  70.920  0.00  0.00    -0.022 A 
ATOM      5  C   UNL     1     -13.357  13.310  72.181  0.00  0.00    -0.004 A 
ATOM      6  C   UNL     1     -13.263  14.478  72.927  0.00  0.00    -0.000 A 
ATOM      7  C   UNL     1     -12.805  15.643  72.330  0.00  0.00    -0.000 A 
ATOM      8  C   UNL     1     -12.160  11.858  70.736  0.00  0.00    +0.031 C 
ATOM      9  C   UNL     1     -12.041  11.462  69.294  0.00  0.00    +0.031 C 
ATOM     10  C   UNL     1     -10.944  12.207  68.604  0.00  0.00    -0.022 A 
ATOM     11  C   UNL     1      -9.845  11.408  68.315  0.00  0.00    -0.004 A 
ATOM     12  C   UNL     1      -8.645  12.006  67.956  0.00  0.00    -0.000 A 
ATOM     13  C   UNL     1      -8.672  13.321  67.511  0.00  0.00    -0.000 A 
ATOM     14  C   UNL     1      -9.792  14.114  67.740  0.00  0.00    -0.000 A 
ATOM     15  C   UNL     1     -12.729  15.609  70.942  0.00  0.00    -0.000 A 
ATOM     16  C   UNL     1     -10.918  13.572  68.346  0.00  0.00    -0.004 A 
ENDROOT
BRANCH   1  17
ATOM     17  C   UNL     1     -10.316  16.356  68.046  0.00  0.00    +0.043 C 
BRANCH  17  18
ATOM     18  C   UNL     1     -10.166  17.772  68.522  0.00  0.00    +0.077 C 
BRANCH  18  20
ATOM     19  C   UNL     1     -10.395  18.443  66.218  0.00  0.00    +0.090 C 
ATOM     20  N   UNL     1     -10.694  18.750  67.608  0.00  0.00    -0.270 NA
ATOM     21  C   UNL     1     -10.110  20.039  67.923  0.00  0.00    +0.090 C 
ENDBRANCH  18  20
ENDBRANCH  17  18
ENDBRANCH   1  17
TORSDOF 3
ENDMDL
MODEL 4
REMARK VINA RESULT:      -6.6      2.088      5.171
REMARK  Name = 
REMARK  3 active torsions:
REMARK  status: ('A' for Active; 'I' for Inactive)
REMARK    1  A    between atoms: N_2  and  C_4
REMARK    2  A    between atoms: C_4  and  C_5
REMARK    3  A    between atoms: C_5  and  C_6
REMARK                            x       y       z     vdW  Elec       q    Type
REMARK                         _______ _______ _______ _____ _____    ______ ____
ROOT
ATOM      1  C   UNL     1     -11.100  13.841  68.455  0.00  0.00    -0.025 C 
ATOM      2  C   UNL     1     -11.635  13.088  69.397  0.00  0.00    -0.005 C 
ATOM      3  C   UNL     1     -12.505  13.772  70.364  0.00  0.00    -0.004 A 
ATOM      4  C   UNL     1     -13.133  13.155  71.439  0.00  0.00    -0.022 A 
ATOM      5  C   UNL     1     -13.625  14.017  72.412  0.00  0.00    -0.004 A 
ATOM      6  C   UNL     1     -13.125  15.306  72.563  0.00  0.00    -0.000 A 
ATOM      7  C   UNL     1     -12.298  15.842  71.588  0.00  0.00    -0.000 A 
ATOM      8  C   UNL     1     -13.017  11.767  71.974  0.00  0.00    +0.031 C 
ATOM      9  C   UNL     1     -13.055  10.721  70.899  0.00  0.00    +0.031 C 
ATOM     10  C   UNL     1     -11.775  10.670  70.131  0.00  0.00    -0.022 A 
ATOM     11  C   UNL     1     -11.023   9.535  70.405  0.00  0.00    -0.004 A 
ATOM     12  C   UNL     1      -9.693   9.487  70.009  0.00  0.00    -0.000 A 
ATOM     13  C   UNL     1      -9.267  10.371  69.026  0.00  0.00    -0.000 A 
ATOM     14  C   UNL     1     -10.040  11.479  68.698  0.00  0.00    -0.000 A 
ATOM     15  C   UNL     1     -12.250  15.135  70.393  0.00  0.00    -0.000 A 
ATOM     16  C   UNL     1     -11.279  11.667  69.298  0.00  0.00    -0.004 A 
ENDROOT
BRANCH   1  17
ATOM     17  C   UNL     1      -9.753  13.636  67.886  0.00  0.00    +0.043 C 
BRANCH  17  18
ATOM     18  C   UNL     1      -9.619  14.518  66.678  0.00  0.00    +0.077 C 
BRANCH  18  20
ATOM     19  C   UNL     1     -10.455  13.368  64.731  0.00  0.00    +0.090 C 
ATOM     20  N   UNL     1     -10.702  14.387  65.740  0.00  0.00    -0.270 NA
ATOM     21  C   UNL     1     -10.885  15.657  65.066  0.00  0.00    +0.090 C 
ENDBRANCH  18  20
ENDBRANCH  17  18
ENDBRANCH   1  17
TORSDOF 3
ENDMDL
MODEL 5
REMARK VINA RESULT:      -6.6      2.132      4.837
REMARK  Name = 
REMARK  3 active torsions:
REMARK  status: ('A' for Active; 'I' for Inactive)
REMARK    1  A    between atoms: N_2  and  C_4
REMARK    2  A    between atoms: C_4  and  C_5
REMARK    3  A    between atoms: C_5  and  C_6
REMARK                            x       y       z     vdW  Elec       q    Type
REMARK                         _______ _______ _______ _____ _____    ______ ____
ROOT
ATOM      1  C   UNL     1     -11.329  14.423  68.507  0.00  0.00    -0.025 C 
ATOM      2  C   UNL     1     -11.759  13.527  69.374  0.00  0.00    -0.005 C 
ATOM      3  C   UNL     1     -12.606  14.028  70.465  0.00  0.00    -0.004 A 
ATOM      4  C   UNL     1     -13.128  13.243  71.487  0.00  0.00    -0.022 A 
ATOM      5  C   UNL     1     -13.607  13.945  72.586  0.00  0.00    -0.004 A 
ATOM      6  C   UNL     1     -13.176  15.235  72.872  0.00  0.00    -0.000 A 
ATOM      7  C   UNL     1     -12.444  15.941  71.930  0.00  0.00    -0.000 A 
ATOM      8  C   UNL     1     -12.897  11.810  71.834  0.00  0.00    +0.031 C 
ATOM      9  C   UNL     1     -12.942  10.904  70.638  0.00  0.00    +0.031 C 
ATOM     10  C   UNL     1     -11.711  11.033  69.801  0.00  0.00    -0.022 A 
ATOM     11  C   UNL     1     -10.878   9.925  69.888  0.00  0.00    -0.004 A 
ATOM     12  C   UNL     1      -9.575  10.014  69.417  0.00  0.00    -0.000 A 
ATOM     13  C   UNL     1      -9.264  11.039  68.533  0.00  0.00    -0.000 A 
ATOM     14  C   UNL     1     -10.119  12.125  68.391  0.00  0.00    -0.000 A 
ATOM     15  C   UNL     1     -12.429  15.391  70.653  0.00  0.00    -0.000 A 
ATOM     16  C   UNL     1     -11.327  12.155  69.076  0.00  0.00    -0.004 A 
ENDROOT
BRANCH   1  17
ATOM     17  C   UNL     1     -10.010  14.380  67.844  0.00  0.00    +0.043 C 
BRANCH  17  18
ATOM     18  C   UNL     1      -9.397  15.747  67.936  0.00  0.00    +0.077 C 
BRANCH  18  20
ATOM     19  C   UNL     1     -10.225  17.327  66.314  0.00  0.00    +0.090 C 
ATOM     20  N   UNL     1     -10.321  16.818  67.674  0.00  0.00    -0.270 NA
ATOM     21  C   UNL     1     -10.037  17.907  68.587  0.00  0.00    +0.090 C 
ENDBRANCH  18  20
ENDBRANCH  17  18
ENDBRANCH   1  17
TORSDOF 3
ENDMDL
MODEL 6
REMARK VINA RESULT:      -6.6      3.216      6.003
REMARK  Name = 
REMARK  3 active torsions:
REMARK  status: ('A' for Active; 'I' for Inactive)
REMARK    1  A    between atoms: N_2  and  C_4
REMARK    2  A    between atoms: C_4  and  C_5
REMARK    3  A    between atoms: C_5  and  C_6
REMARK                            x       y       z     vdW  Elec       q    Type
REMARK                         _______ _______ _______ _____ _____    ______ ____
ROOT
ATOM      1  C   UNL     1     -11.383  14.367  65.972  0.00  0.00    -0.025 C 
ATOM      2  C   UNL     1     -11.383  14.817  67.212  0.00  0.00    -0.005 C 
ATOM      3  C   UNL     1     -10.812  16.154  67.421  0.00  0.00    -0.004 A 
ATOM      4  C   UNL     1     -10.698  16.783  68.656  0.00  0.00    -0.022 A 
ATOM      5  C   UNL     1      -9.838  17.874  68.688  0.00  0.00    -0.004 A 
ATOM      6  C   UNL     1      -8.826  18.031  67.749  0.00  0.00    -0.000 A 
ATOM      7  C   UNL     1      -8.808  17.233  66.615  0.00  0.00    -0.000 A 
ATOM      8  C   UNL     1     -10.970  16.283  70.036  0.00  0.00    +0.031 C 
ATOM      9  C   UNL     1     -12.265  15.533  70.142  0.00  0.00    +0.031 C 
ATOM     10  C   UNL     1     -12.168  14.173  69.530  0.00  0.00    -0.022 A 
ATOM     11  C   UNL     1     -12.167  13.153  70.472  0.00  0.00    -0.004 A 
ATOM     12  C   UNL     1     -11.786  11.874  70.092  0.00  0.00    -0.000 A 
ATOM     13  C   UNL     1     -11.803  11.558  68.739  0.00  0.00    -0.000 A 
ATOM     14  C   UNL     1     -11.866  12.567  67.785  0.00  0.00    -0.000 A 
ATOM     15  C   UNL     1      -9.971  16.510  66.377  0.00  0.00    -0.000 A 
ATOM     16  C   UNL     1     -11.989  13.894  68.181  0.00  0.00    -0.004 A 
ENDROOT
BRANCH   1  17
ATOM     17  C   UNL     1     -11.192  12.952  65.596  0.00  0.00    +0.043 C 
BRANCH  17  18
ATOM     18  C   UNL     1     -10.325  12.908  64.371  0.00  0.00    +0.077 C 
BRANCH  18  20
ATOM     19  C   UNL     1     -12.300  11.888  63.437  0.00  0.00    +0.090 C 
ATOM     20  N   UNL     1     -10.868  12.110  63.304  0.00  0.00    -0.270 NA
ATOM     21  C   UNL     1     -10.207  10.820  63.309  0.00  0.00    +0.090 C 
ENDBRANCH  18  20
ENDBRANCH  17  18
ENDBRANCH   1  17
TORSDOF 3
ENDMDL
MODEL 7
REMARK VINA RESULT:      -6.4      2.008      5.696
REMARK  Name = 
REMARK  3 active torsions:
REMARK  status: ('A' for Active; 'I' for Inactive)
REMARK    1  A    between atoms: N_2  and  C_4
REMARK    2  A    between atoms: C_4  and  C_5
REMARK    3  A    between atoms: C_5  and  C_6
REMARK                            x       y       z     vdW  Elec       q    Type
REMARK                         _______ _______ _______ _____ _____    ______ ____
ROOT
ATOM      1  C   UNL     1     -11.669  11.423  70.214  0.00  0.00    -0.025 C 
ATOM      2  C   UNL     1     -11.698  12.676  69.804  0.00  0.00    -0.005 C 
ATOM      3  C   UNL     1     -12.205  13.666  70.764  0.00  0.00    -0.004 A 
ATOM      4  C   UNL     1     -12.337  15.025  70.505  0.00  0.00    -0.022 A 
ATOM      5  C   UNL     1     -13.138  15.723  71.401  0.00  0.00    -0.004 A 
ATOM      6  C   UNL     1     -14.099  15.081  72.173  0.00  0.00    -0.000 A 
ATOM      7  C   UNL     1     -14.111  13.697  72.245  0.00  0.00    -0.000 A 
ATOM      8  C   UNL     1     -12.152  15.803  69.245  0.00  0.00    +0.031 C 
ATOM      9  C   UNL     1     -10.905  15.424  68.501  0.00  0.00    +0.031 C 
ATOM     10  C   UNL     1     -11.049  14.103  67.818  0.00  0.00    -0.022 A 
ATOM     11  C   UNL     1     -11.145  14.215  66.437  0.00  0.00    -0.004 A 
ATOM     12  C   UNL     1     -11.578  13.126  65.694  0.00  0.00    -0.000 A 
ATOM     13  C   UNL     1     -11.520  11.866  66.277  0.00  0.00    -0.000 A 
ATOM     14  C   UNL     1     -11.362  11.739  67.652  0.00  0.00    -0.000 A 
ATOM     15  C   UNL     1     -12.979  13.064  71.745  0.00  0.00    -0.000 A 
ATOM     16  C   UNL     1     -11.185  12.869  68.441  0.00  0.00    -0.004 A 
ENDROOT
BRANCH   1  17
ATOM     17  C   UNL     1     -11.920  10.253  69.349  0.00  0.00    +0.043 C 
BRANCH  17  18
ATOM     18  C   UNL     1     -11.276   9.055  69.985  0.00  0.00    +0.077 C 
BRANCH  18  20
ATOM     19  C   UNL     1     -10.221   8.471  72.072  0.00  0.00    +0.090 C 
ATOM     20  N   UNL     1     -11.398   9.023  71.418  0.00  0.00    -0.270 NA
ATOM     21  C   UNL     1     -12.538   8.198  71.765  0.00  0.00    +0.090 C 
ENDBRANCH  18  20
ENDBRANCH  17  18
ENDBRANCH   1  17
TORSDOF 3
ENDMDL
MODEL 8
REMARK VINA RESULT:      -6.4      2.480      4.780
REMARK  Name = 
REMARK  3 active torsions:
REMARK  status: ('A' for Active; 'I' for Inactive)
REMARK    1  A    between atoms: N_2  and  C_4
REMARK    2  A    between atoms: C_4  and  C_5
REMARK    3  A    between atoms: C_5  and  C_6
REMARK                            x       y       z     vdW  Elec       q    Type
REMARK                         _______ _______ _______ _____ _____    ______ ____
ROOT
ATOM      1  C   UNL     1     -12.021  11.495  69.615  0.00  0.00    -0.025 C 
ATOM      2  C   UNL     1     -11.667  12.760  69.493  0.00  0.00    -0.005 C 
ATOM      3  C   UNL     1     -10.561  13.041  68.568  0.00  0.00    -0.004 A 
ATOM      4  C   UNL     1     -10.030  14.303  68.328  0.00  0.00    -0.022 A 
ATOM      5  C   UNL     1      -8.793  14.315  67.694  0.00  0.00    -0.004 A 
ATOM      6  C   UNL     1      -7.944  13.215  67.734  0.00  0.00    -0.000 A 
ATOM      7  C   UNL     1      -8.416  11.997  68.198  0.00  0.00    -0.000 A 
ATOM      8  C   UNL     1     -10.301  15.618  68.981  0.00  0.00    +0.031 C 
ATOM      9  C   UNL     1     -11.765  15.884  69.173  0.00  0.00    +0.031 C 
ATOM     10  C   UNL     1     -12.334  15.068  70.287  0.00  0.00    -0.022 A 
ATOM     11  C   UNL     1     -12.639  15.823  71.412  0.00  0.00    -0.004 A 
ATOM     12  C   UNL     1     -12.889  15.181  72.617  0.00  0.00    -0.000 A 
ATOM     13  C   UNL     1     -13.217  13.832  72.587  0.00  0.00    -0.000 A 
ATOM     14  C   UNL     1     -12.974  13.077  71.446  0.00  0.00    -0.000 A 
ATOM     15  C   UNL     1      -9.796  11.907  68.339  0.00  0.00    -0.000 A 
ATOM     16  C   UNL     1     -12.471  13.685  70.302  0.00  0.00    -0.004 A 
ENDROOT
BRANCH   1  17
ATOM     17  C   UNL     1     -12.498  10.878  70.869  0.00  0.00    +0.043 C 
BRANCH  17  18
ATOM     18  C   UNL     1     -11.622   9.696  71.170  0.00  0.00    +0.077 C 
BRANCH  18  20
ATOM     19  C   UNL     1     -13.570   8.912  72.353  0.00  0.00    +0.090 C 
ATOM     20  N   UNL     1     -12.339   8.552  71.666  0.00  0.00    -0.270 NA
ATOM     21  C   UNL     1     -11.489   7.843  72.601  0.00  0.00    +0.090 C 
ENDBRANCH  18  20
ENDBRANCH  17  18
ENDBRANCH   1  17
TORSDOF 3
ENDMDL
MODEL 9
REMARK VINA RESULT:      -6.4      3.124      4.540
REMARK  Name = 
REMARK  3 active torsions:
REMARK  status: ('A' for Active; 'I' for Inactive)
REMARK    1  A    between atoms: N_2  and  C_4
REMARK    2  A    between atoms: C_4  and  C_5
REMARK    3  A    between atoms: C_5  and  C_6
REMARK                            x       y       z     vdW  Elec       q    Type
REMARK                         _______ _______ _______ _____ _____    ______ ____
ROOT
ATOM      1  C   UNL     1     -10.992  16.322  69.975  0.00  0.00    -0.025 C 
ATOM      2  C   UNL     1     -10.242  16.034  68.929  0.00  0.00    -0.005 C 
ATOM      3  C   UNL     1      -9.557  17.164  68.286  0.00  0.00    -0.004 A 
ATOM      4  C   UNL     1      -8.750  17.064  67.159  0.00  0.00    -0.022 A 
ATOM      5  C   UNL     1      -8.477  18.266  66.517  0.00  0.00    -0.004 A 
ATOM      6  C   UNL     1      -9.300  19.375  66.668  0.00  0.00    -0.000 A 
ATOM      7  C   UNL     1     -10.273  19.382  67.655  0.00  0.00    -0.000 A 
ATOM      8  C   UNL     1      -8.469  15.908  66.257  0.00  0.00    +0.031 C 
ATOM      9  C   UNL     1      -8.187  14.638  67.005  0.00  0.00    +0.031 C 
ATOM     10  C   UNL     1      -9.431  14.049  67.585  0.00  0.00    -0.022 A 
ATOM     11  C   UNL     1      -9.840  12.893  66.932  0.00  0.00    -0.004 A 
ATOM     12  C   UNL     1     -11.120  12.403  67.152  0.00  0.00    -0.000 A 
ATOM     13  C   UNL     1     -11.801  12.828  68.285  0.00  0.00    -0.000 A 
ATOM     14  C   UNL     1     -11.367  13.948  68.984  0.00  0.00    -0.000 A 
ATOM     15  C   UNL     1     -10.169  18.368  68.601  0.00  0.00    -0.000 A 
ATOM     16  C   UNL     1     -10.205  14.604  68.598  0.00  0.00    -0.004 A 
ENDROOT
BRANCH   1  17
ATOM     17  C   UNL     1     -12.252  15.633  70.316  0.00  0.00    +0.043 C 
BRANCH  17  18
ATOM     18  C   UNL     1     -12.577  15.937  71.750  0.00  0.00    +0.077 C 
BRANCH  18  20
ATOM     19  C   UNL     1     -13.513  13.837  72.475  0.00  0.00    +0.090 C 
ATOM     20  N   UNL     1     -12.439  14.807  72.629  0.00  0.00    -0.270 NA
ATOM     21  C   UNL     1     -12.452  15.283  73.999  0.00  0.00    +0.090 C 
ENDBRANCH  18  20
ENDBRANCH  17  18
ENDBRANCH   1  17
TORSDOF 3
ENDMDL
