MODEL 1
REMARK VINA RESULT:      -4.7      0.000      0.000
REMARK  Name = 
REMARK  0 active torsions:
REMARK  status: ('A' for Active; 'I' for Inactive)
REMARK                            x       y       z     vdW  Elec       q    Type
REMARK                         _______ _______ _______ _____ _____    ______ ____
ROOT
ATOM      1  N   UNL     1     -11.699  16.269  63.972  0.00  0.00    -0.105 NA
ATOM      2  C   UNL     1     -11.939  14.964  64.473  0.00  0.00    +0.203 A 
ATOM      3  C   UNL     1     -11.388  14.660  65.712  0.00  0.00    +0.194 A 
ATOM      4  F   UNL     1     -10.183  15.185  66.089  0.00  0.00    -0.199 F 
ATOM      5  C   UNL     1     -11.885  13.490  66.279  0.00  0.00    +0.136 A 
ATOM      6  N   UNL     1     -12.440  12.551  65.474  0.00  0.00    -0.187 NA
ATOM      7  C   UNL     1     -12.467  12.691  64.126  0.00  0.00    +0.370 A 
ATOM      8  O   UNL     1     -12.192  11.738  63.338  0.00  0.00    -0.243 OA
ATOM      9  N   UNL     1     -12.481  13.982  63.710  0.00  0.00    -0.170 NA
ENDROOT
TORSDOF 0
ENDMDL
MODEL 2
REMARK VINA RESULT:      -4.5      7.564      8.316
REMARK  Name = 
REMARK  0 active torsions:
REMARK  status: ('A' for Active; 'I' for Inactive)
REMARK                            x       y       z     vdW  Elec       q    Type
REMARK                         _______ _______ _______ _____ _____    ______ ____
ROOT
ATOM      1  N   UNL     1     -15.404  14.844  71.316  0.00  0.00    -0.105 NA
ATOM      2  C   UNL     1     -14.167  15.376  71.764  0.00  0.00    +0.203 A 
ATOM      3  C   UNL     1     -13.045  15.072  71.001  0.00  0.00    +0.194 A 
ATOM      4  F   UNL     1     -12.933  13.863  70.373  0.00  0.00    -0.199 F 
ATOM      5  C   UNL     1     -11.928  15.841  71.312  0.00  0.00    +0.136 A 
ATOM      6  N   UNL     1     -11.848  16.426  72.533  0.00  0.00    -0.187 NA
ATOM      7  C   UNL     1     -12.796  16.232  73.482  0.00  0.00    +0.370 A 
ATOM      8  O   UNL     1     -12.508  16.012  74.695  0.00  0.00    -0.243 OA
ATOM      9  N   UNL     1     -14.027  15.961  72.979  0.00  0.00    -0.170 NA
ENDROOT
TORSDOF 0
ENDMDL
MODEL 3
REMARK VINA RESULT:      -4.5      7.404      8.150
REMARK  Name = 
REMARK  0 active torsions:
REMARK  status: ('A' for Active; 'I' for Inactive)
REMARK                            x       y       z     vdW  Elec       q    Type
REMARK                         _______ _______ _______ _____ _____    ______ ____
ROOT
ATOM      1  N   UNL     1     -12.433  15.413  74.720  0.00  0.00    -0.105 NA
ATOM      2  C   UNL     1     -12.757  15.336  73.341  0.00  0.00    +0.203 A 
ATOM      3  C   UNL     1     -12.012  16.133  72.480  0.00  0.00    +0.194 A 
ATOM      4  F   UNL     1     -11.566  17.364  72.875  0.00  0.00    -0.199 F 
ATOM      5  C   UNL     1     -12.170  15.811  71.135  0.00  0.00    +0.136 A 
ATOM      6  N   UNL     1     -13.288  15.151  70.742  0.00  0.00    -0.187 NA
ATOM      7  C   UNL     1     -14.286  14.853  71.610  0.00  0.00    +0.370 A 
ATOM      8  O   UNL     1     -15.508  15.012  71.321  0.00  0.00    -0.243 OA
ATOM      9  N   UNL     1     -13.867  14.700  72.892  0.00  0.00    -0.170 NA
ENDROOT
TORSDOF 0
ENDMDL
MODEL 4
REMARK VINA RESULT:      -4.4      2.384      3.129
REMARK  Name = 
REMARK  0 active torsions:
REMARK  status: ('A' for Active; 'I' for Inactive)
REMARK                            x       y       z     vdW  Elec       q    Type
REMARK                         _______ _______ _______ _____ _____    ______ ____
ROOT
ATOM      1  N   UNL     1     -13.092  12.765  64.990  0.00  0.00    -0.105 NA
ATOM      2  C   UNL     1     -12.094  13.748  65.215  0.00  0.00    +0.203 A 
ATOM      3  C   UNL     1     -11.551  13.803  66.494  0.00  0.00    +0.194 A 
ATOM      4  F   UNL     1     -12.318  13.532  67.592  0.00  0.00    -0.199 F 
ATOM      5  C   UNL     1     -10.395  14.573  66.582  0.00  0.00    +0.136 A 
ATOM      6  N   UNL     1     -10.163  15.526  65.645  0.00  0.00    -0.187 NA
ATOM      7  C   UNL     1     -11.057  15.793  64.661  0.00  0.00    +0.370 A 
ATOM      8  O   UNL     1     -11.358  16.974  64.319  0.00  0.00    -0.243 OA
ATOM      9  N   UNL     1     -11.828  14.730  64.319  0.00  0.00    -0.170 NA
ENDROOT
TORSDOF 0
ENDMDL
MODEL 5
REMARK VINA RESULT:      -4.3      6.339      7.007
REMARK  Name = 
REMARK  0 active torsions:
REMARK  status: ('A' for Active; 'I' for Inactive)
REMARK                            x       y       z     vdW  Elec       q    Type
REMARK                         _______ _______ _______ _____ _____    ______ ____
ROOT
ATOM      1  N   UNL     1     -11.313  15.074  69.953  0.00  0.00    -0.105 NA
ATOM      2  C   UNL     1     -12.408  14.702  70.775  0.00  0.00    +0.203 A 
ATOM      3  C   UNL     1     -12.536  13.350  71.070  0.00  0.00    +0.194 A 
ATOM      4  F   UNL     1     -12.183  12.398  70.154  0.00  0.00    -0.199 F 
ATOM      5  C   UNL     1     -13.438  13.079  72.094  0.00  0.00    +0.136 A 
ATOM      6  N   UNL     1     -14.405  13.986  72.379  0.00  0.00    -0.187 NA
ATOM      7  C   UNL     1     -14.558  15.120  71.652  0.00  0.00    +0.370 A 
ATOM      8  O   UNL     1     -15.693  15.542  71.282  0.00  0.00    -0.243 OA
ATOM      9  N   UNL     1     -13.409  15.563  71.082  0.00  0.00    -0.170 NA
ENDROOT
TORSDOF 0
ENDMDL
MODEL 6
REMARK VINA RESULT:      -4.3      2.568      3.227
REMARK  Name = 
REMARK  0 active torsions:
REMARK  status: ('A' for Active; 'I' for Inactive)
REMARK                            x       y       z     vdW  Elec       q    Type
REMARK                         _______ _______ _______ _____ _____    ______ ____
ROOT
ATOM      1  N   UNL     1      -9.395  13.492  66.445  0.00  0.00    -0.105 NA
ATOM      2  C   UNL     1     -10.445  13.861  65.564  0.00  0.00    +0.203 A 
ATOM      3  C   UNL     1     -10.817  12.921  64.609  0.00  0.00    +0.194 A 
ATOM      4  F   UNL     1      -9.888  12.091  64.046  0.00  0.00    -0.199 F 
ATOM      5  C   UNL     1     -12.019  13.211  63.972  0.00  0.00    +0.136 A 
ATOM      6  N   UNL     1     -12.464  14.492  63.953  0.00  0.00    -0.187 NA
ATOM      7  C   UNL     1     -11.739  15.509  64.481  0.00  0.00    +0.370 A 
ATOM      8  O   UNL     1     -11.601  16.621  63.892  0.00  0.00    -0.243 OA
ATOM      9  N   UNL     1     -10.921  15.128  65.494  0.00  0.00    -0.170 NA
ENDROOT
TORSDOF 0
ENDMDL
MODEL 7
REMARK VINA RESULT:      -4.3      7.197      8.000
REMARK  Name = 
REMARK  0 active torsions:
REMARK  status: ('A' for Active; 'I' for Inactive)
REMARK                            x       y       z     vdW  Elec       q    Type
REMARK                         _______ _______ _______ _____ _____    ______ ____
ROOT
ATOM      1  N   UNL     1     -13.213  11.973  71.838  0.00  0.00    -0.105 NA
ATOM      2  C   UNL     1     -13.199  13.391  71.859  0.00  0.00    +0.203 A 
ATOM      3  C   UNL     1     -12.591  14.026  70.782  0.00  0.00    +0.194 A 
ATOM      4  F   UNL     1     -11.504  13.470  70.166  0.00  0.00    -0.199 F 
ATOM      5  C   UNL     1     -12.854  15.390  70.709  0.00  0.00    +0.136 A 
ATOM      6  N   UNL     1     -13.228  16.051  71.833  0.00  0.00    -0.187 NA
ATOM      7  C   UNL     1     -13.291  15.433  73.038  0.00  0.00    +0.370 A 
ATOM      8  O   UNL     1     -12.846  15.964  74.098  0.00  0.00    -0.243 OA
ATOM      9  N   UNL     1     -13.551  14.104  72.958  0.00  0.00    -0.170 NA
ENDROOT
TORSDOF 0
ENDMDL
MODEL 8
REMARK VINA RESULT:      -4.2      7.216      7.977
REMARK  Name = 
REMARK  0 active torsions:
REMARK  status: ('A' for Active; 'I' for Inactive)
REMARK                            x       y       z     vdW  Elec       q    Type
REMARK                         _______ _______ _______ _____ _____    ______ ____
ROOT
ATOM      1  N   UNL     1     -12.425  15.308  74.469  0.00  0.00    -0.105 NA
ATOM      2  C   UNL     1     -12.609  15.467  73.072  0.00  0.00    +0.203 A 
ATOM      3  C   UNL     1     -13.570  14.660  72.474  0.00  0.00    +0.194 A 
ATOM      4  F   UNL     1     -13.790  13.386  72.920  0.00  0.00    -0.199 F 
ATOM      5  C   UNL     1     -13.909  15.050  71.182  0.00  0.00    +0.136 A 
ATOM      6  N   UNL     1     -13.033  15.799  70.467  0.00  0.00    -0.187 NA
ATOM      7  C   UNL     1     -11.810  16.125  70.952  0.00  0.00    +0.370 A 
ATOM      8  O   UNL     1     -10.760  16.061  70.247  0.00  0.00    -0.243 OA
ATOM      9  N   UNL     1     -11.759  16.194  72.306  0.00  0.00    -0.170 NA
ENDROOT
TORSDOF 0
ENDMDL
MODEL 9
REMARK VINA RESULT:      -4.2      6.506      7.057
REMARK  Name = 
REMARK  0 active torsions:
REMARK  status: ('A' for Active; 'I' for Inactive)
REMARK                            x       y       z     vdW  Elec       q    Type
REMARK                         _______ _______ _______ _____ _____    ______ ____
ROOT
ATOM      1  N   UNL     1     -11.870  16.125  69.790  0.00  0.00    -0.105 NA
ATOM      2  C   UNL     1     -12.566  15.390  70.784  0.00  0.00    +0.203 A 
ATOM      3  C   UNL     1     -12.667  15.979  72.039  0.00  0.00    +0.194 A 
ATOM      4  F   UNL     1     -11.655  16.755  72.531  0.00  0.00    -0.199 F 
ATOM      5  C   UNL     1     -13.589  15.361  72.879  0.00  0.00    +0.136 A 
ATOM      6  N   UNL     1     -13.934  14.071  72.644  0.00  0.00    -0.187 NA
ATOM      7  C   UNL     1     -13.359  13.346  71.654  0.00  0.00    +0.370 A 
ATOM      8  O   UNL     1     -12.981  12.148  71.820  0.00  0.00    -0.243 OA
ATOM      9  N   UNL     1     -12.925  14.094  70.609  0.00  0.00    -0.170 NA
ENDROOT
TORSDOF 0
ENDMDL
