MODEL 1
REMARK VINA RESULT:      -4.8      0.000      0.000
REMARK  Name = 
REMARK  35 active torsions:
REMARK  status: ('A' for Active; 'I' for Inactive)
REMARK    1  A    between atoms: C_2  and  C_3
REMARK    2  A    between atoms: C_3  and  C_4
REMARK    3  A    between atoms: C_4  and  C_5
REMARK    4  A    between atoms: C_5  and  C_6
REMARK    5  A    between atoms: C_6  and  C_7
REMARK    6  A    between atoms: C_7  and  C_8
REMARK    7  A    between atoms: C_8  and  C_9
REMARK    8  A    between atoms: C_9  and  C_10
REMARK    9  A    between atoms: C_13  and  O_14
REMARK   10  A    between atoms: O_14  and  C_15
REMARK   11  A    between atoms: C_15  and  C_16
REMARK   12  A    between atoms: C_16  and  O_17
REMARK   13  A    between atoms: O_17  and  C_18
REMARK   14  A    between atoms: C_18  and  C_19
REMARK   15  A    between atoms: C_19  and  O_20
REMARK   16  A    between atoms: O_20  and  C_21
REMARK   17  A    between atoms: C_21  and  C_22
REMARK   18  A    between atoms: C_22  and  O_23
REMARK   19  A    between atoms: O_23  and  C_24
REMARK   20  A    between atoms: C_24  and  C_25
REMARK   21  A    between atoms: C_25  and  O_26
REMARK   22  A    between atoms: O_26  and  C_27
REMARK   23  A    between atoms: C_27  and  C_28
REMARK   24  A    between atoms: C_28  and  O_29
REMARK   25  A    between atoms: O_29  and  C_30
REMARK   26  A    between atoms: C_30  and  C_31
REMARK   27  A    between atoms: C_31  and  O_32
REMARK   28  A    between atoms: O_32  and  C_33
REMARK   29  A    between atoms: C_33  and  C_34
REMARK   30  A    between atoms: C_34  and  O_35
REMARK   31  A    between atoms: O_35  and  C_36
REMARK   32  A    between atoms: C_36  and  C_37
REMARK   33  A    between atoms: C_37  and  O_38
REMARK   34  A    between atoms: O_38  and  C_39
REMARK   35  A    between atoms: C_39  and  C_40
REMARK                            x       y       z     vdW  Elec       q    Type
REMARK                         _______ _______ _______ _____ _____    ______ ____
ROOT
ATOM      1  O   UNL     1     -12.948  12.909  64.464  0.00  0.00    -0.348 OA
ENDROOT
BRANCH   1   2
ATOM      2  C   UNL     1     -11.979  12.828  63.471  0.00  0.00    +0.174 C 
BRANCH   2   3
ATOM      3  C   UNL     1     -11.222  11.505  63.519  0.00  0.00    +0.174 C 
BRANCH   3   4
ATOM      4  O   UNL     1     -10.228  11.643  64.502  0.00  0.00    -0.347 OA
BRANCH   4   5
ATOM      5  C   UNL     1      -9.606  10.437  64.770  0.00  0.00    +0.189 C 
BRANCH   5   6
ATOM      6  C   UNL     1     -10.054   9.802  66.059  0.00  0.00    +0.237 C 
BRANCH   6   7
ATOM      7  O   UNL     1     -10.758  10.675  66.900  0.00  0.00    -0.473 OA
BRANCH   7  11
ATOM      8  C   UNL     1     -11.220   9.451  70.728  0.00  0.00    -0.022 A 
ATOM      9  C   UNL     1     -11.992  10.508  70.263  0.00  0.00    -0.001 A 
ATOM     10  C   UNL     1     -11.716  11.102  69.037  0.00  0.00    +0.037 A 
ATOM     11  C   UNL     1     -10.617  10.717  68.280  0.00  0.00    +0.139 A 
ATOM     12  C   UNL     1      -9.657   9.982  68.963  0.00  0.00    +0.037 A 
ATOM     13  C   UNL     1      -9.952   9.353  70.167  0.00  0.00    -0.001 A 
BRANCH   8  14
ATOM     14  C   UNL     1     -11.873   8.288  71.407  0.00  0.00    +0.026 C 
BRANCH  14  15
ATOM     15  C   UNL     1     -11.308   8.046  72.779  0.00  0.00    +0.005 C 
BRANCH  15  16
ATOM     16  C   UNL     1     -10.069   7.203  72.635  0.00  0.00    +0.000 C 
BRANCH  16  17
ATOM     17  C   UNL     1     -10.440   5.781  73.027  0.00  0.00    +0.000 C 
BRANCH  17  18
ATOM     18  C   UNL     1     -10.413   4.928  71.764  0.00  0.00    +0.000 C 
BRANCH  18  19
ATOM     19  C   UNL     1      -9.370   5.560  70.851  0.00  0.00    +0.000 C 
BRANCH  19  20
ATOM     20  C   UNL     1      -9.693   5.228  69.414  0.00  0.00    +0.000 C 
BRANCH  20  22
ATOM     21  C   UNL     1     -10.891   6.563  67.714  0.00  0.00    +0.000 C 
ATOM     22  C   UNL     1     -11.002   5.912  69.070  0.00  0.00    +0.000 C 
ENDBRANCH  20  22
ENDBRANCH  19  20
ENDBRANCH  18  19
ENDBRANCH  17  18
ENDBRANCH  16  17
ENDBRANCH  15  16
ENDBRANCH  14  15
ENDBRANCH   8  14
ENDBRANCH   7  11
ENDBRANCH   6   7
ENDBRANCH   5   6
ENDBRANCH   4   5
ENDBRANCH   3   4
ENDBRANCH   2   3
ENDBRANCH   1   2
BRANCH   1  23
ATOM     23  C   UNL     1     -12.877  14.097  65.187  0.00  0.00    +0.174 C 
BRANCH  23  24
ATOM     24  C   UNL     1     -12.066  13.874  66.433  0.00  0.00    +0.174 C 
BRANCH  24  25
ATOM     25  O   UNL     1     -11.233  14.934  66.746  0.00  0.00    -0.348 OA
BRANCH  25  26
ATOM     26  C   UNL     1     -10.660  15.536  65.640  0.00  0.00    +0.174 C 
BRANCH  26  27
ATOM     27  C   UNL     1     -10.063  16.889  65.941  0.00  0.00    +0.174 C 
BRANCH  27  28
ATOM     28  O   UNL     1     -10.856  17.836  65.280  0.00  0.00    -0.348 OA
BRANCH  28  29
ATOM     29  C   UNL     1     -10.533  19.076  65.806  0.00  0.00    +0.174 C 
BRANCH  29  30
ATOM     30  C   UNL     1     -10.487  19.012  67.318  0.00  0.00    +0.174 C 
BRANCH  30  31
ATOM     31  O   UNL     1      -9.440  19.804  67.761  0.00  0.00    -0.348 OA
BRANCH  31  32
ATOM     32  C   UNL     1      -8.805  19.164  68.824  0.00  0.00    +0.174 C 
BRANCH  32  33
ATOM     33  C   UNL     1      -7.398  18.751  68.456  0.00  0.00    +0.174 C 
BRANCH  33  34
ATOM     34  O   UNL     1      -7.110  17.554  69.119  0.00  0.00    -0.348 OA
BRANCH  34  35
ATOM     35  C   UNL     1      -7.672  16.466  68.475  0.00  0.00    +0.174 C 
BRANCH  35  36
ATOM     36  C   UNL     1      -7.986  15.366  69.479  0.00  0.00    +0.174 C 
BRANCH  36  37
ATOM     37  O   UNL     1      -9.249  14.882  69.177  0.00  0.00    -0.348 OA
BRANCH  37  38
ATOM     38  C   UNL     1     -10.187  15.783  69.695  0.00  0.00    +0.174 C 
BRANCH  38  39
ATOM     39  C   UNL     1     -11.332  15.049  70.371  0.00  0.00    +0.174 C 
BRANCH  39  40
ATOM     40  O   UNL     1     -11.316  15.447  71.711  0.00  0.00    -0.348 OA
BRANCH  40  41
ATOM     41  C   UNL     1     -12.625  15.343  72.210  0.00  0.00    +0.178 C 
BRANCH  41  42
ATOM     42  C   UNL     1     -13.200  14.069  71.612  0.00  0.00    +0.214 C 
ATOM     43  O   UNL     1     -13.983  13.479  72.608  0.00  0.00    -0.218 OA
ENDBRANCH  41  42
ENDBRANCH  40  41
ENDBRANCH  39  40
ENDBRANCH  38  39
ENDBRANCH  37  38
ENDBRANCH  36  37
ENDBRANCH  35  36
ENDBRANCH  34  35
ENDBRANCH  33  34
ENDBRANCH  32  33
ENDBRANCH  31  32
ENDBRANCH  30  31
ENDBRANCH  29  30
ENDBRANCH  28  29
ENDBRANCH  27  28
ENDBRANCH  26  27
ENDBRANCH  25  26
ENDBRANCH  24  25
ENDBRANCH  23  24
ENDBRANCH   1  23
TORSDOF 35
ENDMDL
MODEL 2
REMARK VINA RESULT:      -4.7      3.290      5.886
REMARK  Name = 
REMARK  35 active torsions:
REMARK  status: ('A' for Active; 'I' for Inactive)
REMARK    1  A    between atoms: C_2  and  C_3
REMARK    2  A    between atoms: C_3  and  C_4
REMARK    3  A    between atoms: C_4  and  C_5
REMARK    4  A    between atoms: C_5  and  C_6
REMARK    5  A    between atoms: C_6  and  C_7
REMARK    6  A    between atoms: C_7  and  C_8
REMARK    7  A    between atoms: C_8  and  C_9
REMARK    8  A    between atoms: C_9  and  C_10
REMARK    9  A    between atoms: C_13  and  O_14
REMARK   10  A    between atoms: O_14  and  C_15
REMARK   11  A    between atoms: C_15  and  C_16
REMARK   12  A    between atoms: C_16  and  O_17
REMARK   13  A    between atoms: O_17  and  C_18
REMARK   14  A    between atoms: C_18  and  C_19
REMARK   15  A    between atoms: C_19  and  O_20
REMARK   16  A    between atoms: O_20  and  C_21
REMARK   17  A    between atoms: C_21  and  C_22
REMARK   18  A    between atoms: C_22  and  O_23
REMARK   19  A    between atoms: O_23  and  C_24
REMARK   20  A    between atoms: C_24  and  C_25
REMARK   21  A    between atoms: C_25  and  O_26
REMARK   22  A    between atoms: O_26  and  C_27
REMARK   23  A    between atoms: C_27  and  C_28
REMARK   24  A    between atoms: C_28  and  O_29
REMARK   25  A    between atoms: O_29  and  C_30
REMARK   26  A    between atoms: C_30  and  C_31
REMARK   27  A    between atoms: C_31  and  O_32
REMARK   28  A    between atoms: O_32  and  C_33
REMARK   29  A    between atoms: C_33  and  C_34
REMARK   30  A    between atoms: C_34  and  O_35
REMARK   31  A    between atoms: O_35  and  C_36
REMARK   32  A    between atoms: C_36  and  C_37
REMARK   33  A    between atoms: C_37  and  O_38
REMARK   34  A    between atoms: O_38  and  C_39
REMARK   35  A    between atoms: C_39  and  C_40
REMARK                            x       y       z     vdW  Elec       q    Type
REMARK                         _______ _______ _______ _____ _____    ______ ____
ROOT
ATOM      1  O   UNL     1     -10.589  16.422  64.959  0.00  0.00    -0.348 OA
ENDROOT
BRANCH   1   2
ATOM      2  C   UNL     1     -11.682  15.802  64.366  0.00  0.00    +0.174 C 
BRANCH   2   3
ATOM      3  C   UNL     1     -11.793  14.335  64.770  0.00  0.00    +0.174 C 
BRANCH   3   4
ATOM      4  O   UNL     1     -12.377  13.660  63.687  0.00  0.00    -0.347 OA
BRANCH   4   5
ATOM      5  C   UNL     1     -11.937  12.350  63.606  0.00  0.00    +0.189 C 
BRANCH   5   6
ATOM      6  C   UNL     1     -10.464  12.193  63.864  0.00  0.00    +0.237 C 
BRANCH   6   7
ATOM      7  O   UNL     1     -10.156  11.144  64.742  0.00  0.00    -0.473 OA
BRANCH   7  11
ATOM      8  C   UNL     1     -10.774  12.884  68.341  0.00  0.00    -0.022 A 
ATOM      9  C   UNL     1      -9.489  12.869  67.815  0.00  0.00    -0.001 A 
ATOM     10  C   UNL     1      -9.189  12.098  66.698  0.00  0.00    +0.037 A 
ATOM     11  C   UNL     1     -10.137  11.259  66.125  0.00  0.00    +0.139 A 
ATOM     12  C   UNL     1     -11.243  10.986  66.919  0.00  0.00    +0.037 A 
ATOM     13  C   UNL     1     -11.562  11.788  68.009  0.00  0.00    -0.001 A 
BRANCH   8  14
ATOM     14  C   UNL     1     -11.373  14.170  68.818  0.00  0.00    +0.026 C 
BRANCH  14  15
ATOM     15  C   UNL     1     -10.376  15.015  69.561  0.00  0.00    +0.005 C 
BRANCH  15  16
ATOM     16  C   UNL     1     -11.127  16.095  70.292  0.00  0.00    +0.000 C 
BRANCH  16  17
ATOM     17  C   UNL     1     -12.591  15.684  70.328  0.00  0.00    +0.000 C 
BRANCH  17  18
ATOM     18  C   UNL     1     -12.964  15.420  71.782  0.00  0.00    +0.000 C 
BRANCH  18  19
ATOM     19  C   UNL     1     -14.127  14.436  71.747  0.00  0.00    +0.000 C 
BRANCH  19  20
ATOM     20  C   UNL     1     -13.719  13.152  72.429  0.00  0.00    +0.000 C 
BRANCH  20  22
ATOM     21  C   UNL     1     -13.031  10.921  71.618  0.00  0.00    +0.000 C 
ATOM     22  C   UNL     1     -12.798  12.405  71.484  0.00  0.00    +0.000 C 
ENDBRANCH  20  22
ENDBRANCH  19  20
ENDBRANCH  18  19
ENDBRANCH  17  18
ENDBRANCH  16  17
ENDBRANCH  15  16
ENDBRANCH  14  15
ENDBRANCH   8  14
ENDBRANCH   7  11
ENDBRANCH   6   7
ENDBRANCH   5   6
ENDBRANCH   4   5
ENDBRANCH   3   4
ENDBRANCH   2   3
ENDBRANCH   1   2
BRANCH   1  23
ATOM     23  C   UNL     1      -9.777  15.530  65.654  0.00  0.00    +0.174 C 
BRANCH  23  24
ATOM     24  C   UNL     1      -8.794  16.300  66.493  0.00  0.00    +0.174 C 
BRANCH  24  25
ATOM     25  O   UNL     1      -7.933  17.087  65.750  0.00  0.00    -0.348 OA
BRANCH  25  26
ATOM     26  C   UNL     1      -6.675  17.218  66.311  0.00  0.00    +0.174 C 
BRANCH  26  27
ATOM     27  C   UNL     1      -5.656  17.794  65.358  0.00  0.00    +0.174 C 
BRANCH  27  28
ATOM     28  O   UNL     1      -6.329  18.733  64.566  0.00  0.00    -0.348 OA
BRANCH  28  29
ATOM     29  C   UNL     1      -5.405  19.699  64.204  0.00  0.00    +0.174 C 
BRANCH  29  30
ATOM     30  C   UNL     1      -5.812  21.051  64.751  0.00  0.00    +0.174 C 
BRANCH  30  31
ATOM     31  O   UNL     1      -5.261  21.198  66.014  0.00  0.00    -0.348 OA
BRANCH  31  32
ATOM     32  C   UNL     1      -3.878  21.058  65.925  0.00  0.00    +0.174 C 
BRANCH  32  33
ATOM     33  C   UNL     1      -3.335  20.225  67.065  0.00  0.00    +0.174 C 
BRANCH  33  34
ATOM     34  O   UNL     1      -3.397  20.993  68.231  0.00  0.00    -0.348 OA
BRANCH  34  35
ATOM     35  C   UNL     1      -4.043  20.319  69.251  0.00  0.00    +0.174 C 
BRANCH  35  36
ATOM     36  C   UNL     1      -4.487  18.944  68.773  0.00  0.00    +0.174 C 
BRANCH  36  37
ATOM     37  O   UNL     1      -5.649  18.626  69.459  0.00  0.00    -0.348 OA
BRANCH  37  38
ATOM     38  C   UNL     1      -6.379  19.807  69.636  0.00  0.00    +0.174 C 
BRANCH  38  39
ATOM     39  C   UNL     1      -7.783  19.670  69.074  0.00  0.00    +0.174 C 
BRANCH  39  40
ATOM     40  O   UNL     1      -7.695  19.992  67.716  0.00  0.00    -0.348 OA
BRANCH  40  41
ATOM     41  C   UNL     1      -9.001  20.067  67.204  0.00  0.00    +0.178 C 
BRANCH  41  42
ATOM     42  C   UNL     1      -9.862  19.220  68.127  0.00  0.00    +0.214 C 
ATOM     43  O   UNL     1     -11.132  19.160  67.545  0.00  0.00    -0.218 OA
ENDBRANCH  41  42
ENDBRANCH  40  41
ENDBRANCH  39  40
ENDBRANCH  38  39
ENDBRANCH  37  38
ENDBRANCH  36  37
ENDBRANCH  35  36
ENDBRANCH  34  35
ENDBRANCH  33  34
ENDBRANCH  32  33
ENDBRANCH  31  32
ENDBRANCH  30  31
ENDBRANCH  29  30
ENDBRANCH  28  29
ENDBRANCH  27  28
ENDBRANCH  26  27
ENDBRANCH  25  26
ENDBRANCH  24  25
ENDBRANCH  23  24
ENDBRANCH   1  23
TORSDOF 35
ENDMDL
MODEL 3
REMARK VINA RESULT:      -4.7      1.836      5.682
REMARK  Name = 
REMARK  35 active torsions:
REMARK  status: ('A' for Active; 'I' for Inactive)
REMARK    1  A    between atoms: C_2  and  C_3
REMARK    2  A    between atoms: C_3  and  C_4
REMARK    3  A    between atoms: C_4  and  C_5
REMARK    4  A    between atoms: C_5  and  C_6
REMARK    5  A    between atoms: C_6  and  C_7
REMARK    6  A    between atoms: C_7  and  C_8
REMARK    7  A    between atoms: C_8  and  C_9
REMARK    8  A    between atoms: C_9  and  C_10
REMARK    9  A    between atoms: C_13  and  O_14
REMARK   10  A    between atoms: O_14  and  C_15
REMARK   11  A    between atoms: C_15  and  C_16
REMARK   12  A    between atoms: C_16  and  O_17
REMARK   13  A    between atoms: O_17  and  C_18
REMARK   14  A    between atoms: C_18  and  C_19
REMARK   15  A    between atoms: C_19  and  O_20
REMARK   16  A    between atoms: O_20  and  C_21
REMARK   17  A    between atoms: C_21  and  C_22
REMARK   18  A    between atoms: C_22  and  O_23
REMARK   19  A    between atoms: O_23  and  C_24
REMARK   20  A    between atoms: C_24  and  C_25
REMARK   21  A    between atoms: C_25  and  O_26
REMARK   22  A    between atoms: O_26  and  C_27
REMARK   23  A    between atoms: C_27  and  C_28
REMARK   24  A    between atoms: C_28  and  O_29
REMARK   25  A    between atoms: O_29  and  C_30
REMARK   26  A    between atoms: C_30  and  C_31
REMARK   27  A    between atoms: C_31  and  O_32
REMARK   28  A    between atoms: O_32  and  C_33
REMARK   29  A    between atoms: C_33  and  C_34
REMARK   30  A    between atoms: C_34  and  O_35
REMARK   31  A    between atoms: O_35  and  C_36
REMARK   32  A    between atoms: C_36  and  C_37
REMARK   33  A    between atoms: C_37  and  O_38
REMARK   34  A    between atoms: O_38  and  C_39
REMARK   35  A    between atoms: C_39  and  C_40
REMARK                            x       y       z     vdW  Elec       q    Type
REMARK                         _______ _______ _______ _____ _____    ______ ____
ROOT
ATOM      1  O   UNL     1     -12.924  16.041  70.641  0.00  0.00    -0.348 OA
ENDROOT
BRANCH   1   2
ATOM      2  C   UNL     1     -12.330  16.033  71.897  0.00  0.00    +0.174 C 
BRANCH   2   3
ATOM      3  C   UNL     1     -13.326  15.677  72.996  0.00  0.00    +0.174 C 
BRANCH   3   4
ATOM      4  O   UNL     1     -13.198  14.299  73.229  0.00  0.00    -0.347 OA
BRANCH   4   5
ATOM      5  C   UNL     1     -13.945  13.558  72.330  0.00  0.00    +0.189 C 
BRANCH   5   6
ATOM      6  C   UNL     1     -13.139  12.537  71.575  0.00  0.00    +0.237 C 
BRANCH   6   7
ATOM      7  O   UNL     1     -13.189  11.254  72.137  0.00  0.00    -0.473 OA
BRANCH   7  11
ATOM      8  C   UNL     1     -11.800   7.552  71.285  0.00  0.00    -0.022 A 
ATOM      9  C   UNL     1     -11.287   8.638  70.588  0.00  0.00    -0.001 A 
ATOM     10  C   UNL     1     -11.883   9.890  70.688  0.00  0.00    +0.037 A 
ATOM     11  C   UNL     1     -13.051  10.076  71.415  0.00  0.00    +0.139 A 
ATOM     12  C   UNL     1     -13.746   8.915  71.726  0.00  0.00    +0.037 A 
ATOM     13  C   UNL     1     -13.131   7.670  71.668  0.00  0.00    -0.001 A 
BRANCH   8  14
ATOM     14  C   UNL     1     -10.874   6.580  71.945  0.00  0.00    +0.026 C 
BRANCH  14  15
ATOM     15  C   UNL     1     -10.657   6.905  73.397  0.00  0.00    +0.005 C 
BRANCH  15  16
ATOM     16  C   UNL     1      -9.409   7.738  73.511  0.00  0.00    +0.000 C 
BRANCH  16  17
ATOM     17  C   UNL     1      -8.226   6.823  73.234  0.00  0.00    +0.000 C 
BRANCH  17  18
ATOM     18  C   UNL     1      -7.099   7.678  72.666  0.00  0.00    +0.000 C 
BRANCH  18  19
ATOM     19  C   UNL     1      -7.715   8.486  71.531  0.00  0.00    +0.000 C 
BRANCH  19  20
ATOM     20  C   UNL     1      -7.663   7.679  70.255  0.00  0.00    +0.000 C 
BRANCH  20  22
ATOM     21  C   UNL     1      -7.944  10.052  69.624  0.00  0.00    +0.000 C 
ATOM     22  C   UNL     1      -7.762   8.651  69.095  0.00  0.00    +0.000 C 
ENDBRANCH  20  22
ENDBRANCH  19  20
ENDBRANCH  18  19
ENDBRANCH  17  18
ENDBRANCH  16  17
ENDBRANCH  15  16
ENDBRANCH  14  15
ENDBRANCH   8  14
ENDBRANCH   7  11
ENDBRANCH   6   7
ENDBRANCH   5   6
ENDBRANCH   4   5
ENDBRANCH   3   4
ENDBRANCH   2   3
ENDBRANCH   1   2
BRANCH   1  23
ATOM     23  C   UNL     1     -12.083  15.547  69.647  0.00  0.00    +0.174 C 
BRANCH  23  24
ATOM     24  C   UNL     1     -10.658  15.612  70.121  0.00  0.00    +0.174 C 
BRANCH  24  25
ATOM     25  O   UNL     1      -9.807  14.770  69.428  0.00  0.00    -0.348 OA
BRANCH  25  26
ATOM     26  C   UNL     1      -8.526  15.273  69.281  0.00  0.00    +0.174 C 
BRANCH  26  27
ATOM     27  C   UNL     1      -7.693  14.497  68.288  0.00  0.00    +0.174 C 
BRANCH  27  28
ATOM     28  O   UNL     1      -7.023  15.442  67.500  0.00  0.00    -0.348 OA
BRANCH  28  29
ATOM     29  C   UNL     1      -7.736  16.626  67.590  0.00  0.00    +0.174 C 
BRANCH  29  30
ATOM     30  C   UNL     1      -8.021  17.177  66.208  0.00  0.00    +0.174 C 
BRANCH  30  31
ATOM     31  O   UNL     1      -8.885  16.311  65.559  0.00  0.00    -0.348 OA
BRANCH  31  32
ATOM     32  C   UNL     1     -10.163  16.457  66.096  0.00  0.00    +0.174 C 
BRANCH  32  33
ATOM     33  C   UNL     1     -10.900  15.136  66.128  0.00  0.00    +0.174 C 
BRANCH  33  34
ATOM     34  O   UNL     1     -11.486  14.936  64.874  0.00  0.00    -0.348 OA
BRANCH  34  35
ATOM     35  C   UNL     1     -12.174  13.737  64.820  0.00  0.00    +0.174 C 
BRANCH  35  36
ATOM     36  C   UNL     1     -12.126  13.168  63.410  0.00  0.00    +0.174 C 
BRANCH  36  37
ATOM     37  O   UNL     1     -11.711  11.849  63.513  0.00  0.00    -0.348 OA
BRANCH  37  38
ATOM     38  C   UNL     1     -10.312  11.842  63.546  0.00  0.00    +0.174 C 
BRANCH  38  39
ATOM     39  C   UNL     1      -9.785  10.497  64.015  0.00  0.00    +0.174 C 
BRANCH  39  40
ATOM     40  O   UNL     1     -10.381  10.253  65.256  0.00  0.00    -0.348 OA
BRANCH  40  41
ATOM     41  C   UNL     1      -9.533  10.766  66.252  0.00  0.00    +0.178 C 
BRANCH  41  42
ATOM     42  C   UNL     1     -10.429  11.542  67.204  0.00  0.00    +0.214 C 
ATOM     43  O   UNL     1     -11.580  10.769  67.388  0.00  0.00    -0.218 OA
ENDBRANCH  41  42
ENDBRANCH  40  41
ENDBRANCH  39  40
ENDBRANCH  38  39
ENDBRANCH  37  38
ENDBRANCH  36  37
ENDBRANCH  35  36
ENDBRANCH  34  35
ENDBRANCH  33  34
ENDBRANCH  32  33
ENDBRANCH  31  32
ENDBRANCH  30  31
ENDBRANCH  29  30
ENDBRANCH  28  29
ENDBRANCH  27  28
ENDBRANCH  26  27
ENDBRANCH  25  26
ENDBRANCH  24  25
ENDBRANCH  23  24
ENDBRANCH   1  23
TORSDOF 35
ENDMDL
MODEL 4
REMARK VINA RESULT:      -4.7      1.540      5.598
REMARK  Name = 
REMARK  35 active torsions:
REMARK  status: ('A' for Active; 'I' for Inactive)
REMARK    1  A    between atoms: C_2  and  C_3
REMARK    2  A    between atoms: C_3  and  C_4
REMARK    3  A    between atoms: C_4  and  C_5
REMARK    4  A    between atoms: C_5  and  C_6
REMARK    5  A    between atoms: C_6  and  C_7
REMARK    6  A    between atoms: C_7  and  C_8
REMARK    7  A    between atoms: C_8  and  C_9
REMARK    8  A    between atoms: C_9  and  C_10
REMARK    9  A    between atoms: C_13  and  O_14
REMARK   10  A    between atoms: O_14  and  C_15
REMARK   11  A    between atoms: C_15  and  C_16
REMARK   12  A    between atoms: C_16  and  O_17
REMARK   13  A    between atoms: O_17  and  C_18
REMARK   14  A    between atoms: C_18  and  C_19
REMARK   15  A    between atoms: C_19  and  O_20
REMARK   16  A    between atoms: O_20  and  C_21
REMARK   17  A    between atoms: C_21  and  C_22
REMARK   18  A    between atoms: C_22  and  O_23
REMARK   19  A    between atoms: O_23  and  C_24
REMARK   20  A    between atoms: C_24  and  C_25
REMARK   21  A    between atoms: C_25  and  O_26
REMARK   22  A    between atoms: O_26  and  C_27
REMARK   23  A    between atoms: C_27  and  C_28
REMARK   24  A    between atoms: C_28  and  O_29
REMARK   25  A    between atoms: O_29  and  C_30
REMARK   26  A    between atoms: C_30  and  C_31
REMARK   27  A    between atoms: C_31  and  O_32
REMARK   28  A    between atoms: O_32  and  C_33
REMARK   29  A    between atoms: C_33  and  C_34
REMARK   30  A    between atoms: C_34  and  O_35
REMARK   31  A    between atoms: O_35  and  C_36
REMARK   32  A    between atoms: C_36  and  C_37
REMARK   33  A    between atoms: C_37  and  O_38
REMARK   34  A    between atoms: O_38  and  C_39
REMARK   35  A    between atoms: C_39  and  C_40
REMARK                            x       y       z     vdW  Elec       q    Type
REMARK                         _______ _______ _______ _____ _____    ______ ____
ROOT
ATOM      1  O   UNL     1     -12.438  15.979  70.120  0.00  0.00    -0.348 OA
ENDROOT
BRANCH   1   2
ATOM      2  C   UNL     1     -12.033  15.774  71.433  0.00  0.00    +0.174 C 
BRANCH   2   3
ATOM      3  C   UNL     1     -13.199  15.871  72.411  0.00  0.00    +0.174 C 
BRANCH   3   4
ATOM      4  O   UNL     1     -13.324  14.612  73.020  0.00  0.00    -0.347 OA
BRANCH   4   5
ATOM      5  C   UNL     1     -13.845  13.673  72.148  0.00  0.00    +0.189 C 
BRANCH   5   6
ATOM      6  C   UNL     1     -13.158  12.337  72.221  0.00  0.00    +0.237 C 
BRANCH   6   7
ATOM      7  O   UNL     1     -13.020  11.706  70.977  0.00  0.00    -0.473 OA
BRANCH   7  11
ATOM      8  C   UNL     1     -10.422   8.667  71.595  0.00  0.00    -0.022 A 
ATOM      9  C   UNL     1     -10.264   9.467  70.471  0.00  0.00    -0.001 A 
ATOM     10  C   UNL     1     -11.251  10.375  70.102  0.00  0.00    +0.037 A 
ATOM     11  C   UNL     1     -12.454  10.452  70.793  0.00  0.00    +0.139 A 
ATOM     12  C   UNL     1     -12.735   9.369  71.614  0.00  0.00    +0.037 A 
ATOM     13  C   UNL     1     -11.735   8.491  72.016  0.00  0.00    -0.001 A 
BRANCH   8  14
ATOM     14  C   UNL     1      -9.262   8.422  72.509  0.00  0.00    +0.026 C 
BRANCH  14  15
ATOM     15  C   UNL     1      -9.200   6.991  72.969  0.00  0.00    +0.005 C 
BRANCH  15  16
ATOM     16  C   UNL     1      -8.296   6.236  72.032  0.00  0.00    +0.000 C 
BRANCH  16  17
ATOM     17  C   UNL     1      -8.913   4.863  71.814  0.00  0.00    +0.000 C 
BRANCH  17  18
ATOM     18  C   UNL     1     -10.258   5.063  71.124  0.00  0.00    +0.000 C 
BRANCH  18  19
ATOM     19  C   UNL     1      -9.939   5.506  69.701  0.00  0.00    +0.000 C 
BRANCH  19  20
ATOM     20  C   UNL     1     -11.160   6.153  69.092  0.00  0.00    +0.000 C 
BRANCH  20  22
ATOM     21  C   UNL     1     -10.614   7.624  67.182  0.00  0.00    +0.000 C 
ATOM     22  C   UNL     1     -10.946   6.210  67.591  0.00  0.00    +0.000 C 
ENDBRANCH  20  22
ENDBRANCH  19  20
ENDBRANCH  18  19
ENDBRANCH  17  18
ENDBRANCH  16  17
ENDBRANCH  15  16
ENDBRANCH  14  15
ENDBRANCH   8  14
ENDBRANCH   7  11
ENDBRANCH   6   7
ENDBRANCH   5   6
ENDBRANCH   4   5
ENDBRANCH   3   4
ENDBRANCH   2   3
ENDBRANCH   1   2
BRANCH   1  23
ATOM     23  C   UNL     1     -11.520  15.491  69.193  0.00  0.00    +0.174 C 
BRANCH  23  24
ATOM     24  C   UNL     1     -11.573  13.988  69.184  0.00  0.00    +0.174 C 
BRANCH  24  25
ATOM     25  O   UNL     1     -11.857  13.454  67.939  0.00  0.00    -0.348 OA
BRANCH  25  26
ATOM     26  C   UNL     1     -11.824  14.382  66.914  0.00  0.00    +0.174 C 
BRANCH  26  27
ATOM     27  C   UNL     1     -12.510  13.905  65.657  0.00  0.00    +0.174 C 
BRANCH  27  28
ATOM     28  O   UNL     1     -12.396  12.508  65.641  0.00  0.00    -0.348 OA
BRANCH  28  29
ATOM     29  C   UNL     1     -11.305  12.198  64.845  0.00  0.00    +0.174 C 
BRANCH  29  30
ATOM     30  C   UNL     1     -10.643  10.926  65.329  0.00  0.00    +0.174 C 
BRANCH  30  31
ATOM     31  O   UNL     1      -9.312  11.198  65.599  0.00  0.00    -0.348 OA
BRANCH  31  32
ATOM     32  C   UNL     1      -9.189  11.583  66.933  0.00  0.00    +0.174 C 
BRANCH  32  33
ATOM     33  C   UNL     1      -7.985  12.476  67.138  0.00  0.00    +0.174 C 
BRANCH  33  34
ATOM     34  O   UNL     1      -8.353  13.507  68.008  0.00  0.00    -0.348 OA
BRANCH  34  35
ATOM     35  C   UNL     1      -7.697  14.687  67.705  0.00  0.00    +0.174 C 
BRANCH  35  36
ATOM     36  C   UNL     1      -7.247  15.380  68.983  0.00  0.00    +0.174 C 
BRANCH  36  37
ATOM     37  O   UNL     1      -8.062  16.488  69.159  0.00  0.00    -0.348 OA
BRANCH  37  38
ATOM     38  C   UNL     1      -7.823  17.366  68.097  0.00  0.00    +0.174 C 
BRANCH  38  39
ATOM     39  C   UNL     1      -9.035  18.241  67.831  0.00  0.00    +0.174 C 
BRANCH  39  40
ATOM     40  O   UNL     1      -8.619  19.223  66.925  0.00  0.00    -0.348 OA
BRANCH  40  41
ATOM     41  C   UNL     1      -7.257  19.013  66.654  0.00  0.00    +0.178 C 
BRANCH  41  42
ATOM     42  C   UNL     1      -6.699  20.368  66.249  0.00  0.00    +0.214 C 
ATOM     43  O   UNL     1      -7.069  21.269  67.253  0.00  0.00    -0.218 OA
ENDBRANCH  41  42
ENDBRANCH  40  41
ENDBRANCH  39  40
ENDBRANCH  38  39
ENDBRANCH  37  38
ENDBRANCH  36  37
ENDBRANCH  35  36
ENDBRANCH  34  35
ENDBRANCH  33  34
ENDBRANCH  32  33
ENDBRANCH  31  32
ENDBRANCH  30  31
ENDBRANCH  29  30
ENDBRANCH  28  29
ENDBRANCH  27  28
ENDBRANCH  26  27
ENDBRANCH  25  26
ENDBRANCH  24  25
ENDBRANCH  23  24
ENDBRANCH   1  23
TORSDOF 35
ENDMDL
MODEL 5
REMARK VINA RESULT:      -4.7      1.812      5.380
REMARK  Name = 
REMARK  35 active torsions:
REMARK  status: ('A' for Active; 'I' for Inactive)
REMARK    1  A    between atoms: C_2  and  C_3
REMARK    2  A    between atoms: C_3  and  C_4
REMARK    3  A    between atoms: C_4  and  C_5
REMARK    4  A    between atoms: C_5  and  C_6
REMARK    5  A    between atoms: C_6  and  C_7
REMARK    6  A    between atoms: C_7  and  C_8
REMARK    7  A    between atoms: C_8  and  C_9
REMARK    8  A    between atoms: C_9  and  C_10
REMARK    9  A    between atoms: C_13  and  O_14
REMARK   10  A    between atoms: O_14  and  C_15
REMARK   11  A    between atoms: C_15  and  C_16
REMARK   12  A    between atoms: C_16  and  O_17
REMARK   13  A    between atoms: O_17  and  C_18
REMARK   14  A    between atoms: C_18  and  C_19
REMARK   15  A    between atoms: C_19  and  O_20
REMARK   16  A    between atoms: O_20  and  C_21
REMARK   17  A    between atoms: C_21  and  C_22
REMARK   18  A    between atoms: C_22  and  O_23
REMARK   19  A    between atoms: O_23  and  C_24
REMARK   20  A    between atoms: C_24  and  C_25
REMARK   21  A    between atoms: C_25  and  O_26
REMARK   22  A    between atoms: O_26  and  C_27
REMARK   23  A    between atoms: C_27  and  C_28
REMARK   24  A    between atoms: C_28  and  O_29
REMARK   25  A    between atoms: O_29  and  C_30
REMARK   26  A    between atoms: C_30  and  C_31
REMARK   27  A    between atoms: C_31  and  O_32
REMARK   28  A    between atoms: O_32  and  C_33
REMARK   29  A    between atoms: C_33  and  C_34
REMARK   30  A    between atoms: C_34  and  O_35
REMARK   31  A    between atoms: O_35  and  C_36
REMARK   32  A    between atoms: C_36  and  C_37
REMARK   33  A    between atoms: C_37  and  O_38
REMARK   34  A    between atoms: O_38  and  C_39
REMARK   35  A    between atoms: C_39  and  C_40
REMARK                            x       y       z     vdW  Elec       q    Type
REMARK                         _______ _______ _______ _____ _____    ______ ____
ROOT
ATOM      1  O   UNL     1     -11.006  15.634  66.309  0.00  0.00    -0.348 OA
ENDROOT
BRANCH   1   2
ATOM      2  C   UNL     1     -10.050  16.586  66.641  0.00  0.00    +0.174 C 
BRANCH   2   3
ATOM      3  C   UNL     1     -10.499  17.463  67.805  0.00  0.00    +0.174 C 
BRANCH   3   4
ATOM      4  O   UNL     1     -11.462  16.730  68.517  0.00  0.00    -0.347 OA
BRANCH   4   5
ATOM      5  C   UNL     1     -10.999  16.357  69.766  0.00  0.00    +0.189 C 
BRANCH   5   6
ATOM      6  C   UNL     1     -12.030  15.652  70.604  0.00  0.00    +0.237 C 
BRANCH   6   7
ATOM      7  O   UNL     1     -11.639  14.370  71.015  0.00  0.00    -0.473 OA
BRANCH   7  11
ATOM      8  C   UNL     1     -12.426  10.402  71.008  0.00  0.00    -0.022 A 
ATOM      9  C   UNL     1     -11.977  10.999  69.837  0.00  0.00    -0.001 A 
ATOM     10  C   UNL     1     -11.905  12.383  69.730  0.00  0.00    +0.037 A 
ATOM     11  C   UNL     1     -12.355  13.210  70.751  0.00  0.00    +0.139 A 
ATOM     12  C   UNL     1     -13.171  12.597  71.692  0.00  0.00    +0.037 A 
ATOM     13  C   UNL     1     -13.204  11.214  71.825  0.00  0.00    -0.001 A 
BRANCH   8  14
ATOM     14  C   UNL     1     -11.746   9.176  71.532  0.00  0.00    +0.026 C 
BRANCH  14  15
ATOM     15  C   UNL     1     -10.257   9.228  71.330  0.00  0.00    +0.005 C 
BRANCH  15  16
ATOM     16  C   UNL     1      -9.774   7.832  71.038  0.00  0.00    +0.000 C 
BRANCH  16  17
ATOM     17  C   UNL     1     -10.942   6.889  71.280  0.00  0.00    +0.000 C 
BRANCH  17  18
ATOM     18  C   UNL     1     -10.835   5.749  70.274  0.00  0.00    +0.000 C 
BRANCH  18  19
ATOM     19  C   UNL     1      -9.893   6.238  69.181  0.00  0.00    +0.000 C 
BRANCH  19  20
ATOM     20  C   UNL     1     -10.287   5.616  67.863  0.00  0.00    +0.000 C 
BRANCH  20  22
ATOM     21  C   UNL     1     -10.469   8.029  67.356  0.00  0.00    +0.000 C 
ATOM     22  C   UNL     1     -11.046   6.664  67.071  0.00  0.00    +0.000 C 
ENDBRANCH  20  22
ENDBRANCH  19  20
ENDBRANCH  18  19
ENDBRANCH  17  18
ENDBRANCH  16  17
ENDBRANCH  15  16
ENDBRANCH  14  15
ENDBRANCH   8  14
ENDBRANCH   7  11
ENDBRANCH   6   7
ENDBRANCH   5   6
ENDBRANCH   4   5
ENDBRANCH   3   4
ENDBRANCH   2   3
ENDBRANCH   1   2
BRANCH   1  23
ATOM     23  C   UNL     1     -10.810  15.094  65.041  0.00  0.00    +0.174 C 
BRANCH  23  24
ATOM     24  C   UNL     1     -12.144  14.840  64.395  0.00  0.00    +0.174 C 
BRANCH  24  25
ATOM     25  O   UNL     1     -12.932  13.942  65.093  0.00  0.00    -0.348 OA
BRANCH  25  26
ATOM     26  C   UNL     1     -12.510  12.629  64.983  0.00  0.00    +0.174 C 
BRANCH  26  27
ATOM     27  C   UNL     1     -12.372  12.165  63.553  0.00  0.00    +0.174 C 
BRANCH  27  28
ATOM     28  O   UNL     1     -11.189  11.418  63.484  0.00  0.00    -0.348 OA
BRANCH  28  29
ATOM     29  C   UNL     1     -10.652  11.387  64.761  0.00  0.00    +0.174 C 
BRANCH  29  30
ATOM     30  C   UNL     1      -9.453  10.464  64.806  0.00  0.00    +0.174 C 
BRANCH  30  31
ATOM     31  O   UNL     1      -8.533  10.981  65.705  0.00  0.00    -0.348 OA
BRANCH  31  32
ATOM     32  C   UNL     1      -9.121  12.037  66.398  0.00  0.00    +0.174 C 
BRANCH  32  33
ATOM     33  C   UNL     1      -8.593  12.128  67.813  0.00  0.00    +0.174 C 
BRANCH  33  34
ATOM     34  O   UNL     1      -8.188  13.447  68.041  0.00  0.00    -0.348 OA
BRANCH  34  35
ATOM     35  C   UNL     1      -6.841  13.619  67.780  0.00  0.00    +0.174 C 
BRANCH  35  36
ATOM     36  C   UNL     1      -6.474  15.093  67.868  0.00  0.00    +0.174 C 
BRANCH  36  37
ATOM     37  O   UNL     1      -7.427  15.708  68.664  0.00  0.00    -0.348 OA
BRANCH  37  38
ATOM     38  C   UNL     1      -6.942  16.973  69.012  0.00  0.00    +0.174 C 
BRANCH  38  39
ATOM     39  C   UNL     1      -5.433  17.040  68.856  0.00  0.00    +0.174 C 
BRANCH  39  40
ATOM     40  O   UNL     1      -4.939  17.589  70.043  0.00  0.00    -0.348 OA
BRANCH  40  41
ATOM     41  C   UNL     1      -5.512  18.861  70.204  0.00  0.00    +0.178 C 
BRANCH  41  42
ATOM     42  C   UNL     1      -5.474  19.150  71.696  0.00  0.00    +0.214 C 
ATOM     43  O   UNL     1      -4.188  19.622  71.979  0.00  0.00    -0.218 OA
ENDBRANCH  41  42
ENDBRANCH  40  41
ENDBRANCH  39  40
ENDBRANCH  38  39
ENDBRANCH  37  38
ENDBRANCH  36  37
ENDBRANCH  35  36
ENDBRANCH  34  35
ENDBRANCH  33  34
ENDBRANCH  32  33
ENDBRANCH  31  32
ENDBRANCH  30  31
ENDBRANCH  29  30
ENDBRANCH  28  29
ENDBRANCH  27  28
ENDBRANCH  26  27
ENDBRANCH  25  26
ENDBRANCH  24  25
ENDBRANCH  23  24
ENDBRANCH   1  23
TORSDOF 35
ENDMDL
MODEL 6
REMARK VINA RESULT:      -4.7      1.470      5.071
REMARK  Name = 
REMARK  35 active torsions:
REMARK  status: ('A' for Active; 'I' for Inactive)
REMARK    1  A    between atoms: C_2  and  C_3
REMARK    2  A    between atoms: C_3  and  C_4
REMARK    3  A    between atoms: C_4  and  C_5
REMARK    4  A    between atoms: C_5  and  C_6
REMARK    5  A    between atoms: C_6  and  C_7
REMARK    6  A    between atoms: C_7  and  C_8
REMARK    7  A    between atoms: C_8  and  C_9
REMARK    8  A    between atoms: C_9  and  C_10
REMARK    9  A    between atoms: C_13  and  O_14
REMARK   10  A    between atoms: O_14  and  C_15
REMARK   11  A    between atoms: C_15  and  C_16
REMARK   12  A    between atoms: C_16  and  O_17
REMARK   13  A    between atoms: O_17  and  C_18
REMARK   14  A    between atoms: C_18  and  C_19
REMARK   15  A    between atoms: C_19  and  O_20
REMARK   16  A    between atoms: O_20  and  C_21
REMARK   17  A    between atoms: C_21  and  C_22
REMARK   18  A    between atoms: C_22  and  O_23
REMARK   19  A    between atoms: O_23  and  C_24
REMARK   20  A    between atoms: C_24  and  C_25
REMARK   21  A    between atoms: C_25  and  O_26
REMARK   22  A    between atoms: O_26  and  C_27
REMARK   23  A    between atoms: C_27  and  C_28
REMARK   24  A    between atoms: C_28  and  O_29
REMARK   25  A    between atoms: O_29  and  C_30
REMARK   26  A    between atoms: C_30  and  C_31
REMARK   27  A    between atoms: C_31  and  O_32
REMARK   28  A    between atoms: O_32  and  C_33
REMARK   29  A    between atoms: C_33  and  C_34
REMARK   30  A    between atoms: C_34  and  O_35
REMARK   31  A    between atoms: O_35  and  C_36
REMARK   32  A    between atoms: C_36  and  C_37
REMARK   33  A    between atoms: C_37  and  O_38
REMARK   34  A    between atoms: O_38  and  C_39
REMARK   35  A    between atoms: C_39  and  C_40
REMARK                            x       y       z     vdW  Elec       q    Type
REMARK                         _______ _______ _______ _____ _____    ______ ____
ROOT
ATOM      1  O   UNL     1     -11.911  16.302  69.028  0.00  0.00    -0.348 OA
ENDROOT
BRANCH   1   2
ATOM      2  C   UNL     1     -11.102  16.286  70.158  0.00  0.00    +0.174 C 
BRANCH   2   3
ATOM      3  C   UNL     1     -11.866  15.838  71.400  0.00  0.00    +0.174 C 
BRANCH   3   4
ATOM      4  O   UNL     1     -13.155  15.477  70.975  0.00  0.00    -0.347 OA
BRANCH   4   5
ATOM      5  C   UNL     1     -13.603  14.336  71.616  0.00  0.00    +0.189 C 
BRANCH   5   6
ATOM      6  C   UNL     1     -12.822  13.101  71.260  0.00  0.00    +0.237 C 
BRANCH   6   7
ATOM      7  O   UNL     1     -13.267  11.946  71.918  0.00  0.00    -0.473 OA
BRANCH   7  11
ATOM      8  C   UNL     1     -11.514   8.305  72.100  0.00  0.00    -0.022 A 
ATOM      9  C   UNL     1     -11.023   9.242  71.199  0.00  0.00    -0.001 A 
ATOM     10  C   UNL     1     -11.723  10.415  70.946  0.00  0.00    +0.037 A 
ATOM     11  C   UNL     1     -12.967  10.651  71.518  0.00  0.00    +0.139 A 
ATOM     12  C   UNL     1     -13.594   9.532  72.050  0.00  0.00    +0.037 A 
ATOM     13  C   UNL     1     -12.880   8.377  72.343  0.00  0.00    -0.001 A 
BRANCH   8  14
ATOM     14  C   UNL     1     -10.580   7.614  73.044  0.00  0.00    +0.026 C 
BRANCH  14  15
ATOM     15  C   UNL     1     -10.502   6.135  72.778  0.00  0.00    +0.005 C 
BRANCH  15  16
ATOM     16  C   UNL     1     -10.895   5.894  71.346  0.00  0.00    +0.000 C 
BRANCH  16  17
ATOM     17  C   UNL     1      -9.995   4.793  70.807  0.00  0.00    +0.000 C 
BRANCH  17  18
ATOM     18  C   UNL     1     -10.088   4.819  69.286  0.00  0.00    +0.000 C 
BRANCH  18  19
ATOM     19  C   UNL     1     -10.448   6.251  68.910  0.00  0.00    +0.000 C 
BRANCH  19  20
ATOM     20  C   UNL     1     -10.949   6.284  67.486  0.00  0.00    +0.000 C 
BRANCH  20  22
ATOM     21  C   UNL     1     -10.539   8.705  67.768  0.00  0.00    +0.000 C 
ATOM     22  C   UNL     1     -10.386   7.532  66.832  0.00  0.00    +0.000 C 
ENDBRANCH  20  22
ENDBRANCH  19  20
ENDBRANCH  18  19
ENDBRANCH  17  18
ENDBRANCH  16  17
ENDBRANCH  15  16
ENDBRANCH  14  15
ENDBRANCH   8  14
ENDBRANCH   7  11
ENDBRANCH   6   7
ENDBRANCH   5   6
ENDBRANCH   4   5
ENDBRANCH   3   4
ENDBRANCH   2   3
ENDBRANCH   1   2
BRANCH   1  23
ATOM     23  C   UNL     1     -11.288  15.747  67.913  0.00  0.00    +0.174 C 
BRANCH  23  24
ATOM     24  C   UNL     1     -11.972  14.459  67.549  0.00  0.00    +0.174 C 
BRANCH  24  25
ATOM     25  O   UNL     1     -12.390  14.410  66.231  0.00  0.00    -0.348 OA
BRANCH  25  26
ATOM     26  C   UNL     1     -12.413  13.132  65.702  0.00  0.00    +0.174 C 
BRANCH  26  27
ATOM     27  C   UNL     1     -11.583  12.990  64.449  0.00  0.00    +0.174 C 
BRANCH  27  28
ATOM     28  O   UNL     1     -10.245  12.922  64.859  0.00  0.00    -0.348 OA
BRANCH  28  29
ATOM     29  C   UNL     1     -10.120  11.796  65.657  0.00  0.00    +0.174 C 
BRANCH  29  30
ATOM     30  C   UNL     1      -9.097  12.033  66.748  0.00  0.00    +0.174 C 
BRANCH  30  31
ATOM     31  O   UNL     1      -8.740  13.372  66.732  0.00  0.00    -0.348 OA
BRANCH  31  32
ATOM     32  C   UNL     1      -7.692  13.572  67.629  0.00  0.00    +0.174 C 
BRANCH  32  33
ATOM     33  C   UNL     1      -7.420  15.045  67.837  0.00  0.00    +0.174 C 
BRANCH  33  34
ATOM     34  O   UNL     1      -7.428  15.298  69.212  0.00  0.00    -0.348 OA
BRANCH  34  35
ATOM     35  C   UNL     1      -6.462  16.222  69.566  0.00  0.00    +0.174 C 
BRANCH  35  36
ATOM     36  C   UNL     1      -6.543  17.441  68.660  0.00  0.00    +0.174 C 
BRANCH  36  37
ATOM     37  O   UNL     1      -6.256  18.552  69.438  0.00  0.00    -0.348 OA
BRANCH  37  38
ATOM     38  C   UNL     1      -7.207  19.536  69.146  0.00  0.00    +0.174 C 
BRANCH  38  39
ATOM     39  C   UNL     1      -8.308  18.983  68.258  0.00  0.00    +0.174 C 
BRANCH  39  40
ATOM     40  O   UNL     1      -9.059  20.083  67.832  0.00  0.00    -0.348 OA
BRANCH  40  41
ATOM     41  C   UNL     1     -10.289  19.608  67.348  0.00  0.00    +0.178 C 
BRANCH  41  42
ATOM     42  C   UNL     1      -9.950  18.635  66.230  0.00  0.00    +0.214 C 
ATOM     43  O   UNL     1     -10.938  18.791  65.253  0.00  0.00    -0.218 OA
ENDBRANCH  41  42
ENDBRANCH  40  41
ENDBRANCH  39  40
ENDBRANCH  38  39
ENDBRANCH  37  38
ENDBRANCH  36  37
ENDBRANCH  35  36
ENDBRANCH  34  35
ENDBRANCH  33  34
ENDBRANCH  32  33
ENDBRANCH  31  32
ENDBRANCH  30  31
ENDBRANCH  29  30
ENDBRANCH  28  29
ENDBRANCH  27  28
ENDBRANCH  26  27
ENDBRANCH  25  26
ENDBRANCH  24  25
ENDBRANCH  23  24
ENDBRANCH   1  23
TORSDOF 35
ENDMDL
MODEL 7
REMARK VINA RESULT:      -4.6      1.567      2.901
REMARK  Name = 
REMARK  35 active torsions:
REMARK  status: ('A' for Active; 'I' for Inactive)
REMARK    1  A    between atoms: C_2  and  C_3
REMARK    2  A    between atoms: C_3  and  C_4
REMARK    3  A    between atoms: C_4  and  C_5
REMARK    4  A    between atoms: C_5  and  C_6
REMARK    5  A    between atoms: C_6  and  C_7
REMARK    6  A    between atoms: C_7  and  C_8
REMARK    7  A    between atoms: C_8  and  C_9
REMARK    8  A    between atoms: C_9  and  C_10
REMARK    9  A    between atoms: C_13  and  O_14
REMARK   10  A    between atoms: O_14  and  C_15
REMARK   11  A    between atoms: C_15  and  C_16
REMARK   12  A    between atoms: C_16  and  O_17
REMARK   13  A    between atoms: O_17  and  C_18
REMARK   14  A    between atoms: C_18  and  C_19
REMARK   15  A    between atoms: C_19  and  O_20
REMARK   16  A    between atoms: O_20  and  C_21
REMARK   17  A    between atoms: C_21  and  C_22
REMARK   18  A    between atoms: C_22  and  O_23
REMARK   19  A    between atoms: O_23  and  C_24
REMARK   20  A    between atoms: C_24  and  C_25
REMARK   21  A    between atoms: C_25  and  O_26
REMARK   22  A    between atoms: O_26  and  C_27
REMARK   23  A    between atoms: C_27  and  C_28
REMARK   24  A    between atoms: C_28  and  O_29
REMARK   25  A    between atoms: O_29  and  C_30
REMARK   26  A    between atoms: C_30  and  C_31
REMARK   27  A    between atoms: C_31  and  O_32
REMARK   28  A    between atoms: O_32  and  C_33
REMARK   29  A    between atoms: C_33  and  C_34
REMARK   30  A    between atoms: C_34  and  O_35
REMARK   31  A    between atoms: O_35  and  C_36
REMARK   32  A    between atoms: C_36  and  C_37
REMARK   33  A    between atoms: C_37  and  O_38
REMARK   34  A    between atoms: O_38  and  C_39
REMARK   35  A    between atoms: C_39  and  C_40
REMARK                            x       y       z     vdW  Elec       q    Type
REMARK                         _______ _______ _______ _____ _____    ______ ____
ROOT
ATOM      1  O   UNL     1     -11.623  14.744  65.812  0.00  0.00    -0.348 OA
ENDROOT
BRANCH   1   2
ATOM      2  C   UNL     1     -12.579  14.053  65.079  0.00  0.00    +0.174 C 
BRANCH   2   3
ATOM      3  C   UNL     1     -12.326  12.549  65.087  0.00  0.00    +0.174 C 
BRANCH   3   4
ATOM      4  O   UNL     1     -11.652  12.244  63.894  0.00  0.00    -0.347 OA
BRANCH   4   5
ATOM      5  C   UNL     1     -10.315  11.968  64.120  0.00  0.00    +0.189 C 
BRANCH   5   6
ATOM      6  C   UNL     1      -9.915  10.571  63.730  0.00  0.00    +0.237 C 
BRANCH   6   7
ATOM      7  O   UNL     1      -9.924   9.664  64.798  0.00  0.00    -0.473 OA
BRANCH   7  11
ATOM      8  C   UNL     1      -9.218   9.086  68.739  0.00  0.00    -0.022 A 
ATOM      9  C   UNL     1     -10.516   9.356  68.322  0.00  0.00    -0.001 A 
ATOM     10  C   UNL     1     -10.769   9.776  67.022  0.00  0.00    +0.037 A 
ATOM     11  C   UNL     1      -9.734  10.018  66.128  0.00  0.00    +0.139 A 
ATOM     12  C   UNL     1      -8.476  10.149  66.700  0.00  0.00    +0.037 A 
ATOM     13  C   UNL     1      -8.218   9.686  67.985  0.00  0.00    -0.001 A 
BRANCH   8  14
ATOM     14  C   UNL     1      -8.944   7.902  69.613  0.00  0.00    +0.026 C 
BRANCH  14  15
ATOM     15  C   UNL     1      -8.091   8.262  70.798  0.00  0.00    +0.005 C 
BRANCH  15  16
ATOM     16  C   UNL     1      -8.996   8.476  71.982  0.00  0.00    +0.000 C 
BRANCH  16  17
ATOM     17  C   UNL     1      -9.876   7.242  72.108  0.00  0.00    +0.000 C 
BRANCH  17  18
ATOM     18  C   UNL     1     -11.230   7.691  72.646  0.00  0.00    +0.000 C 
BRANCH  18  19
ATOM     19  C   UNL     1     -11.517   9.038  71.996  0.00  0.00    +0.000 C 
BRANCH  19  20
ATOM     20  C   UNL     1     -12.785   8.943  71.181  0.00  0.00    +0.000 C 
BRANCH  20  22
ATOM     21  C   UNL     1     -14.795   7.669  71.846  0.00  0.00    +0.000 C 
ATOM     22  C   UNL     1     -13.948   8.880  72.151  0.00  0.00    +0.000 C 
ENDBRANCH  20  22
ENDBRANCH  19  20
ENDBRANCH  18  19
ENDBRANCH  17  18
ENDBRANCH  16  17
ENDBRANCH  15  16
ENDBRANCH  14  15
ENDBRANCH   8  14
ENDBRANCH   7  11
ENDBRANCH   6   7
ENDBRANCH   5   6
ENDBRANCH   4   5
ENDBRANCH   3   4
ENDBRANCH   2   3
ENDBRANCH   1   2
BRANCH   1  23
ATOM     23  C   UNL     1     -10.841  15.582  65.021  0.00  0.00    +0.174 C 
BRANCH  23  24
ATOM     24  C   UNL     1      -9.606  15.976  65.782  0.00  0.00    +0.174 C 
BRANCH  24  25
ATOM     25  O   UNL     1      -9.358  17.337  65.764  0.00  0.00    -0.348 OA
BRANCH  25  26
ATOM     26  C   UNL     1     -10.483  18.110  65.984  0.00  0.00    +0.174 C 
BRANCH  26  27
ATOM     27  C   UNL     1     -10.333  19.064  67.145  0.00  0.00    +0.174 C 
BRANCH  27  28
ATOM     28  O   UNL     1      -9.396  20.030  66.755  0.00  0.00    -0.348 OA
BRANCH  28  29
ATOM     29  C   UNL     1      -8.451  20.113  67.765  0.00  0.00    +0.174 C 
BRANCH  29  30
ATOM     30  C   UNL     1      -7.056  20.163  67.180  0.00  0.00    +0.174 C 
BRANCH  30  31
ATOM     31  O   UNL     1      -6.446  18.937  67.390  0.00  0.00    -0.348 OA
BRANCH  31  32
ATOM     32  C   UNL     1      -6.705  18.518  68.693  0.00  0.00    +0.174 C 
BRANCH  32  33
ATOM     33  C   UNL     1      -6.865  17.016  68.767  0.00  0.00    +0.174 C 
BRANCH  33  34
ATOM     34  O   UNL     1      -8.232  16.726  68.806  0.00  0.00    -0.348 OA
BRANCH  34  35
ATOM     35  C   UNL     1      -8.472  15.470  69.332  0.00  0.00    +0.174 C 
BRANCH  35  36
ATOM     36  C   UNL     1      -9.962  15.163  69.301  0.00  0.00    +0.174 C 
BRANCH  36  37
ATOM     37  O   UNL     1     -10.624  16.291  69.761  0.00  0.00    -0.348 OA
BRANCH  37  38
ATOM     38  C   UNL     1     -11.850  15.878  70.295  0.00  0.00    +0.174 C 
BRANCH  38  39
ATOM     39  C   UNL     1     -11.658  15.199  71.639  0.00  0.00    +0.174 C 
BRANCH  39  40
ATOM     40  O   UNL     1     -12.914  14.716  72.018  0.00  0.00    -0.348 OA
BRANCH  40  41
ATOM     41  C   UNL     1     -13.392  15.524  73.063  0.00  0.00    +0.178 C 
BRANCH  41  42
ATOM     42  C   UNL     1     -12.400  15.361  74.204  0.00  0.00    +0.214 C 
ATOM     43  O   UNL     1     -12.502  16.513  74.990  0.00  0.00    -0.218 OA
ENDBRANCH  41  42
ENDBRANCH  40  41
ENDBRANCH  39  40
ENDBRANCH  38  39
ENDBRANCH  37  38
ENDBRANCH  36  37
ENDBRANCH  35  36
ENDBRANCH  34  35
ENDBRANCH  33  34
ENDBRANCH  32  33
ENDBRANCH  31  32
ENDBRANCH  30  31
ENDBRANCH  29  30
ENDBRANCH  28  29
ENDBRANCH  27  28
ENDBRANCH  26  27
ENDBRANCH  25  26
ENDBRANCH  24  25
ENDBRANCH  23  24
ENDBRANCH   1  23
TORSDOF 35
ENDMDL
MODEL 8
REMARK VINA RESULT:      -4.6      1.519      2.754
REMARK  Name = 
REMARK  35 active torsions:
REMARK  status: ('A' for Active; 'I' for Inactive)
REMARK    1  A    between atoms: C_2  and  C_3
REMARK    2  A    between atoms: C_3  and  C_4
REMARK    3  A    between atoms: C_4  and  C_5
REMARK    4  A    between atoms: C_5  and  C_6
REMARK    5  A    between atoms: C_6  and  C_7
REMARK    6  A    between atoms: C_7  and  C_8
REMARK    7  A    between atoms: C_8  and  C_9
REMARK    8  A    between atoms: C_9  and  C_10
REMARK    9  A    between atoms: C_13  and  O_14
REMARK   10  A    between atoms: O_14  and  C_15
REMARK   11  A    between atoms: C_15  and  C_16
REMARK   12  A    between atoms: C_16  and  O_17
REMARK   13  A    between atoms: O_17  and  C_18
REMARK   14  A    between atoms: C_18  and  C_19
REMARK   15  A    between atoms: C_19  and  O_20
REMARK   16  A    between atoms: O_20  and  C_21
REMARK   17  A    between atoms: C_21  and  C_22
REMARK   18  A    between atoms: C_22  and  O_23
REMARK   19  A    between atoms: O_23  and  C_24
REMARK   20  A    between atoms: C_24  and  C_25
REMARK   21  A    between atoms: C_25  and  O_26
REMARK   22  A    between atoms: O_26  and  C_27
REMARK   23  A    between atoms: C_27  and  C_28
REMARK   24  A    between atoms: C_28  and  O_29
REMARK   25  A    between atoms: O_29  and  C_30
REMARK   26  A    between atoms: C_30  and  C_31
REMARK   27  A    between atoms: C_31  and  O_32
REMARK   28  A    between atoms: O_32  and  C_33
REMARK   29  A    between atoms: C_33  and  C_34
REMARK   30  A    between atoms: C_34  and  O_35
REMARK   31  A    between atoms: O_35  and  C_36
REMARK   32  A    between atoms: C_36  and  C_37
REMARK   33  A    between atoms: C_37  and  O_38
REMARK   34  A    between atoms: O_38  and  C_39
REMARK   35  A    between atoms: C_39  and  C_40
REMARK                            x       y       z     vdW  Elec       q    Type
REMARK                         _______ _______ _______ _____ _____    ______ ____
ROOT
ATOM      1  O   UNL     1     -13.029  13.804  64.655  0.00  0.00    -0.348 OA
ENDROOT
BRANCH   1   2
ATOM      2  C   UNL     1     -11.913  12.985  64.538  0.00  0.00    +0.174 C 
BRANCH   2   3
ATOM      3  C   UNL     1     -12.103  11.910  63.473  0.00  0.00    +0.174 C 
BRANCH   3   4
ATOM      4  O   UNL     1     -10.981  11.068  63.541  0.00  0.00    -0.347 OA
BRANCH   4   5
ATOM      5  C   UNL     1     -10.000  11.592  64.365  0.00  0.00    +0.189 C 
BRANCH   5   6
ATOM      6  C   UNL     1      -9.306  10.556  65.207  0.00  0.00    +0.237 C 
BRANCH   6   7
ATOM      7  O   UNL     1     -10.104   9.441  65.497  0.00  0.00    -0.473 OA
BRANCH   7  11
ATOM      8  C   UNL     1      -9.953   8.712  69.474  0.00  0.00    -0.022 A 
ATOM      9  C   UNL     1     -10.095   7.642  68.600  0.00  0.00    -0.001 A 
ATOM     10  C   UNL     1     -10.371   7.857  67.255  0.00  0.00    +0.037 A 
ATOM     11  C   UNL     1     -10.594   9.135  66.760  0.00  0.00    +0.139 A 
ATOM     12  C   UNL     1     -10.863  10.102  67.719  0.00  0.00    +0.037 A 
ATOM     13  C   UNL     1     -10.544   9.899  69.056  0.00  0.00    -0.001 A 
BRANCH   8  14
ATOM     14  C   UNL     1      -8.879   8.690  70.516  0.00  0.00    +0.026 C 
BRANCH  14  15
ATOM     15  C   UNL     1      -9.446   8.680  71.909  0.00  0.00    +0.005 C 
BRANCH  15  16
ATOM     16  C   UNL     1      -9.823   7.263  72.252  0.00  0.00    +0.000 C 
BRANCH  16  17
ATOM     17  C   UNL     1     -11.255   7.287  72.765  0.00  0.00    +0.000 C 
BRANCH  17  18
ATOM     18  C   UNL     1     -12.136   6.622  71.713  0.00  0.00    +0.000 C 
BRANCH  18  19
ATOM     19  C   UNL     1     -13.386   7.485  71.605  0.00  0.00    +0.000 C 
BRANCH  19  20
ATOM     20  C   UNL     1     -13.113   8.842  72.208  0.00  0.00    +0.000 C 
BRANCH  20  22
ATOM     21  C   UNL     1     -12.921  11.240  71.642  0.00  0.00    +0.000 C 
ATOM     22  C   UNL     1     -13.248   9.871  71.101  0.00  0.00    +0.000 C 
ENDBRANCH  20  22
ENDBRANCH  19  20
ENDBRANCH  18  19
ENDBRANCH  17  18
ENDBRANCH  16  17
ENDBRANCH  15  16
ENDBRANCH  14  15
ENDBRANCH   8  14
ENDBRANCH   7  11
ENDBRANCH   6   7
ENDBRANCH   5   6
ENDBRANCH   4   5
ENDBRANCH   3   4
ENDBRANCH   2   3
ENDBRANCH   1   2
BRANCH   1  23
ATOM     23  C   UNL     1     -12.698  15.129  64.929  0.00  0.00    +0.174 C 
BRANCH  23  24
ATOM     24  C   UNL     1     -11.274  15.381  64.517  0.00  0.00    +0.174 C 
BRANCH  24  25
ATOM     25  O   UNL     1     -10.908  16.713  64.587  0.00  0.00    -0.348 OA
BRANCH  25  26
ATOM     26  C   UNL     1     -10.160  17.027  65.708  0.00  0.00    +0.174 C 
BRANCH  26  27
ATOM     27  C   UNL     1     -10.322  18.462  66.149  0.00  0.00    +0.174 C 
BRANCH  27  28
ATOM     28  O   UNL     1      -9.055  19.054  66.067  0.00  0.00    -0.348 OA
BRANCH  28  29
ATOM     29  C   UNL     1      -8.147  18.146  66.587  0.00  0.00    +0.174 C 
BRANCH  29  30
ATOM     30  C   UNL     1      -7.963  18.375  68.072  0.00  0.00    +0.174 C 
BRANCH  30  31
ATOM     31  O   UNL     1      -8.173  17.175  68.732  0.00  0.00    -0.348 OA
BRANCH  31  32
ATOM     32  C   UNL     1      -6.957  16.714  69.233  0.00  0.00    +0.174 C 
BRANCH  32  33
ATOM     33  C   UNL     1      -6.972  15.213  69.417  0.00  0.00    +0.174 C 
BRANCH  33  34
ATOM     34  O   UNL     1      -8.278  14.762  69.201  0.00  0.00    -0.348 OA
BRANCH  34  35
ATOM     35  C   UNL     1      -8.437  14.255  67.924  0.00  0.00    +0.174 C 
BRANCH  35  36
ATOM     36  C   UNL     1      -9.905  13.959  67.655  0.00  0.00    +0.174 C 
BRANCH  36  37
ATOM     37  O   UNL     1     -10.464  13.533  68.850  0.00  0.00    -0.348 OA
BRANCH  37  38
ATOM     38  C   UNL     1     -11.752  14.075  68.937  0.00  0.00    +0.174 C 
BRANCH  38  39
ATOM     39  C   UNL     1     -11.704  15.593  68.942  0.00  0.00    +0.174 C 
BRANCH  39  40
ATOM     40  O   UNL     1     -11.298  15.969  70.226  0.00  0.00    -0.348 OA
BRANCH  40  41
ATOM     41  C   UNL     1     -12.229  15.453  71.143  0.00  0.00    +0.178 C 
BRANCH  41  42
ATOM     42  C   UNL     1     -12.013  16.225  72.435  0.00  0.00    +0.214 C 
ATOM     43  O   UNL     1     -12.001  15.281  73.467  0.00  0.00    -0.218 OA
ENDBRANCH  41  42
ENDBRANCH  40  41
ENDBRANCH  39  40
ENDBRANCH  38  39
ENDBRANCH  37  38
ENDBRANCH  36  37
ENDBRANCH  35  36
ENDBRANCH  34  35
ENDBRANCH  33  34
ENDBRANCH  32  33
ENDBRANCH  31  32
ENDBRANCH  30  31
ENDBRANCH  29  30
ENDBRANCH  28  29
ENDBRANCH  27  28
ENDBRANCH  26  27
ENDBRANCH  25  26
ENDBRANCH  24  25
ENDBRANCH  23  24
ENDBRANCH   1  23
TORSDOF 35
ENDMDL
MODEL 9
REMARK VINA RESULT:      -4.6      1.640      5.060
REMARK  Name = 
REMARK  35 active torsions:
REMARK  status: ('A' for Active; 'I' for Inactive)
REMARK    1  A    between atoms: C_2  and  C_3
REMARK    2  A    between atoms: C_3  and  C_4
REMARK    3  A    between atoms: C_4  and  C_5
REMARK    4  A    between atoms: C_5  and  C_6
REMARK    5  A    between atoms: C_6  and  C_7
REMARK    6  A    between atoms: C_7  and  C_8
REMARK    7  A    between atoms: C_8  and  C_9
REMARK    8  A    between atoms: C_9  and  C_10
REMARK    9  A    between atoms: C_13  and  O_14
REMARK   10  A    between atoms: O_14  and  C_15
REMARK   11  A    between atoms: C_15  and  C_16
REMARK   12  A    between atoms: C_16  and  O_17
REMARK   13  A    between atoms: O_17  and  C_18
REMARK   14  A    between atoms: C_18  and  C_19
REMARK   15  A    between atoms: C_19  and  O_20
REMARK   16  A    between atoms: O_20  and  C_21
REMARK   17  A    between atoms: C_21  and  C_22
REMARK   18  A    between atoms: C_22  and  O_23
REMARK   19  A    between atoms: O_23  and  C_24
REMARK   20  A    between atoms: C_24  and  C_25
REMARK   21  A    between atoms: C_25  and  O_26
REMARK   22  A    between atoms: O_26  and  C_27
REMARK   23  A    between atoms: C_27  and  C_28
REMARK   24  A    between atoms: C_28  and  O_29
REMARK   25  A    between atoms: O_29  and  C_30
REMARK   26  A    between atoms: C_30  and  C_31
REMARK   27  A    between atoms: C_31  and  O_32
REMARK   28  A    between atoms: O_32  and  C_33
REMARK   29  A    between atoms: C_33  and  C_34
REMARK   30  A    between atoms: C_34  and  O_35
REMARK   31  A    between atoms: O_35  and  C_36
REMARK   32  A    between atoms: C_36  and  C_37
REMARK   33  A    between atoms: C_37  and  O_38
REMARK   34  A    between atoms: O_38  and  C_39
REMARK   35  A    between atoms: C_39  and  C_40
REMARK                            x       y       z     vdW  Elec       q    Type
REMARK                         _______ _______ _______ _____ _____    ______ ____
ROOT
ATOM      1  O   UNL     1     -11.789  16.280  69.454  0.00  0.00    -0.348 OA
ENDROOT
BRANCH   1   2
ATOM      2  C   UNL     1     -11.194  15.990  70.676  0.00  0.00    +0.174 C 
BRANCH   2   3
ATOM      3  C   UNL     1     -12.196  16.047  71.825  0.00  0.00    +0.174 C 
BRANCH   3   4
ATOM      4  O   UNL     1     -13.395  15.498  71.345  0.00  0.00    -0.347 OA
BRANCH   4   5
ATOM      5  C   UNL     1     -14.072  14.807  72.335  0.00  0.00    +0.189 C 
BRANCH   5   6
ATOM      6  C   UNL     1     -13.689  13.356  72.424  0.00  0.00    +0.237 C 
BRANCH   6   7
ATOM      7  O   UNL     1     -12.980  12.891  71.308  0.00  0.00    -0.473 OA
BRANCH   7  11
ATOM      8  C   UNL     1     -11.187   9.268  71.146  0.00  0.00    -0.022 A 
ATOM      9  C   UNL     1     -11.165  10.079  70.019  0.00  0.00    -0.001 A 
ATOM     10  C   UNL     1     -11.948  11.225  69.955  0.00  0.00    +0.037 A 
ATOM     11  C   UNL     1     -12.834  11.551  70.974  0.00  0.00    +0.139 A 
ATOM     12  C   UNL     1     -13.131  10.518  71.853  0.00  0.00    +0.037 A 
ATOM     13  C   UNL     1     -12.318   9.395  71.944  0.00  0.00    -0.001 A 
BRANCH   8  14
ATOM     14  C   UNL     1      -9.914   8.682  71.671  0.00  0.00    +0.026 C 
BRANCH  14  15
ATOM     15  C   UNL     1      -9.968   7.180  71.731  0.00  0.00    +0.005 C 
BRANCH  15  16
ATOM     16  C   UNL     1      -9.715   6.645  70.348  0.00  0.00    +0.000 C 
BRANCH  16  17
ATOM     17  C   UNL     1     -11.026   6.066  69.838  0.00  0.00    +0.000 C 
BRANCH  17  18
ATOM     18  C   UNL     1     -10.997   6.118  68.315  0.00  0.00    +0.000 C 
BRANCH  18  19
ATOM     19  C   UNL     1      -9.783   6.960  67.946  0.00  0.00    +0.000 C 
BRANCH  19  20
ATOM     20  C   UNL     1     -10.119   7.833  66.759  0.00  0.00    +0.000 C 
BRANCH  20  22
ATOM     21  C   UNL     1      -8.335   9.109  67.897  0.00  0.00    +0.000 C 
ATOM     22  C   UNL     1      -9.572   9.219  67.041  0.00  0.00    +0.000 C 
ENDBRANCH  20  22
ENDBRANCH  19  20
ENDBRANCH  18  19
ENDBRANCH  17  18
ENDBRANCH  16  17
ENDBRANCH  15  16
ENDBRANCH  14  15
ENDBRANCH   8  14
ENDBRANCH   7  11
ENDBRANCH   6   7
ENDBRANCH   5   6
ENDBRANCH   4   5
ENDBRANCH   3   4
ENDBRANCH   2   3
ENDBRANCH   1   2
BRANCH   1  23
ATOM     23  C   UNL     1     -11.785  15.193  68.583  0.00  0.00    +0.174 C 
BRANCH  23  24
ATOM     24  C   UNL     1     -10.688  14.244  68.976  0.00  0.00    +0.174 C 
BRANCH  24  25
ATOM     25  O   UNL     1     -10.074  13.634  67.896  0.00  0.00    -0.348 OA
BRANCH  25  26
ATOM     26  C   UNL     1      -8.933  12.928  68.232  0.00  0.00    +0.174 C 
BRANCH  26  27
ATOM     27  C   UNL     1      -7.680  13.486  67.600  0.00  0.00    +0.174 C 
BRANCH  27  28
ATOM     28  O   UNL     1      -7.492  14.765  68.140  0.00  0.00    -0.348 OA
BRANCH  28  29
ATOM     29  C   UNL     1      -6.452  14.674  69.050  0.00  0.00    +0.174 C 
BRANCH  29  30
ATOM     30  C   UNL     1      -6.052  16.051  69.534  0.00  0.00    +0.174 C 
BRANCH  30  31
ATOM     31  O   UNL     1      -6.456  16.983  68.592  0.00  0.00    -0.348 OA
BRANCH  31  32
ATOM     32  C   UNL     1      -6.257  18.263  69.106  0.00  0.00    +0.174 C 
BRANCH  32  33
ATOM     33  C   UNL     1      -7.481  19.130  68.914  0.00  0.00    +0.174 C 
BRANCH  33  34
ATOM     34  O   UNL     1      -8.517  18.319  68.438  0.00  0.00    -0.348 OA
BRANCH  34  35
ATOM     35  C   UNL     1      -9.059  18.819  67.269  0.00  0.00    +0.174 C 
BRANCH  35  36
ATOM     36  C   UNL     1      -8.846  17.835  66.128  0.00  0.00    +0.174 C 
BRANCH  36  37
ATOM     37  O   UNL     1      -9.459  16.646  66.491  0.00  0.00    -0.348 OA
BRANCH  37  38
ATOM     38  C   UNL     1     -10.533  16.435  65.619  0.00  0.00    +0.174 C 
BRANCH  38  39
ATOM     39  C   UNL     1     -10.493  15.034  65.034  0.00  0.00    +0.174 C 
BRANCH  39  40
ATOM     40  O   UNL     1     -11.728  14.834  64.411  0.00  0.00    -0.348 OA
BRANCH  40  41
ATOM     41  C   UNL     1     -12.550  14.117  65.297  0.00  0.00    +0.178 C 
BRANCH  41  42
ATOM     42  C   UNL     1     -12.296  12.646  65.004  0.00  0.00    +0.214 C 
ATOM     43  O   UNL     1     -13.188  12.281  63.991  0.00  0.00    -0.218 OA
ENDBRANCH  41  42
ENDBRANCH  40  41
ENDBRANCH  39  40
ENDBRANCH  38  39
ENDBRANCH  37  38
ENDBRANCH  36  37
ENDBRANCH  35  36
ENDBRANCH  34  35
ENDBRANCH  33  34
ENDBRANCH  32  33
ENDBRANCH  31  32
ENDBRANCH  30  31
ENDBRANCH  29  30
ENDBRANCH  28  29
ENDBRANCH  27  28
ENDBRANCH  26  27
ENDBRANCH  25  26
ENDBRANCH  24  25
ENDBRANCH  23  24
ENDBRANCH   1  23
TORSDOF 35
ENDMDL
