MODEL 1
REMARK VINA RESULT:      -7.1      0.000      0.000
REMARK  Name = 
REMARK  7 active torsions:
REMARK  status: ('A' for Active; 'I' for Inactive)
REMARK    1  A    between atoms: N_2  and  C_3
REMARK    2  A    between atoms: N_2  and  C_20
REMARK    3  A    between atoms: C_3  and  C_4
REMARK    4  A    between atoms: C_4  and  O_5
REMARK    5  A    between atoms: O_5  and  C_6
REMARK    6  A    between atoms: C_9  and  C_10
REMARK    7  A    between atoms: C_10  and  C_11
REMARK                            x       y       z     vdW  Elec       q    Type
REMARK                         _______ _______ _______ _____ _____    ______ ____
ROOT
ATOM      1  C   UNL     1     -10.418   8.491  66.850  0.00  0.00    +0.139 A 
ATOM      2  C   UNL     1      -9.480   8.780  65.867  0.00  0.00    +0.037 A 
ATOM      3  C   UNL     1      -9.774   9.886  65.078  0.00  0.00    -0.001 A 
ATOM      4  C   UNL     1     -10.402  10.944  65.725  0.00  0.00    -0.021 A 
ATOM      5  C   UNL     1     -10.747  10.830  67.067  0.00  0.00    -0.001 A 
ATOM      6  C   UNL     1     -10.894   9.556  67.592  0.00  0.00    +0.037 A 
ENDROOT
BRANCH   4   7
ATOM      7  C   UNL     1     -10.331  12.347  65.204  0.00  0.00    +0.047 C 
BRANCH   7   8
ATOM      8  C   UNL     1     -11.701  13.062  65.579  0.00  0.00    +0.139 C 
ATOM      9  C   UNL     1     -12.063  13.448  64.112  0.00  0.00    +0.259 C 
ATOM     10  O   UNL     1     -12.605  12.521  63.433  0.00  0.00    -0.272 OA
ATOM     11  N   UNL     1     -12.599  14.754  64.135  0.00  0.00    -0.135 NA
ATOM     12  C   UNL     1     -11.552  15.637  64.551  0.00  0.00    +0.299 C 
ATOM     13  O   UNL     1     -11.274  16.802  64.197  0.00  0.00    -0.261 OA
ATOM     14  S   UNL     1     -10.903  14.748  65.977  0.00  0.00    -0.046 S 
ENDBRANCH   7   8
ENDBRANCH   4   7
BRANCH   1  15
ATOM     15  O   UNL     1     -10.660   7.223  67.317  0.00  0.00    -0.474 OA
BRANCH  15  16
ATOM     16  C   UNL     1     -10.110   6.796  68.548  0.00  0.00    +0.227 C 
BRANCH  16  17
ATOM     17  C   UNL     1     -11.213   6.192  69.395  0.00  0.00    +0.140 C 
BRANCH  17  19
ATOM     18  C   UNL     1     -10.388   6.351  71.229  0.00  0.00    +0.114 C 
ATOM     19  N   UNL     1     -10.974   6.624  70.773  0.00  0.00    -0.288 N 
BRANCH  19  20
ATOM     20  C   UNL     1     -11.885   7.647  71.208  0.00  0.00    +0.132 A 
ATOM     21  N   UNL     1     -13.171   7.347  71.432  0.00  0.00    -0.229 NA
ATOM     22  C   UNL     1     -14.016   8.305  71.864  0.00  0.00    +0.100 A 
ATOM     23  C   UNL     1     -13.535   9.604  71.892  0.00  0.00    +0.021 A 
ATOM     24  C   UNL     1     -12.255   9.939  71.535  0.00  0.00    +0.004 A 
ATOM     25  C   UNL     1     -11.393   8.931  71.186  0.00  0.00    +0.034 A 
ENDBRANCH  19  20
ENDBRANCH  17  19
ENDBRANCH  16  17
ENDBRANCH  15  16
ENDBRANCH   1  15
TORSDOF 7
ENDMDL
MODEL 2
REMARK VINA RESULT:      -7.1      6.230      9.540
REMARK  Name = 
REMARK  7 active torsions:
REMARK  status: ('A' for Active; 'I' for Inactive)
REMARK    1  A    between atoms: N_2  and  C_3
REMARK    2  A    between atoms: N_2  and  C_20
REMARK    3  A    between atoms: C_3  and  C_4
REMARK    4  A    between atoms: C_4  and  O_5
REMARK    5  A    between atoms: O_5  and  C_6
REMARK    6  A    between atoms: C_9  and  C_10
REMARK    7  A    between atoms: C_10  and  C_11
REMARK                            x       y       z     vdW  Elec       q    Type
REMARK                         _______ _______ _______ _____ _____    ______ ____
ROOT
ATOM      1  C   UNL     1      -6.757  16.686  68.301  0.00  0.00    +0.139 A 
ATOM      2  C   UNL     1      -7.657  16.019  69.124  0.00  0.00    +0.037 A 
ATOM      3  C   UNL     1      -8.985  16.083  68.720  0.00  0.00    -0.001 A 
ATOM      4  C   UNL     1      -9.204  16.063  67.347  0.00  0.00    -0.021 A 
ATOM      5  C   UNL     1      -8.124  16.039  66.473  0.00  0.00    -0.001 A 
ATOM      6  C   UNL     1      -6.903  16.503  66.939  0.00  0.00    +0.037 A 
ENDROOT
BRANCH   4   7
ATOM      7  C   UNL     1     -10.508  15.618  66.759  0.00  0.00    +0.047 C 
BRANCH   7   8
ATOM      8  C   UNL     1     -10.189  14.945  65.354  0.00  0.00    +0.139 C 
ATOM      9  C   UNL     1     -11.492  15.448  64.660  0.00  0.00    +0.259 C 
ATOM     10  O   UNL     1     -11.439  16.641  64.224  0.00  0.00    -0.272 OA
ATOM     11  N   UNL     1     -11.983  14.393  63.860  0.00  0.00    -0.135 NA
ATOM     12  C   UNL     1     -12.364  13.332  64.742  0.00  0.00    +0.299 C 
ATOM     13  O   UNL     1     -13.314  12.522  64.687  0.00  0.00    -0.261 OA
ATOM     14  S   UNL     1     -10.921  13.246  65.816  0.00  0.00    -0.046 S 
ENDBRANCH   7   8
ENDBRANCH   4   7
BRANCH   1  15
ATOM     15  O   UNL     1      -5.589  17.246  68.753  0.00  0.00    -0.474 OA
BRANCH  15  16
ATOM     16  C   UNL     1      -5.147  18.489  68.246  0.00  0.00    +0.227 C 
BRANCH  16  17
ATOM     17  C   UNL     1      -5.988  19.595  68.853  0.00  0.00    +0.140 C 
BRANCH  17  19
ATOM     18  C   UNL     1      -6.230  20.787  67.244  0.00  0.00    +0.114 C 
ATOM     19  N   UNL     1      -6.617  20.309  67.741  0.00  0.00    -0.288 N 
BRANCH  19  20
ATOM     20  C   UNL     1      -8.017  20.013  67.603  0.00  0.00    +0.132 A 
ATOM     21  N   UNL     1      -8.757  19.753  68.689  0.00  0.00    -0.229 NA
ATOM     22  C   UNL     1     -10.074  19.500  68.555  0.00  0.00    +0.100 A 
ATOM     23  C   UNL     1     -10.562  19.358  67.266  0.00  0.00    +0.021 A 
ATOM     24  C   UNL     1      -9.780  19.490  66.149  0.00  0.00    +0.004 A 
ATOM     25  C   UNL     1      -8.463  19.836  66.314  0.00  0.00    +0.034 A 
ENDBRANCH  19  20
ENDBRANCH  17  19
ENDBRANCH  16  17
ENDBRANCH  15  16
ENDBRANCH   1  15
TORSDOF 7
ENDMDL
MODEL 3
REMARK VINA RESULT:      -6.8      4.612      8.618
REMARK  Name = 
REMARK  7 active torsions:
REMARK  status: ('A' for Active; 'I' for Inactive)
REMARK    1  A    between atoms: N_2  and  C_3
REMARK    2  A    between atoms: N_2  and  C_20
REMARK    3  A    between atoms: C_3  and  C_4
REMARK    4  A    between atoms: C_4  and  O_5
REMARK    5  A    between atoms: O_5  and  C_6
REMARK    6  A    between atoms: C_9  and  C_10
REMARK    7  A    between atoms: C_10  and  C_11
REMARK                            x       y       z     vdW  Elec       q    Type
REMARK                         _______ _______ _______ _____ _____    ______ ____
ROOT
ATOM      1  C   UNL     1     -11.875  11.764  69.685  0.00  0.00    +0.139 A 
ATOM      2  C   UNL     1     -12.486  11.872  70.927  0.00  0.00    +0.037 A 
ATOM      3  C   UNL     1     -12.859  10.666  71.508  0.00  0.00    -0.001 A 
ATOM      4  C   UNL     1     -12.005   9.593  71.282  0.00  0.00    -0.021 A 
ATOM      5  C   UNL     1     -10.889   9.755  70.469  0.00  0.00    -0.001 A 
ATOM      6  C   UNL     1     -10.902  10.792  69.550  0.00  0.00    +0.037 A 
ENDROOT
BRANCH   4   7
ATOM      7  C   UNL     1     -11.956   8.411  72.201  0.00  0.00    +0.047 C 
BRANCH   7   8
ATOM      8  C   UNL     1     -10.638   7.593  71.852  0.00  0.00    +0.139 C 
ATOM      9  C   UNL     1     -11.389   6.296  71.420  0.00  0.00    +0.259 C 
ATOM     10  O   UNL     1     -11.830   6.305  70.229  0.00  0.00    -0.272 OA
ATOM     11  N   UNL     1     -10.665   5.196  71.929  0.00  0.00    -0.135 NA
ATOM     12  C   UNL     1     -10.735   5.262  73.357  0.00  0.00    +0.299 C 
ATOM     13  O   UNL     1     -10.826   4.359  74.216  0.00  0.00    -0.261 OA
ATOM     14  S   UNL     1     -10.337   6.996  73.638  0.00  0.00    -0.046 S 
ENDBRANCH   7   8
ENDBRANCH   4   7
BRANCH   1  15
ATOM     15  O   UNL     1     -11.956  12.731  68.714  0.00  0.00    -0.474 OA
BRANCH  15  16
ATOM     16  C   UNL     1     -11.007  13.777  68.662  0.00  0.00    +0.227 C 
BRANCH  16  17
ATOM     17  C   UNL     1     -11.737  15.094  68.481  0.00  0.00    +0.140 C 
BRANCH  17  19
ATOM     18  C   UNL     1     -10.882  16.525  69.618  0.00  0.00    +0.114 C 
ATOM     19  N   UNL     1     -11.400  15.928  69.636  0.00  0.00    -0.288 N 
BRANCH  19  20
ATOM     20  C   UNL     1     -12.152  15.587  70.813  0.00  0.00    +0.132 A 
ATOM     21  N   UNL     1     -13.491  15.573  70.771  0.00  0.00    -0.229 NA
ATOM     22  C   UNL     1     -14.190  15.228  71.872  0.00  0.00    +0.100 A 
ATOM     23  C   UNL     1     -13.476  15.068  73.048  0.00  0.00    +0.021 A 
ATOM     24  C   UNL     1     -12.116  15.213  73.127  0.00  0.00    +0.004 A 
ATOM     25  C   UNL     1     -11.422  15.475  71.973  0.00  0.00    +0.034 A 
ENDBRANCH  19  20
ENDBRANCH  17  19
ENDBRANCH  16  17
ENDBRANCH  15  16
ENDBRANCH   1  15
TORSDOF 7
ENDMDL
MODEL 4
REMARK VINA RESULT:      -6.6      6.123     10.253
REMARK  Name = 
REMARK  7 active torsions:
REMARK  status: ('A' for Active; 'I' for Inactive)
REMARK    1  A    between atoms: N_2  and  C_3
REMARK    2  A    between atoms: N_2  and  C_20
REMARK    3  A    between atoms: C_3  and  C_4
REMARK    4  A    between atoms: C_4  and  O_5
REMARK    5  A    between atoms: O_5  and  C_6
REMARK    6  A    between atoms: C_9  and  C_10
REMARK    7  A    between atoms: C_10  and  C_11
REMARK                            x       y       z     vdW  Elec       q    Type
REMARK                         _______ _______ _______ _____ _____    ______ ____
ROOT
ATOM      1  C   UNL     1      -8.185  20.161  67.075  0.00  0.00    +0.139 A 
ATOM      2  C   UNL     1      -7.865  19.185  66.139  0.00  0.00    +0.037 A 
ATOM      3  C   UNL     1      -8.342  17.912  66.428  0.00  0.00    -0.001 A 
ATOM      4  C   UNL     1      -9.586  17.855  67.044  0.00  0.00    -0.021 A 
ATOM      5  C   UNL     1     -10.247  19.030  67.383  0.00  0.00    -0.001 A 
ATOM      6  C   UNL     1      -9.486  20.179  67.539  0.00  0.00    +0.037 A 
ENDROOT
BRANCH   4   7
ATOM      7  C   UNL     1     -10.455  16.637  66.965  0.00  0.00    +0.047 C 
BRANCH   7   8
ATOM      8  C   UNL     1      -9.865  15.707  65.819  0.00  0.00    +0.139 C 
ATOM      9  C   UNL     1     -11.170  15.691  64.966  0.00  0.00    +0.259 C 
ATOM     10  O   UNL     1     -11.331  16.702  64.214  0.00  0.00    -0.272 OA
ATOM     11  N   UNL     1     -11.345  14.377  64.479  0.00  0.00    -0.135 NA
ATOM     12  C   UNL     1     -11.577  13.531  65.611  0.00  0.00    +0.299 C 
ATOM     13  O   UNL     1     -12.323  12.539  65.753  0.00  0.00    -0.261 OA
ATOM     14  S   UNL     1     -10.261  14.071  66.716  0.00  0.00    -0.046 S 
ENDBRANCH   7   8
ENDBRANCH   4   7
BRANCH   1  15
ATOM     15  O   UNL     1      -7.399  21.258  67.325  0.00  0.00    -0.474 OA
BRANCH  15  16
ATOM     16  C   UNL     1      -5.990  21.153  67.288  0.00  0.00    +0.227 C 
BRANCH  16  17
ATOM     17  C   UNL     1      -5.483  20.846  68.684  0.00  0.00    +0.140 C 
BRANCH  17  19
ATOM     18  C   UNL     1      -3.667  19.986  68.504  0.00  0.00    +0.114 C 
ATOM     19  N   UNL     1      -4.441  19.827  68.542  0.00  0.00    -0.288 N 
BRANCH  19  20
ATOM     20  C   UNL     1      -4.962  18.488  68.530  0.00  0.00    +0.132 A 
ATOM     21  N   UNL     1      -4.615  17.643  67.550  0.00  0.00    -0.229 NA
ATOM     22  C   UNL     1      -5.087  16.380  67.558  0.00  0.00    +0.100 A 
ATOM     23  C   UNL     1      -6.053  16.074  68.503  0.00  0.00    +0.021 A 
ATOM     24  C   UNL     1      -6.512  16.975  69.427  0.00  0.00    +0.004 A 
ATOM     25  C   UNL     1      -5.948  18.225  69.452  0.00  0.00    +0.034 A 
ENDBRANCH  19  20
ENDBRANCH  17  19
ENDBRANCH  16  17
ENDBRANCH  15  16
ENDBRANCH   1  15
TORSDOF 7
ENDMDL
MODEL 5
REMARK VINA RESULT:      -6.6      1.529      3.197
REMARK  Name = 
REMARK  7 active torsions:
REMARK  status: ('A' for Active; 'I' for Inactive)
REMARK    1  A    between atoms: N_2  and  C_3
REMARK    2  A    between atoms: N_2  and  C_20
REMARK    3  A    between atoms: C_3  and  C_4
REMARK    4  A    between atoms: C_4  and  O_5
REMARK    5  A    between atoms: O_5  and  C_6
REMARK    6  A    between atoms: C_9  and  C_10
REMARK    7  A    between atoms: C_10  and  C_11
REMARK                            x       y       z     vdW  Elec       q    Type
REMARK                         _______ _______ _______ _____ _____    ______ ____
ROOT
ATOM      1  C   UNL     1     -10.946  10.319  69.651  0.00  0.00    +0.139 A 
ATOM      2  C   UNL     1     -11.602  11.537  69.524  0.00  0.00    +0.037 A 
ATOM      3  C   UNL     1     -11.154  12.342  68.483  0.00  0.00    -0.001 A 
ATOM      4  C   UNL     1     -10.761  11.679  67.327  0.00  0.00    -0.021 A 
ATOM      5  C   UNL     1     -10.779  10.289  67.285  0.00  0.00    -0.001 A 
ATOM      6  C   UNL     1     -10.726   9.604  68.489  0.00  0.00    +0.037 A 
ENDROOT
BRANCH   4   7
ATOM      7  C   UNL     1     -10.747  12.355  65.990  0.00  0.00    +0.047 C 
BRANCH   7   8
ATOM      8  C   UNL     1     -12.202  12.946  65.742  0.00  0.00    +0.139 C 
ATOM      9  C   UNL     1     -12.047  13.054  64.194  0.00  0.00    +0.259 C 
ATOM     10  O   UNL     1     -12.257  11.974  63.559  0.00  0.00    -0.272 OA
ATOM     11  N   UNL     1     -12.636  14.272  63.791  0.00  0.00    -0.135 NA
ATOM     12  C   UNL     1     -11.860  15.331  64.363  0.00  0.00    +0.299 C 
ATOM     13  O   UNL     1     -11.547  16.453  63.911  0.00  0.00    -0.261 OA
ATOM     14  S   UNL     1     -11.701  14.758  66.063  0.00  0.00    -0.046 S 
ENDBRANCH   7   8
ENDBRANCH   4   7
BRANCH   1  15
ATOM     15  O   UNL     1     -10.787   9.665  70.847  0.00  0.00    -0.474 OA
BRANCH  15  16
ATOM     16  C   UNL     1     -11.891   9.461  71.704  0.00  0.00    +0.227 C 
BRANCH  16  17
ATOM     17  C   UNL     1     -11.728   8.127  72.407  0.00  0.00    +0.140 C 
BRANCH  17  19
ATOM     18  C   UNL     1     -13.169   7.116  71.422  0.00  0.00    +0.114 C 
ATOM     19  N   UNL     1     -12.393   7.124  71.573  0.00  0.00    -0.288 N 
BRANCH  19  20
ATOM     20  C   UNL     1     -11.481   6.172  71.003  0.00  0.00    +0.132 A 
ATOM     21  N   UNL     1     -10.700   5.432  71.802  0.00  0.00    -0.229 NA
ATOM     22  C   UNL     1      -9.863   4.522  71.263  0.00  0.00    +0.100 A 
ATOM     23  C   UNL     1      -9.737   4.521  69.883  0.00  0.00    +0.021 A 
ATOM     24  C   UNL     1     -10.434   5.369  69.064  0.00  0.00    +0.004 A 
ATOM     25  C   UNL     1     -11.344   6.222  69.636  0.00  0.00    +0.034 A 
ENDBRANCH  19  20
ENDBRANCH  17  19
ENDBRANCH  16  17
ENDBRANCH  15  16
ENDBRANCH   1  15
TORSDOF 7
ENDMDL
MODEL 6
REMARK VINA RESULT:      -6.5      3.771      9.156
REMARK  Name = 
REMARK  7 active torsions:
REMARK  status: ('A' for Active; 'I' for Inactive)
REMARK    1  A    between atoms: N_2  and  C_3
REMARK    2  A    between atoms: N_2  and  C_20
REMARK    3  A    between atoms: C_3  and  C_4
REMARK    4  A    between atoms: C_4  and  O_5
REMARK    5  A    between atoms: O_5  and  C_6
REMARK    6  A    between atoms: C_9  and  C_10
REMARK    7  A    between atoms: C_10  and  C_11
REMARK                            x       y       z     vdW  Elec       q    Type
REMARK                         _______ _______ _______ _____ _____    ______ ____
ROOT
ATOM      1  C   UNL     1     -11.764  13.116  67.801  0.00  0.00    +0.139 A 
ATOM      2  C   UNL     1     -11.527  13.660  69.057  0.00  0.00    +0.037 A 
ATOM      3  C   UNL     1     -12.037  12.928  70.123  0.00  0.00    -0.001 A 
ATOM      4  C   UNL     1     -12.002  11.546  69.983  0.00  0.00    -0.021 A 
ATOM      5  C   UNL     1     -11.529  10.980  68.805  0.00  0.00    -0.001 A 
ATOM      6  C   UNL     1     -11.551  11.758  67.658  0.00  0.00    +0.037 A 
ENDROOT
BRANCH   4   7
ATOM      7  C   UNL     1     -12.018  10.629  71.167  0.00  0.00    +0.047 C 
BRANCH   7   8
ATOM      8  C   UNL     1     -11.844   9.146  70.621  0.00  0.00    +0.139 C 
ATOM      9  C   UNL     1     -12.836   8.504  71.639  0.00  0.00    +0.259 C 
ATOM     10  O   UNL     1     -14.062   8.595  71.321  0.00  0.00    -0.272 OA
ATOM     11  N   UNL     1     -12.275   7.282  72.068  0.00  0.00    -0.135 NA
ATOM     12  C   UNL     1     -11.078   7.592  72.791  0.00  0.00    +0.299 C 
ATOM     13  O   UNL     1     -10.572   7.063  73.804  0.00  0.00    -0.261 OA
ATOM     14  S   UNL     1     -10.297   8.765  71.670  0.00  0.00    -0.046 S 
ENDBRANCH   7   8
ENDBRANCH   4   7
BRANCH   1  15
ATOM     15  O   UNL     1     -11.894  13.869  66.661  0.00  0.00    -0.474 OA
BRANCH  15  16
ATOM     16  C   UNL     1     -10.788  14.072  65.806  0.00  0.00    +0.227 C 
BRANCH  16  17
ATOM     17  C   UNL     1     -10.754  15.528  65.383  0.00  0.00    +0.140 C 
BRANCH  17  19
ATOM     18  C   UNL     1      -8.880  15.812  66.075  0.00  0.00    +0.114 C 
ATOM     19  N   UNL     1      -9.601  16.137  66.048  0.00  0.00    -0.288 N 
BRANCH  19  20
ATOM     20  C   UNL     1      -9.893  17.425  66.613  0.00  0.00    +0.132 A 
ATOM     21  N   UNL     1     -10.193  18.456  65.812  0.00  0.00    -0.229 NA
ATOM     22  C   UNL     1     -10.491  19.656  66.349  0.00  0.00    +0.100 A 
ATOM     23  C   UNL     1     -10.304  19.800  67.714  0.00  0.00    +0.021 A 
ATOM     24  C   UNL     1      -9.867  18.785  68.524  0.00  0.00    +0.004 A 
ATOM     25  C   UNL     1      -9.658  17.550  67.962  0.00  0.00    +0.034 A 
ENDBRANCH  19  20
ENDBRANCH  17  19
ENDBRANCH  16  17
ENDBRANCH  15  16
ENDBRANCH   1  15
TORSDOF 7
ENDMDL
MODEL 7
REMARK VINA RESULT:      -6.5      5.983      9.796
REMARK  Name = 
REMARK  7 active torsions:
REMARK  status: ('A' for Active; 'I' for Inactive)
REMARK    1  A    between atoms: N_2  and  C_3
REMARK    2  A    between atoms: N_2  and  C_20
REMARK    3  A    between atoms: C_3  and  C_4
REMARK    4  A    between atoms: C_4  and  O_5
REMARK    5  A    between atoms: O_5  and  C_6
REMARK    6  A    between atoms: C_9  and  C_10
REMARK    7  A    between atoms: C_10  and  C_11
REMARK                            x       y       z     vdW  Elec       q    Type
REMARK                         _______ _______ _______ _____ _____    ______ ____
ROOT
ATOM      1  C   UNL     1      -7.282  16.089  67.096  0.00  0.00    +0.139 A 
ATOM      2  C   UNL     1      -7.403  15.620  68.399  0.00  0.00    +0.037 A 
ATOM      3  C   UNL     1      -8.581  15.975  69.046  0.00  0.00    -0.001 A 
ATOM      4  C   UNL     1      -9.721  16.023  68.251  0.00  0.00    -0.021 A 
ATOM      5  C   UNL     1      -9.624  15.780  66.886  0.00  0.00    -0.001 A 
ATOM      6  C   UNL     1      -8.390  15.961  66.281  0.00  0.00    +0.037 A 
ENDROOT
BRANCH   4   7
ATOM      7  C   UNL     1     -11.096  15.879  68.826  0.00  0.00    +0.047 C 
BRANCH   7   8
ATOM      8  C   UNL     1     -10.977  14.956  70.115  0.00  0.00    +0.139 C 
ATOM      9  C   UNL     1     -12.279  14.148  69.828  0.00  0.00    +0.259 C 
ATOM     10  O   UNL     1     -12.145  13.195  68.998  0.00  0.00    -0.272 OA
ATOM     11  N   UNL     1     -12.946  13.964  71.059  0.00  0.00    -0.135 NA
ATOM     12  C   UNL     1     -13.352  15.257  71.521  0.00  0.00    +0.299 C 
ATOM     13  O   UNL     1     -14.381  15.624  72.127  0.00  0.00    -0.261 OA
ATOM     14  S   UNL     1     -11.834  16.196  71.285  0.00  0.00    -0.046 S 
ENDBRANCH   7   8
ENDBRANCH   4   7
BRANCH   1  15
ATOM     15  O   UNL     1      -6.077  16.376  66.504  0.00  0.00    -0.474 OA
BRANCH  15  16
ATOM     16  C   UNL     1      -5.461  17.631  66.708  0.00  0.00    +0.227 C 
BRANCH  16  17
ATOM     17  C   UNL     1      -6.110  18.652  65.794  0.00  0.00    +0.140 C 
BRANCH  17  19
ATOM     18  C   UNL     1      -6.230  20.306  66.944  0.00  0.00    +0.114 C 
ATOM     19  N   UNL     1      -6.655  19.705  66.653  0.00  0.00    -0.288 N 
BRANCH  19  20
ATOM     20  C   UNL     1      -8.067  19.570  66.881  0.00  0.00    +0.132 A 
ATOM     21  N   UNL     1      -8.915  19.562  65.844  0.00  0.00    -0.229 NA
ATOM     22  C   UNL     1     -10.237  19.410  66.063  0.00  0.00    +0.100 A 
ATOM     23  C   UNL     1     -10.666  19.440  67.380  0.00  0.00    +0.021 A 
ATOM     24  C   UNL     1      -9.815  19.583  68.444  0.00  0.00    +0.004 A 
ATOM     25  C   UNL     1      -8.467  19.645  68.195  0.00  0.00    +0.034 A 
ENDBRANCH  19  20
ENDBRANCH  17  19
ENDBRANCH  16  17
ENDBRANCH  15  16
ENDBRANCH   1  15
TORSDOF 7
ENDMDL
MODEL 8
REMARK VINA RESULT:      -6.5      1.614      2.688
REMARK  Name = 
REMARK  7 active torsions:
REMARK  status: ('A' for Active; 'I' for Inactive)
REMARK    1  A    between atoms: N_2  and  C_3
REMARK    2  A    between atoms: N_2  and  C_20
REMARK    3  A    between atoms: C_3  and  C_4
REMARK    4  A    between atoms: C_4  and  O_5
REMARK    5  A    between atoms: O_5  and  C_6
REMARK    6  A    between atoms: C_9  and  C_10
REMARK    7  A    between atoms: C_10  and  C_11
REMARK                            x       y       z     vdW  Elec       q    Type
REMARK                         _______ _______ _______ _____ _____    ______ ____
ROOT
ATOM      1  C   UNL     1     -10.411   8.891  67.662  0.00  0.00    +0.139 A 
ATOM      2  C   UNL     1     -11.247   9.938  68.029  0.00  0.00    +0.037 A 
ATOM      3  C   UNL     1     -10.901  11.179  67.509  0.00  0.00    -0.001 A 
ATOM      4  C   UNL     1     -10.372  11.174  66.224  0.00  0.00    -0.021 A 
ATOM      5  C   UNL     1     -10.168   9.968  65.563  0.00  0.00    -0.001 A 
ATOM      6  C   UNL     1     -10.044   8.821  66.332  0.00  0.00    +0.037 A 
ENDROOT
BRANCH   4   7
ATOM      7  C   UNL     1     -10.423  12.382  65.340  0.00  0.00    +0.047 C 
BRANCH   7   8
ATOM      8  C   UNL     1     -11.799  13.125  65.631  0.00  0.00    +0.139 C 
ATOM      9  C   UNL     1     -12.094  13.462  64.138  0.00  0.00    +0.259 C 
ATOM     10  O   UNL     1     -12.619  12.517  63.470  0.00  0.00    -0.272 OA
ATOM     11  N   UNL     1     -12.615  14.774  64.092  0.00  0.00    -0.135 NA
ATOM     12  C   UNL     1     -11.576  15.660  64.521  0.00  0.00    +0.299 C 
ATOM     13  O   UNL     1     -11.268  16.809  64.138  0.00  0.00    -0.261 OA
ATOM     14  S   UNL     1     -10.997  14.815  66.003  0.00  0.00    -0.046 S 
ENDBRANCH   7   8
ENDBRANCH   4   7
BRANCH   1  15
ATOM     15  O   UNL     1     -10.187   7.789  68.449  0.00  0.00    -0.474 OA
BRANCH  15  16
ATOM     16  C   UNL     1     -10.092   7.918  69.853  0.00  0.00    +0.227 C 
BRANCH  16  17
ATOM     17  C   UNL     1     -11.255   7.187  70.495  0.00  0.00    +0.140 C 
BRANCH  17  19
ATOM     18  C   UNL     1     -11.664   8.427  72.032  0.00  0.00    +0.114 C 
ATOM     19  N   UNL     1     -11.384   7.708  71.856  0.00  0.00    -0.288 N 
BRANCH  19  20
ATOM     20  C   UNL     1     -10.999   6.757  72.861  0.00  0.00    +0.132 A 
ATOM     21  N   UNL     1     -10.161   7.120  73.841  0.00  0.00    -0.229 NA
ATOM     22  C   UNL     1      -9.822   6.230  74.796  0.00  0.00    +0.100 A 
ATOM     23  C   UNL     1     -10.236   4.921  74.612  0.00  0.00    +0.021 A 
ATOM     24  C   UNL     1     -10.983   4.512  73.539  0.00  0.00    +0.004 A 
ATOM     25  C   UNL     1     -11.388   5.458  72.632  0.00  0.00    +0.034 A 
ENDBRANCH  19  20
ENDBRANCH  17  19
ENDBRANCH  16  17
ENDBRANCH  15  16
ENDBRANCH   1  15
TORSDOF 7
ENDMDL
MODEL 9
REMARK VINA RESULT:      -6.4      3.116      4.430
REMARK  Name = 
REMARK  7 active torsions:
REMARK  status: ('A' for Active; 'I' for Inactive)
REMARK    1  A    between atoms: N_2  and  C_3
REMARK    2  A    between atoms: N_2  and  C_20
REMARK    3  A    between atoms: C_3  and  C_4
REMARK    4  A    between atoms: C_4  and  O_5
REMARK    5  A    between atoms: O_5  and  C_6
REMARK    6  A    between atoms: C_9  and  C_10
REMARK    7  A    between atoms: C_10  and  C_11
REMARK                            x       y       z     vdW  Elec       q    Type
REMARK                         _______ _______ _______ _____ _____    ______ ____
ROOT
ATOM      1  C   UNL     1     -12.598  11.973  70.845  0.00  0.00    +0.139 A 
ATOM      2  C   UNL     1     -11.659  11.763  69.842  0.00  0.00    +0.037 A 
ATOM      3  C   UNL     1     -11.702  12.675  68.794  0.00  0.00    -0.001 A 
ATOM      4  C   UNL     1     -12.019  13.983  69.139  0.00  0.00    -0.021 A 
ATOM      5  C   UNL     1     -12.325  14.297  70.459  0.00  0.00    -0.001 A 
ATOM      6  C   UNL     1     -12.762  13.272  71.284  0.00  0.00    +0.037 A 
ENDROOT
BRANCH   4   7
ATOM      7  C   UNL     1     -11.624  15.147  68.284  0.00  0.00    +0.047 C 
BRANCH   7   8
ATOM      8  C   UNL     1     -10.575  14.616  67.214  0.00  0.00    +0.139 C 
ATOM      9  C   UNL     1      -9.992  16.022  66.880  0.00  0.00    +0.259 C 
ATOM     10  O   UNL     1      -9.113  16.444  67.694  0.00  0.00    -0.272 OA
ATOM     11  N   UNL     1      -9.788  16.079  65.483  0.00  0.00    -0.135 NA
ATOM     12  C   UNL     1     -11.076  16.004  64.862  0.00  0.00    +0.299 C 
ATOM     13  O   UNL     1     -11.528  16.566  63.842  0.00  0.00    -0.261 OA
ATOM     14  S   UNL     1     -11.808  14.623  65.758  0.00  0.00    -0.046 S 
ENDBRANCH   7   8
ENDBRANCH   4   7
BRANCH   1  15
ATOM     15  O   UNL     1     -13.127  10.964  71.610  0.00  0.00    -0.474 OA
BRANCH  15  16
ATOM     16  C   UNL     1     -12.946   9.612  71.239  0.00  0.00    +0.227 C 
BRANCH  16  17
ATOM     17  C   UNL     1     -12.557   8.813  72.467  0.00  0.00    +0.140 C 
BRANCH  17  19
ATOM     18  C   UNL     1     -10.719   8.524  71.688  0.00  0.00    +0.114 C 
ATOM     19  N   UNL     1     -11.249   8.217  72.188  0.00  0.00    -0.288 N 
BRANCH  19  20
ATOM     20  C   UNL     1     -10.995   7.032  72.960  0.00  0.00    +0.132 A 
ATOM     21  N   UNL     1     -10.156   7.079  74.002  0.00  0.00    -0.229 NA
ATOM     22  C   UNL     1      -9.941   5.969  74.738  0.00  0.00    +0.100 A 
ATOM     23  C   UNL     1     -10.480   4.784  74.264  0.00  0.00    +0.021 A 
ATOM     24  C   UNL     1     -11.231   4.704  73.121  0.00  0.00    +0.004 A 
ATOM     25  C   UNL     1     -11.508   5.865  72.444  0.00  0.00    +0.034 A 
ENDBRANCH  19  20
ENDBRANCH  17  19
ENDBRANCH  16  17
ENDBRANCH  15  16
ENDBRANCH   1  15
TORSDOF 7
ENDMDL
