MODEL 1
REMARK VINA RESULT:      -7.8      0.000      0.000
REMARK  Name = 
REMARK  5 active torsions:
REMARK  status: ('A' for Active; 'I' for Inactive)
REMARK    1  A    between atoms: C_3  and  C_5
REMARK    2  A    between atoms: C_10  and  S_11
REMARK    3  A    between atoms: S_11  and  C_12
REMARK    4  A    between atoms: C_16  and  C_17
REMARK    5  A    between atoms: C_18  and  C_19
REMARK                            x       y       z     vdW  Elec       q    Type
REMARK                         _______ _______ _______ _____ _____    ______ ____
ROOT
ATOM      1  C   UNL     1     -10.278  13.854  67.914  0.00  0.00    +0.031 A 
ATOM      2  C   UNL     1     -10.479  14.186  66.582  0.00  0.00    +0.027 A 
ATOM      3  C   UNL     1     -10.356  15.537  66.277  0.00  0.00    +0.105 A 
ATOM      4  C   UNL     1      -9.798  16.440  67.174  0.00  0.00    +0.039 A 
ATOM      5  C   UNL     1     -10.097  17.729  66.752  0.00  0.00    +0.104 A 
ATOM      6  N   UNL     1     -10.409  17.571  65.443  0.00  0.00    -0.148 NA
ATOM      7  C   UNL     1      -9.177  15.959  68.295  0.00  0.00    +0.004 A 
ATOM      8  N   UNL     1     -10.663  16.289  65.192  0.00  0.00    -0.148 NA
ATOM      9  C   UNL     1      -9.342  14.614  68.604  0.00  0.00    +0.007 A 
ENDROOT
BRANCH   5  10
ATOM     10  C   UNL     1     -10.474  18.837  67.640  0.00  0.00    +0.023 C 
ATOM     11  C   UNL     1      -9.704  19.919  67.560  0.00  0.00    +0.021 C 
BRANCH  11  12
ATOM     12  C   UNL     1      -8.264  19.676  67.721  0.00  0.00    +0.081 A 
ATOM     13  N   UNL     1      -7.789  19.277  68.925  0.00  0.00    -0.244 NA
ATOM     14  C   UNL     1      -6.655  19.751  69.460  0.00  0.00    +0.099 A 
ATOM     15  C   UNL     1      -5.882  20.694  68.797  0.00  0.00    +0.021 A 
ATOM     16  C   UNL     1      -6.182  20.892  67.460  0.00  0.00    +0.003 A 
ATOM     17  C   UNL     1      -7.376  20.408  66.943  0.00  0.00    +0.019 A 
ENDBRANCH  11  12
ENDBRANCH   5  10
BRANCH   1  18
ATOM     18  S   UNL     1     -11.128  12.473  68.686  0.00  0.00    -0.087 S 
BRANCH  18  20
ATOM     19  C   UNL     1     -12.536  12.283  71.022  0.00  0.00    +0.061 A 
ATOM     20  C   UNL     1     -12.296  13.052  69.893  0.00  0.00    +0.034 A 
ATOM     21  C   UNL     1     -12.451  14.429  70.002  0.00  0.00    +0.007 A 
ATOM     22  C   UNL     1     -13.018  15.016  71.126  0.00  0.00    +0.001 A 
ATOM     23  C   UNL     1     -13.580  14.176  72.061  0.00  0.00    +0.000 A 
ATOM     24  C   UNL     1     -13.211  12.857  72.077  0.00  0.00    +0.005 A 
BRANCH  19  27
ATOM     25  C   UNL     1     -13.242   8.553  71.462  0.00  0.00    +0.139 C 
ATOM     26  N   UNL     1     -13.448   9.928  71.022  0.00  0.00    -0.200 NA
ATOM     27  C   UNL     1     -12.345  10.835  70.908  0.00  0.00    +0.265 C 
ATOM     28  O   UNL     1     -11.193  10.325  70.942  0.00  0.00    -0.268 OA
ENDBRANCH  19  27
ENDBRANCH  18  20
ENDBRANCH   1  18
TORSDOF 5
ENDMDL
MODEL 2
REMARK VINA RESULT:      -7.7      2.316      2.720
REMARK  Name = 
REMARK  5 active torsions:
REMARK  status: ('A' for Active; 'I' for Inactive)
REMARK    1  A    between atoms: C_3  and  C_5
REMARK    2  A    between atoms: C_10  and  S_11
REMARK    3  A    between atoms: S_11  and  C_12
REMARK    4  A    between atoms: C_16  and  C_17
REMARK    5  A    between atoms: C_18  and  C_19
REMARK                            x       y       z     vdW  Elec       q    Type
REMARK                         _______ _______ _______ _____ _____    ______ ____
ROOT
ATOM      1  C   UNL     1     -10.100  13.362  65.687  0.00  0.00    +0.031 A 
ATOM      2  C   UNL     1     -10.556  14.225  64.700  0.00  0.00    +0.027 A 
ATOM      3  C   UNL     1     -10.555  15.574  65.039  0.00  0.00    +0.105 A 
ATOM      4  C   UNL     1      -9.887  16.044  66.164  0.00  0.00    +0.039 A 
ATOM      5  C   UNL     1     -10.320  17.337  66.430  0.00  0.00    +0.104 A 
ATOM      6  N   UNL     1     -10.855  17.742  65.254  0.00  0.00    -0.148 NA
ATOM      7  C   UNL     1      -9.051  15.195  66.838  0.00  0.00    +0.004 A 
ATOM      8  N   UNL     1     -11.089  16.686  64.478  0.00  0.00    -0.148 NA
ATOM      9  C   UNL     1      -9.093  13.845  66.511  0.00  0.00    +0.007 A 
ENDROOT
BRANCH   5  10
ATOM     10  C   UNL     1     -10.582  17.875  67.772  0.00  0.00    +0.023 C 
ATOM     11  C   UNL     1     -10.022  19.054  68.033  0.00  0.00    +0.021 C 
BRANCH  11  12
ATOM     12  C   UNL     1      -8.575  19.128  67.787  0.00  0.00    +0.081 A 
ATOM     13  N   UNL     1      -7.719  18.620  68.706  0.00  0.00    -0.244 NA
ATOM     14  C   UNL     1      -6.581  19.231  69.064  0.00  0.00    +0.099 A 
ATOM     15  C   UNL     1      -6.202  20.441  68.500  0.00  0.00    +0.021 A 
ATOM     16  C   UNL     1      -6.894  20.825  67.365  0.00  0.00    +0.003 A 
ATOM     17  C   UNL     1      -8.083  20.187  67.035  0.00  0.00    +0.019 A 
ENDBRANCH  11  12
ENDBRANCH   5  10
BRANCH   1  18
ATOM     18  S   UNL     1     -10.729  11.687  65.844  0.00  0.00    -0.087 S 
BRANCH  18  20
ATOM     19  C   UNL     1     -10.627  10.403  68.257  0.00  0.00    +0.061 A 
ATOM     20  C   UNL     1     -11.271  11.376  67.508  0.00  0.00    +0.034 A 
ATOM     21  C   UNL     1     -11.843  12.445  68.190  0.00  0.00    +0.007 A 
ATOM     22  C   UNL     1     -11.953  12.457  69.574  0.00  0.00    +0.001 A 
ATOM     23  C   UNL     1     -11.632  11.296  70.242  0.00  0.00    +0.000 A 
ATOM     24  C   UNL     1     -10.852  10.362  69.615  0.00  0.00    +0.005 A 
BRANCH  19  27
ATOM     25  C   UNL     1     -10.150   6.869  66.883  0.00  0.00    +0.139 C 
ATOM     26  N   UNL     1     -10.774   8.170  67.085  0.00  0.00    -0.200 NA
ATOM     27  C   UNL     1     -10.004   9.293  67.531  0.00  0.00    +0.265 C 
ATOM     28  O   UNL     1      -8.750   9.170  67.480  0.00  0.00    -0.268 OA
ENDBRANCH  19  27
ENDBRANCH  18  20
ENDBRANCH   1  18
TORSDOF 5
ENDMDL
MODEL 3
REMARK VINA RESULT:      -7.5      2.384      3.523
REMARK  Name = 
REMARK  5 active torsions:
REMARK  status: ('A' for Active; 'I' for Inactive)
REMARK    1  A    between atoms: C_3  and  C_5
REMARK    2  A    between atoms: C_10  and  S_11
REMARK    3  A    between atoms: S_11  and  C_12
REMARK    4  A    between atoms: C_16  and  C_17
REMARK    5  A    between atoms: C_18  and  C_19
REMARK                            x       y       z     vdW  Elec       q    Type
REMARK                         _______ _______ _______ _____ _____    ______ ____
ROOT
ATOM      1  C   UNL     1     -10.679  14.172  66.808  0.00  0.00    +0.031 A 
ATOM      2  C   UNL     1     -10.977  14.747  65.580  0.00  0.00    +0.027 A 
ATOM      3  C   UNL     1     -10.796  16.123  65.505  0.00  0.00    +0.105 A 
ATOM      4  C   UNL     1     -10.104  16.823  66.487  0.00  0.00    +0.039 A 
ATOM      5  C   UNL     1     -10.358  18.180  66.328  0.00  0.00    +0.104 A 
ATOM      6  N   UNL     1     -10.794  18.274  65.049  0.00  0.00    -0.148 NA
ATOM      7  C   UNL     1      -9.418  16.120  67.439  0.00  0.00    +0.004 A 
ATOM      8  N   UNL     1     -11.150  17.072  64.604  0.00  0.00    -0.148 NA
ATOM      9  C   UNL     1      -9.640  14.751  67.523  0.00  0.00    +0.007 A 
ENDROOT
BRANCH   5  10
ATOM     10  C   UNL     1     -10.583  19.126  67.429  0.00  0.00    +0.023 C 
ATOM     11  C   UNL     1      -9.847  20.234  67.387  0.00  0.00    +0.021 C 
BRANCH  11  12
ATOM     12  C   UNL     1      -8.399  20.019  67.261  0.00  0.00    +0.081 A 
ATOM     13  N   UNL     1      -7.858  19.852  66.031  0.00  0.00    -0.244 NA
ATOM     14  C   UNL     1      -6.909  18.945  65.763  0.00  0.00    +0.099 A 
ATOM     15  C   UNL     1      -6.411  18.107  66.751  0.00  0.00    +0.021 A 
ATOM     16  C   UNL     1      -6.726  18.452  68.054  0.00  0.00    +0.003 A 
ATOM     17  C   UNL     1      -7.731  19.379  68.297  0.00  0.00    +0.019 A 
ENDBRANCH  11  12
ENDBRANCH   5  10
BRANCH   1  18
ATOM     18  S   UNL     1     -11.544  12.715  67.406  0.00  0.00    -0.087 S 
BRANCH  18  20
ATOM     19  C   UNL     1     -10.895  10.074  67.689  0.00  0.00    +0.061 A 
ATOM     20  C   UNL     1     -10.652  11.239  66.977  0.00  0.00    +0.034 A 
ATOM     21  C   UNL     1     -10.245  11.116  65.654  0.00  0.00    +0.007 A 
ATOM     22  C   UNL     1      -9.893   9.890  65.106  0.00  0.00    +0.001 A 
ATOM     23  C   UNL     1      -9.797   8.819  65.966  0.00  0.00    +0.000 A 
ATOM     24  C   UNL     1     -10.427   8.883  67.181  0.00  0.00    +0.005 A 
BRANCH  19  27
ATOM     25  C   UNL     1     -11.112   9.411  71.447  0.00  0.00    +0.139 C 
ATOM     26  N   UNL     1     -10.523   9.805  70.173  0.00  0.00    -0.200 NA
ATOM     27  C   UNL     1     -11.350  10.210  69.075  0.00  0.00    +0.265 C 
ATOM     28  O   UNL     1     -12.556  10.460  69.343  0.00  0.00    -0.268 OA
ENDBRANCH  19  27
ENDBRANCH  18  20
ENDBRANCH   1  18
TORSDOF 5
ENDMDL
MODEL 4
REMARK VINA RESULT:      -7.5      3.779      5.895
REMARK  Name = 
REMARK  5 active torsions:
REMARK  status: ('A' for Active; 'I' for Inactive)
REMARK    1  A    between atoms: C_3  and  C_5
REMARK    2  A    between atoms: C_10  and  S_11
REMARK    3  A    between atoms: S_11  and  C_12
REMARK    4  A    between atoms: C_16  and  C_17
REMARK    5  A    between atoms: C_18  and  C_19
REMARK                            x       y       z     vdW  Elec       q    Type
REMARK                         _______ _______ _______ _____ _____    ______ ____
ROOT
ATOM      1  C   UNL     1      -9.873  10.441  68.635  0.00  0.00    +0.031 A 
ATOM      2  C   UNL     1     -10.990  10.721  67.860  0.00  0.00    +0.027 A 
ATOM      3  C   UNL     1     -11.213  12.069  67.601  0.00  0.00    +0.105 A 
ATOM      4  C   UNL     1     -10.243  13.032  67.854  0.00  0.00    +0.039 A 
ATOM      5  C   UNL     1     -10.840  14.286  67.813  0.00  0.00    +0.104 A 
ATOM      6  N   UNL     1     -11.983  14.072  67.119  0.00  0.00    -0.148 NA
ATOM      7  C   UNL     1      -8.977  12.625  68.176  0.00  0.00    +0.004 A 
ATOM      8  N   UNL     1     -12.253  12.769  67.087  0.00  0.00    -0.148 NA
ATOM      9  C   UNL     1      -8.780  11.281  68.469  0.00  0.00    +0.007 A 
ENDROOT
BRANCH   5  10
ATOM     10  C   UNL     1     -10.539  15.389  68.736  0.00  0.00    +0.023 C 
ATOM     11  C   UNL     1     -10.802  15.146  70.018  0.00  0.00    +0.021 C 
BRANCH  11  12
ATOM     12  C   UNL     1     -12.165  14.675  70.299  0.00  0.00    +0.081 A 
ATOM     13  N   UNL     1     -13.125  15.575  70.620  0.00  0.00    -0.244 NA
ATOM     14  C   UNL     1     -14.031  15.369  71.585  0.00  0.00    +0.099 A 
ATOM     15  C   UNL     1     -14.043  14.195  72.327  0.00  0.00    +0.021 A 
ATOM     16  C   UNL     1     -13.276  13.156  71.829  0.00  0.00    +0.003 A 
ATOM     17  C   UNL     1     -12.329  13.408  70.845  0.00  0.00    +0.019 A 
ENDBRANCH  11  12
ENDBRANCH   5  10
BRANCH   1  18
ATOM     18  S   UNL     1      -9.819   9.025  69.740  0.00  0.00    -0.087 S 
BRANCH  18  20
ATOM     19  C   UNL     1     -11.774   7.368  70.693  0.00  0.00    +0.061 A 
ATOM     20  C   UNL     1     -11.435   8.679  70.392  0.00  0.00    +0.034 A 
ATOM     21  C   UNL     1     -12.042   9.690  71.128  0.00  0.00    +0.007 A 
ATOM     22  C   UNL     1     -13.097   9.435  71.994  0.00  0.00    +0.001 A 
ATOM     23  C   UNL     1     -13.638   8.169  71.973  0.00  0.00    +0.000 A 
ATOM     24  C   UNL     1     -12.899   7.139  71.454  0.00  0.00    +0.005 A 
BRANCH  19  27
ATOM     25  C   UNL     1      -9.024   4.941  69.621  0.00  0.00    +0.139 C 
ATOM     26  N   UNL     1     -10.018   5.565  70.486  0.00  0.00    -0.200 NA
ATOM     27  C   UNL     1     -11.112   6.306  69.932  0.00  0.00    +0.265 C 
ATOM     28  O   UNL     1     -11.316   6.166  68.696  0.00  0.00    -0.268 OA
ENDBRANCH  19  27
ENDBRANCH  18  20
ENDBRANCH   1  18
TORSDOF 5
ENDMDL
MODEL 5
REMARK VINA RESULT:      -7.4      1.581      2.606
REMARK  Name = 
REMARK  5 active torsions:
REMARK  status: ('A' for Active; 'I' for Inactive)
REMARK    1  A    between atoms: C_3  and  C_5
REMARK    2  A    between atoms: C_10  and  S_11
REMARK    3  A    between atoms: S_11  and  C_12
REMARK    4  A    between atoms: C_16  and  C_17
REMARK    5  A    between atoms: C_18  and  C_19
REMARK                            x       y       z     vdW  Elec       q    Type
REMARK                         _______ _______ _______ _____ _____    ______ ____
ROOT
ATOM      1  C   UNL     1     -10.616  13.678  67.440  0.00  0.00    +0.031 A 
ATOM      2  C   UNL     1     -10.730  14.148  66.138  0.00  0.00    +0.027 A 
ATOM      3  C   UNL     1     -10.533  15.514  65.977  0.00  0.00    +0.105 A 
ATOM      4  C   UNL     1      -9.987  16.298  66.987  0.00  0.00    +0.039 A 
ATOM      5  C   UNL     1     -10.207  17.635  66.681  0.00  0.00    +0.104 A 
ATOM      6  N   UNL     1     -10.453  17.621  65.349  0.00  0.00    -0.148 NA
ATOM      7  C   UNL     1      -9.450  15.680  68.084  0.00  0.00    +0.004 A 
ATOM      8  N   UNL     1     -10.747  16.383  64.958  0.00  0.00    -0.148 NA
ATOM      9  C   UNL     1      -9.689  14.321  68.248  0.00  0.00    +0.007 A 
ENDROOT
BRANCH   5  10
ATOM     10  C   UNL     1     -10.585  18.668  67.656  0.00  0.00    +0.023 C 
ATOM     11  C   UNL     1      -9.860  19.783  67.614  0.00  0.00    +0.021 C 
BRANCH  11  12
ATOM     12  C   UNL     1      -8.406  19.588  67.697  0.00  0.00    +0.081 A 
ATOM     13  N   UNL     1      -7.856  19.187  68.868  0.00  0.00    -0.244 NA
ATOM     14  C   UNL     1      -6.713  19.691  69.353  0.00  0.00    +0.099 A 
ATOM     15  C   UNL     1      -6.008  20.672  68.668  0.00  0.00    +0.021 A 
ATOM     16  C   UNL     1      -6.383  20.880  67.352  0.00  0.00    +0.003 A 
ATOM     17  C   UNL     1      -7.585  20.363  66.888  0.00  0.00    +0.019 A 
ENDBRANCH  11  12
ENDBRANCH   5  10
BRANCH   1  18
ATOM     18  S   UNL     1     -11.566  12.270  68.025  0.00  0.00    -0.087 S 
BRANCH  18  20
ATOM     19  C   UNL     1     -11.190  10.534  70.104  0.00  0.00    +0.061 A 
ATOM     20  C   UNL     1     -10.575  11.244  69.083  0.00  0.00    +0.034 A 
ATOM     21  C   UNL     1      -9.417  10.709  68.530  0.00  0.00    +0.007 A 
ATOM     22  C   UNL     1      -8.772   9.617  69.094  0.00  0.00    +0.001 A 
ATOM     23  C   UNL     1      -9.221   9.183  70.322  0.00  0.00    +0.000 A 
ATOM     24  C   UNL     1     -10.480   9.534  70.731  0.00  0.00    +0.005 A 
BRANCH  19  27
ATOM     25  C   UNL     1     -13.454  12.874  72.105  0.00  0.00    +0.139 C 
ATOM     26  N   UNL     1     -12.502  12.458  71.083  0.00  0.00    -0.200 NA
ATOM     27  C   UNL     1     -12.424  11.090  70.665  0.00  0.00    +0.265 C 
ATOM     28  O   UNL     1     -13.375  10.340  71.017  0.00  0.00    -0.268 OA
ENDBRANCH  19  27
ENDBRANCH  18  20
ENDBRANCH   1  18
TORSDOF 5
ENDMDL
MODEL 6
REMARK VINA RESULT:      -7.3      2.934      4.848
REMARK  Name = 
REMARK  5 active torsions:
REMARK  status: ('A' for Active; 'I' for Inactive)
REMARK    1  A    between atoms: C_3  and  C_5
REMARK    2  A    between atoms: C_10  and  S_11
REMARK    3  A    between atoms: S_11  and  C_12
REMARK    4  A    between atoms: C_16  and  C_17
REMARK    5  A    between atoms: C_18  and  C_19
REMARK                            x       y       z     vdW  Elec       q    Type
REMARK                         _______ _______ _______ _____ _____    ______ ____
ROOT
ATOM      1  C   UNL     1     -11.716  14.110  65.893  0.00  0.00    +0.031 A 
ATOM      2  C   UNL     1     -12.138  14.342  67.195  0.00  0.00    +0.027 A 
ATOM      3  C   UNL     1     -11.316  15.170  67.951  0.00  0.00    +0.105 A 
ATOM      4  C   UNL     1     -10.310  15.931  67.367  0.00  0.00    +0.039 A 
ATOM      5  C   UNL     1      -9.462  16.391  68.367  0.00  0.00    +0.104 A 
ATOM      6  N   UNL     1     -10.209  16.282  69.492  0.00  0.00    -0.148 NA
ATOM      7  C   UNL     1     -10.257  16.019  66.002  0.00  0.00    +0.004 A 
ATOM      8  N   UNL     1     -11.244  15.476  69.269  0.00  0.00    -0.148 NA
ATOM      9  C   UNL     1     -11.058  15.158  65.262  0.00  0.00    +0.007 A 
ENDROOT
BRANCH   5  10
ATOM     10  C   UNL     1      -7.998  16.460  68.260  0.00  0.00    +0.023 C 
ATOM     11  C   UNL     1      -7.445  17.578  68.722  0.00  0.00    +0.021 C 
BRANCH  11  12
ATOM     12  C   UNL     1      -8.001  18.823  68.174  0.00  0.00    +0.081 A 
ATOM     13  N   UNL     1      -9.012  19.444  68.829  0.00  0.00    -0.244 NA
ATOM     14  C   UNL     1     -10.066  19.986  68.206  0.00  0.00    +0.099 A 
ATOM     15  C   UNL     1     -10.187  19.948  66.823  0.00  0.00    +0.021 A 
ATOM     16  C   UNL     1      -9.047  19.592  66.125  0.00  0.00    +0.003 A 
ATOM     17  C   UNL     1      -7.980  19.010  66.798  0.00  0.00    +0.019 A 
ENDBRANCH  11  12
ENDBRANCH   5  10
BRANCH   1  18
ATOM     18  S   UNL     1     -12.063  12.565  65.046  0.00  0.00    -0.087 S 
BRANCH  18  20
ATOM     19  C   UNL     1      -9.962  10.865  65.464  0.00  0.00    +0.061 A 
ATOM     20  C   UNL     1     -10.553  11.754  64.579  0.00  0.00    +0.034 A 
ATOM     21  C   UNL     1     -10.350  11.545  63.220  0.00  0.00    +0.007 A 
ATOM     22  C   UNL     1      -9.434  10.612  62.750  0.00  0.00    +0.001 A 
ATOM     23  C   UNL     1      -8.605  10.020  63.677  0.00  0.00    +0.000 A 
ATOM     24  C   UNL     1      -8.968  10.035  64.998  0.00  0.00    +0.005 A 
BRANCH  19  27
ATOM     25  C   UNL     1     -11.884  11.062  68.762  0.00  0.00    +0.139 C 
ATOM     26  N   UNL     1     -11.312  10.465  67.561  0.00  0.00    -0.200 NA
ATOM     27  C   UNL     1     -10.202  11.076  66.894  0.00  0.00    +0.265 C 
ATOM     28  O   UNL     1      -9.591  11.977  67.531  0.00  0.00    -0.268 OA
ENDBRANCH  19  27
ENDBRANCH  18  20
ENDBRANCH   1  18
TORSDOF 5
ENDMDL
MODEL 7
REMARK VINA RESULT:      -7.2      3.790      8.567
REMARK  Name = 
REMARK  5 active torsions:
REMARK  status: ('A' for Active; 'I' for Inactive)
REMARK    1  A    between atoms: C_3  and  C_5
REMARK    2  A    between atoms: C_10  and  S_11
REMARK    3  A    between atoms: S_11  and  C_12
REMARK    4  A    between atoms: C_16  and  C_17
REMARK    5  A    between atoms: C_18  and  C_19
REMARK                            x       y       z     vdW  Elec       q    Type
REMARK                         _______ _______ _______ _____ _____    ______ ____
ROOT
ATOM      1  C   UNL     1      -9.381  17.455  67.942  0.00  0.00    +0.031 A 
ATOM      2  C   UNL     1      -9.954  16.707  68.961  0.00  0.00    +0.027 A 
ATOM      3  C   UNL     1     -10.664  15.584  68.551  0.00  0.00    +0.105 A 
ATOM      4  C   UNL     1     -10.570  15.094  67.254  0.00  0.00    +0.039 A 
ATOM      5  C   UNL     1     -11.608  14.195  67.042  0.00  0.00    +0.104 A 
ATOM      6  N   UNL     1     -11.990  13.849  68.294  0.00  0.00    -0.148 NA
ATOM      7  C   UNL     1      -9.609  15.604  66.424  0.00  0.00    +0.004 A 
ATOM      8  N   UNL     1     -11.517  14.732  69.170  0.00  0.00    -0.148 NA
ATOM      9  C   UNL     1      -8.935  16.748  66.834  0.00  0.00    +0.007 A 
ENDROOT
BRANCH   5  10
ATOM     10  C   UNL     1     -12.386  14.091  65.801  0.00  0.00    +0.023 C 
ATOM     11  C   UNL     1     -12.392  12.888  65.230  0.00  0.00    +0.021 C 
BRANCH  11  12
ATOM     12  C   UNL     1     -11.066  12.305  64.986  0.00  0.00    +0.081 A 
ATOM     13  N   UNL     1     -10.479  12.474  63.777  0.00  0.00    -0.244 NA
ATOM     14  C   UNL     1      -9.816  11.499  63.140  0.00  0.00    +0.099 A 
ATOM     15  C   UNL     1      -9.684  10.233  63.695  0.00  0.00    +0.021 A 
ATOM     16  C   UNL     1     -10.010  10.122  65.035  0.00  0.00    +0.003 A 
ATOM     17  C   UNL     1     -10.719  11.141  65.659  0.00  0.00    +0.019 A 
ENDBRANCH  11  12
ENDBRANCH   5  10
BRANCH   1  18
ATOM     18  S   UNL     1      -9.164  19.233  68.080  0.00  0.00    -0.087 S 
BRANCH  18  20
ATOM     19  C   UNL     1      -6.443  19.386  67.848  0.00  0.00    +0.061 A 
ATOM     20  C   UNL     1      -7.659  19.743  67.284  0.00  0.00    +0.034 A 
ATOM     21  C   UNL     1      -7.708  19.914  65.906  0.00  0.00    +0.007 A 
ATOM     22  C   UNL     1      -6.558  19.932  65.128  0.00  0.00    +0.001 A 
ATOM     23  C   UNL     1      -5.349  19.945  65.788  0.00  0.00    +0.000 A 
ATOM     24  C   UNL     1      -5.301  19.530  67.093  0.00  0.00    +0.005 A 
BRANCH  19  27
ATOM     25  C   UNL     1      -5.679  20.094  71.525  0.00  0.00    +0.139 C 
ATOM     26  N   UNL     1      -6.262  20.283  70.202  0.00  0.00    -0.200 NA
ATOM     27  C   UNL     1      -6.405  19.181  69.298  0.00  0.00    +0.265 C 
ATOM     28  O   UNL     1      -6.257  18.029  69.789  0.00  0.00    -0.268 OA
ENDBRANCH  19  27
ENDBRANCH  18  20
ENDBRANCH   1  18
TORSDOF 5
ENDMDL
MODEL 8
REMARK VINA RESULT:      -7.2      3.335      8.296
REMARK  Name = 
REMARK  5 active torsions:
REMARK  status: ('A' for Active; 'I' for Inactive)
REMARK    1  A    between atoms: C_3  and  C_5
REMARK    2  A    between atoms: C_10  and  S_11
REMARK    3  A    between atoms: S_11  and  C_12
REMARK    4  A    between atoms: C_16  and  C_17
REMARK    5  A    between atoms: C_18  and  C_19
REMARK                            x       y       z     vdW  Elec       q    Type
REMARK                         _______ _______ _______ _____ _____    ______ ____
ROOT
ATOM      1  C   UNL     1      -8.413  16.587  67.266  0.00  0.00    +0.031 A 
ATOM      2  C   UNL     1      -9.346  16.200  66.314  0.00  0.00    +0.027 A 
ATOM      3  C   UNL     1     -10.382  15.401  66.783  0.00  0.00    +0.105 A 
ATOM      4  C   UNL     1     -10.621  15.239  68.143  0.00  0.00    +0.039 A 
ATOM      5  C   UNL     1     -11.479  14.161  68.319  0.00  0.00    +0.104 A 
ATOM      6  N   UNL     1     -12.058  14.013  67.103  0.00  0.00    -0.148 NA
ATOM      7  C   UNL     1      -9.952  16.038  69.030  0.00  0.00    +0.004 A 
ATOM      8  N   UNL     1     -11.347  14.661  66.184  0.00  0.00    -0.148 NA
ATOM      9  C   UNL     1      -8.895  16.801  68.550  0.00  0.00    +0.007 A 
ENDROOT
BRANCH   5  10
ATOM     10  C   UNL     1     -11.361  13.160  69.388  0.00  0.00    +0.023 C 
ATOM     11  C   UNL     1     -12.321  13.194  70.309  0.00  0.00    +0.021 C 
BRANCH  11  12
ATOM     12  C   UNL     1     -12.541  14.506  70.935  0.00  0.00    +0.081 A 
ATOM     13  N   UNL     1     -11.615  14.996  71.793  0.00  0.00    -0.244 NA
ATOM     14  C   UNL     1     -11.931  15.620  72.935  0.00  0.00    +0.099 A 
ATOM     15  C   UNL     1     -13.254  15.810  73.313  0.00  0.00    +0.021 A 
ATOM     16  C   UNL     1     -14.203  15.590  72.331  0.00  0.00    +0.003 A 
ATOM     17  C   UNL     1     -13.847  14.918  71.168  0.00  0.00    +0.019 A 
ENDBRANCH  11  12
ENDBRANCH   5  10
BRANCH   1  18
ATOM     18  S   UNL     1      -6.689  16.865  66.844  0.00  0.00    -0.087 S 
BRANCH  18  20
ATOM     19  C   UNL     1      -6.458  19.558  67.258  0.00  0.00    +0.061 A 
ATOM     20  C   UNL     1      -6.062  18.299  67.685  0.00  0.00    +0.034 A 
ATOM     21  C   UNL     1      -5.735  18.144  69.027  0.00  0.00    +0.007 A 
ATOM     22  C   UNL     1      -5.606  19.231  69.881  0.00  0.00    +0.001 A 
ATOM     23  C   UNL     1      -5.646  20.486  69.315  0.00  0.00    +0.000 A 
ATOM     24  C   UNL     1      -6.207  20.638  68.075  0.00  0.00    +0.005 A 
BRANCH  19  27
ATOM     25  C   UNL     1      -6.208  20.675  63.612  0.00  0.00    +0.139 C 
ATOM     26  N   UNL     1      -5.843  19.993  64.848  0.00  0.00    -0.200 NA
ATOM     27  C   UNL     1      -6.827  19.709  65.849  0.00  0.00    +0.265 C 
ATOM     28  O   UNL     1      -8.033  19.830  65.501  0.00  0.00    -0.268 OA
ENDBRANCH  19  27
ENDBRANCH  18  20
ENDBRANCH   1  18
TORSDOF 5
ENDMDL
MODEL 9
REMARK VINA RESULT:      -7.1      3.098      7.760
REMARK  Name = 
REMARK  5 active torsions:
REMARK  status: ('A' for Active; 'I' for Inactive)
REMARK    1  A    between atoms: C_3  and  C_5
REMARK    2  A    between atoms: C_10  and  S_11
REMARK    3  A    between atoms: S_11  and  C_12
REMARK    4  A    between atoms: C_16  and  C_17
REMARK    5  A    between atoms: C_18  and  C_19
REMARK                            x       y       z     vdW  Elec       q    Type
REMARK                         _______ _______ _______ _____ _____    ______ ____
ROOT
ATOM      1  C   UNL     1      -8.926  16.996  66.836  0.00  0.00    +0.031 A 
ATOM      2  C   UNL     1      -9.870  16.455  65.974  0.00  0.00    +0.027 A 
ATOM      3  C   UNL     1     -10.757  15.552  66.549  0.00  0.00    +0.105 A 
ATOM      4  C   UNL     1     -10.871  15.417  67.928  0.00  0.00    +0.039 A 
ATOM      5  C   UNL     1     -11.567  14.247  68.204  0.00  0.00    +0.104 A 
ATOM      6  N   UNL     1     -12.211  13.978  67.043  0.00  0.00    -0.148 NA
ATOM      7  C   UNL     1     -10.246  16.330  68.733  0.00  0.00    +0.004 A 
ATOM      8  N   UNL     1     -11.660  14.672  66.051  0.00  0.00    -0.148 NA
ATOM      9  C   UNL     1      -9.335  17.200  68.147  0.00  0.00    +0.007 A 
ENDROOT
BRANCH   5  10
ATOM     10  C   UNL     1     -11.241  13.314  69.291  0.00  0.00    +0.023 C 
ATOM     11  C   UNL     1     -12.133  13.255  70.278  0.00  0.00    +0.021 C 
BRANCH  11  12
ATOM     12  C   UNL     1     -12.489  14.548  70.878  0.00  0.00    +0.081 A 
ATOM     13  N   UNL     1     -11.605  15.165  71.698  0.00  0.00    -0.244 NA
ATOM     14  C   UNL     1     -11.962  15.779  72.834  0.00  0.00    +0.099 A 
ATOM     15  C   UNL     1     -13.288  15.824  73.245  0.00  0.00    +0.021 A 
ATOM     16  C   UNL     1     -14.229  15.469  72.294  0.00  0.00    +0.003 A 
ATOM     17  C   UNL     1     -13.827  14.812  71.138  0.00  0.00    +0.019 A 
ENDBRANCH  11  12
ENDBRANCH   5  10
BRANCH   1  18
ATOM     18  S   UNL     1      -7.289  17.471  66.271  0.00  0.00    -0.087 S 
BRANCH  18  20
ATOM     19  C   UNL     1      -5.561  18.689  68.006  0.00  0.00    +0.061 A 
ATOM     20  C   UNL     1      -6.682  18.855  67.205  0.00  0.00    +0.034 A 
ATOM     21  C   UNL     1      -6.918  20.119  66.677  0.00  0.00    +0.007 A 
ATOM     22  C   UNL     1      -6.192  21.231  67.082  0.00  0.00    +0.001 A 
ATOM     23  C   UNL     1      -5.341  21.073  68.153  0.00  0.00    +0.000 A 
ATOM     24  C   UNL     1      -4.931  19.811  68.496  0.00  0.00    +0.005 A 
BRANCH  19  27
ATOM     25  C   UNL     1      -5.273  15.873  70.573  0.00  0.00    +0.139 C 
ATOM     26  N   UNL     1      -5.904  16.905  69.761  0.00  0.00    -0.200 NA
ATOM     27  C   UNL     1      -5.304  17.349  68.538  0.00  0.00    +0.265 C 
ATOM     28  O   UNL     1      -4.374  16.633  68.078  0.00  0.00    -0.268 OA
ENDBRANCH  19  27
ENDBRANCH  18  20
ENDBRANCH   1  18
TORSDOF 5
ENDMDL
