MODEL 1
REMARK VINA RESULT:      -6.1      0.000      0.000
REMARK  Name = 
REMARK  8 active torsions:
REMARK  status: ('A' for Active; 'I' for Inactive)
REMARK    1  A    between atoms: C_2  and  C_3
REMARK    2  A    between atoms: C_2  and  N_11
REMARK    3  A    between atoms: C_3  and  O_4
REMARK    4  A    between atoms: O_4  and  C_5
REMARK    5  A    between atoms: N_11  and  C_12
REMARK    6  A    between atoms: N_11  and  C_15
REMARK    7  A    between atoms: C_12  and  C_13
REMARK    8  A    between atoms: C_15  and  C_16
REMARK                            x       y       z     vdW  Elec       q    Type
REMARK                         _______ _______ _______ _____ _____    ______ ____
ROOT
ATOM      1  N   UNL     1     -11.190  14.983  67.072  0.00  0.00    -0.266 NA
ENDROOT
BRANCH   1   3
ATOM      2  C   UNL     1     -11.850  12.929  67.907  0.00  0.00    +0.021 C 
ATOM      3  C   UNL     1     -10.454  13.793  67.791  0.00  0.00    +0.102 C 
BRANCH   3   4
ATOM      4  C   UNL     1     -10.626  14.407  69.309  0.00  0.00    +0.221 C 
BRANCH   4   5
ATOM      5  O   UNL     1     -11.978  14.764  69.424  0.00  0.00    -0.474 OA
BRANCH   5   6
ATOM      6  C   UNL     1     -12.518  15.443  70.516  0.00  0.00    +0.139 A 
ATOM      7  C   UNL     1     -13.785  15.133  70.980  0.00  0.00    +0.037 A 
ATOM      8  C   UNL     1     -14.114  15.162  72.329  0.00  0.00    +0.003 A 
ATOM      9  C   UNL     1     -13.152  15.572  73.245  0.00  0.00    +0.000 A 
ATOM     10  C   UNL     1     -12.010  16.197  72.764  0.00  0.00    +0.003 A 
ATOM     11  C   UNL     1     -11.728  16.163  71.405  0.00  0.00    +0.037 A 
ENDBRANCH   5   6
ENDBRANCH   4   5
ENDBRANCH   3   4
ENDBRANCH   1   3
BRANCH   1  12
ATOM     12  C   UNL     1     -10.278  15.888  66.547  0.00  0.00    +0.099 C 
BRANCH  12  13
ATOM     13  C   UNL     1     -10.300  17.265  67.029  0.00  0.00    -0.006 A 
ATOM     14  C   UNL     1     -10.469  18.258  66.069  0.00  0.00    -0.003 A 
ATOM     15  C   UNL     1     -10.408  19.604  66.404  0.00  0.00    -0.000 A 
ATOM     16  C   UNL     1     -10.214  19.945  67.715  0.00  0.00    -0.000 A 
ATOM     17  C   UNL     1      -9.773  18.979  68.576  0.00  0.00    -0.000 A 
ATOM     18  C   UNL     1      -9.733  17.644  68.215  0.00  0.00    -0.003 A 
ENDBRANCH  12  13
ENDBRANCH   1  12
BRANCH   1  19
ATOM     19  C   UNL     1     -12.146  14.402  66.180  0.00  0.00    +0.090 C 
BRANCH  19  20
ATOM     20  C   UNL     1     -11.625  14.645  64.767  0.00  0.00    +0.112 C 
ATOM     21 CL   UNL     1     -12.029  13.239  63.737  0.00  0.00    -0.112 Cl
ENDBRANCH  19  20
ENDBRANCH   1  19
TORSDOF 8
ENDMDL
MODEL 2
REMARK VINA RESULT:      -6.0      2.610      6.388
REMARK  Name = 
REMARK  8 active torsions:
REMARK  status: ('A' for Active; 'I' for Inactive)
REMARK    1  A    between atoms: C_2  and  C_3
REMARK    2  A    between atoms: C_2  and  N_11
REMARK    3  A    between atoms: C_3  and  O_4
REMARK    4  A    between atoms: O_4  and  C_5
REMARK    5  A    between atoms: N_11  and  C_12
REMARK    6  A    between atoms: N_11  and  C_15
REMARK    7  A    between atoms: C_12  and  C_13
REMARK    8  A    between atoms: C_15  and  C_16
REMARK                            x       y       z     vdW  Elec       q    Type
REMARK                         _______ _______ _______ _____ _____    ______ ____
ROOT
ATOM      1  N   UNL     1     -11.059  16.033  68.460  0.00  0.00    -0.266 NA
ENDROOT
BRANCH   1   3
ATOM      2  C   UNL     1     -10.457  15.728  66.248  0.00  0.00    +0.021 C 
ATOM      3  C   UNL     1     -10.504  14.823  67.622  0.00  0.00    +0.102 C 
BRANCH   3   4
ATOM      4  C   UNL     1     -11.984  14.209  67.249  0.00  0.00    +0.221 C 
BRANCH   4   5
ATOM      5  O   UNL     1     -11.804  12.821  67.136  0.00  0.00    -0.474 OA
BRANCH   5   6
ATOM      6  C   UNL     1     -11.701  12.141  65.923  0.00  0.00    +0.139 A 
ATOM      7  C   UNL     1     -12.391  12.586  64.807  0.00  0.00    +0.037 A 
ATOM      8  C   UNL     1     -11.869  12.500  63.524  0.00  0.00    +0.003 A 
ATOM      9  C   UNL     1     -10.632  11.893  63.342  0.00  0.00    +0.000 A 
ATOM     10  C   UNL     1     -10.100  11.156  64.390  0.00  0.00    +0.003 A 
ATOM     11  C   UNL     1     -10.664  11.255  65.656  0.00  0.00    +0.037 A 
ENDBRANCH   5   6
ENDBRANCH   4   5
ENDBRANCH   3   4
ENDBRANCH   1   3
BRANCH   1  12
ATOM     12  C   UNL     1     -10.707  15.914  69.798  0.00  0.00    +0.099 C 
BRANCH  12  13
ATOM     13  C   UNL     1     -11.709  15.440  70.747  0.00  0.00    -0.006 A 
ATOM     14  C   UNL     1     -11.847  16.172  71.923  0.00  0.00    -0.003 A 
ATOM     15  C   UNL     1     -12.700  15.756  72.935  0.00  0.00    -0.000 A 
ATOM     16  C   UNL     1     -13.441  14.621  72.744  0.00  0.00    -0.000 A 
ATOM     17  C   UNL     1     -13.084  13.780  71.727  0.00  0.00    -0.000 A 
ATOM     18  C   UNL     1     -12.156  14.148  70.769  0.00  0.00    -0.003 A 
ENDBRANCH  12  13
ENDBRANCH   1  12
BRANCH   1  19
ATOM     19  C   UNL     1     -10.677  17.227  67.771  0.00  0.00    +0.090 C 
BRANCH  19  20
ATOM     20  C   UNL     1      -9.946  18.099  68.786  0.00  0.00    +0.112 C 
ATOM     21 CL   UNL     1     -10.022  19.808  68.263  0.00  0.00    -0.112 Cl
ENDBRANCH  19  20
ENDBRANCH   1  19
TORSDOF 8
ENDMDL
MODEL 3
REMARK VINA RESULT:      -6.0      1.161      1.621
REMARK  Name = 
REMARK  8 active torsions:
REMARK  status: ('A' for Active; 'I' for Inactive)
REMARK    1  A    between atoms: C_2  and  C_3
REMARK    2  A    between atoms: C_2  and  N_11
REMARK    3  A    between atoms: C_3  and  O_4
REMARK    4  A    between atoms: O_4  and  C_5
REMARK    5  A    between atoms: N_11  and  C_12
REMARK    6  A    between atoms: N_11  and  C_15
REMARK    7  A    between atoms: C_12  and  C_13
REMARK    8  A    between atoms: C_15  and  C_16
REMARK                            x       y       z     vdW  Elec       q    Type
REMARK                         _______ _______ _______ _____ _____    ______ ____
ROOT
ATOM      1  N   UNL     1     -10.171  15.312  66.576  0.00  0.00    -0.266 NA
ENDROOT
BRANCH   1   3
ATOM      2  C   UNL     1     -10.053  13.650  68.181  0.00  0.00    +0.021 C 
ATOM      3  C   UNL     1     -10.177  15.291  68.149  0.00  0.00    +0.102 C 
BRANCH   3   4
ATOM      4  C   UNL     1     -11.816  15.239  68.291  0.00  0.00    +0.221 C 
BRANCH   4   5
ATOM      5  O   UNL     1     -12.130  16.058  69.387  0.00  0.00    -0.474 OA
BRANCH   5   6
ATOM      6  C   UNL     1     -12.422  15.580  70.663  0.00  0.00    +0.139 A 
ATOM      7  C   UNL     1     -11.669  15.983  71.754  0.00  0.00    +0.037 A 
ATOM      8  C   UNL     1     -12.225  16.185  73.010  0.00  0.00    +0.003 A 
ATOM      9  C   UNL     1     -13.576  15.919  73.197  0.00  0.00    +0.000 A 
ATOM     10  C   UNL     1     -14.248  15.205  72.215  0.00  0.00    +0.003 A 
ATOM     11  C   UNL     1     -13.649  15.008  70.977  0.00  0.00    +0.037 A 
ENDBRANCH   5   6
ENDBRANCH   4   5
ENDBRANCH   3   4
ENDBRANCH   1   3
BRANCH   1  12
ATOM     12  C   UNL     1      -9.238  16.219  66.094  0.00  0.00    +0.099 C 
BRANCH  12  13
ATOM     13  C   UNL     1      -9.290  17.598  66.569  0.00  0.00    -0.006 A 
ATOM     14  C   UNL     1     -10.379  18.359  66.153  0.00  0.00    -0.003 A 
ATOM     15  C   UNL     1     -10.479  19.707  66.467  0.00  0.00    -0.000 A 
ATOM     16  C   UNL     1      -9.497  20.277  67.232  0.00  0.00    -0.000 A 
ATOM     17  C   UNL     1      -8.320  19.599  67.384  0.00  0.00    -0.000 A 
ATOM     18  C   UNL     1      -8.180  18.283  66.980  0.00  0.00    -0.003 A 
ENDBRANCH  12  13
ENDBRANCH   1  12
BRANCH   1  19
ATOM     19  C   UNL     1     -10.068  13.951  66.142  0.00  0.00    +0.090 C 
BRANCH  19  20
ATOM     20  C   UNL     1     -10.467  13.933  64.671  0.00  0.00    +0.112 C 
ATOM     21 CL   UNL     1     -12.222  14.253  64.530  0.00  0.00    -0.112 Cl
ENDBRANCH  19  20
ENDBRANCH   1  19
TORSDOF 8
ENDMDL
MODEL 4
REMARK VINA RESULT:      -6.0      2.752      5.137
REMARK  Name = 
REMARK  8 active torsions:
REMARK  status: ('A' for Active; 'I' for Inactive)
REMARK    1  A    between atoms: C_2  and  C_3
REMARK    2  A    between atoms: C_2  and  N_11
REMARK    3  A    between atoms: C_3  and  O_4
REMARK    4  A    between atoms: O_4  and  C_5
REMARK    5  A    between atoms: N_11  and  C_12
REMARK    6  A    between atoms: N_11  and  C_15
REMARK    7  A    between atoms: C_12  and  C_13
REMARK    8  A    between atoms: C_15  and  C_16
REMARK                            x       y       z     vdW  Elec       q    Type
REMARK                         _______ _______ _______ _____ _____    ______ ____
ROOT
ATOM      1  N   UNL     1     -10.999  15.448  68.689  0.00  0.00    -0.266 NA
ENDROOT
BRANCH   1   3
ATOM      2  C   UNL     1     -10.251  14.601  66.670  0.00  0.00    +0.021 C 
ATOM      3  C   UNL     1     -10.375  14.080  68.226  0.00  0.00    +0.102 C 
BRANCH   3   4
ATOM      4  C   UNL     1     -11.820  13.347  67.938  0.00  0.00    +0.221 C 
BRANCH   4   5
ATOM      5  O   UNL     1     -11.635  11.995  68.270  0.00  0.00    -0.474 OA
BRANCH   5   6
ATOM      6  C   UNL     1     -11.558  11.514  69.577  0.00  0.00    +0.139 A 
ATOM      7  C   UNL     1     -12.413  11.995  70.554  0.00  0.00    +0.037 A 
ATOM      8  C   UNL     1     -12.920  11.190  71.565  0.00  0.00    +0.003 A 
ATOM      9  C   UNL     1     -12.513   9.863  71.634  0.00  0.00    +0.000 A 
ATOM     10  C   UNL     1     -11.417   9.472  70.877  0.00  0.00    +0.003 A 
ATOM     11  C   UNL     1     -10.927  10.315  69.888  0.00  0.00    +0.037 A 
ENDBRANCH   5   6
ENDBRANCH   4   5
ENDBRANCH   3   4
ENDBRANCH   1   3
BRANCH   1  12
ATOM     12  C   UNL     1     -10.735  15.688  70.030  0.00  0.00    +0.099 C 
BRANCH  12  13
ATOM     13  C   UNL     1     -11.843  15.654  70.979  0.00  0.00    -0.006 A 
ATOM     14  C   UNL     1     -11.515  15.411  72.310  0.00  0.00    -0.003 A 
ATOM     15  C   UNL     1     -12.497  15.262  73.279  0.00  0.00    -0.000 A 
ATOM     16  C   UNL     1     -13.808  15.396  72.910  0.00  0.00    -0.000 A 
ATOM     17  C   UNL     1     -14.114  15.349  71.579  0.00  0.00    -0.000 A 
ATOM     18  C   UNL     1     -13.132  15.393  70.604  0.00  0.00    -0.003 A 
ENDBRANCH  12  13
ENDBRANCH   1  12
BRANCH   1  19
ATOM     19  C   UNL     1     -10.587  16.436  67.738  0.00  0.00    +0.090 C 
BRANCH  19  20
ATOM     20  C   UNL     1     -10.182  17.668  68.541  0.00  0.00    +0.112 C 
ATOM     21 CL   UNL     1     -10.471  19.135  67.559  0.00  0.00    -0.112 Cl
ENDBRANCH  19  20
ENDBRANCH   1  19
TORSDOF 8
ENDMDL
MODEL 5
REMARK VINA RESULT:      -5.9      2.218      5.792
REMARK  Name = 
REMARK  8 active torsions:
REMARK  status: ('A' for Active; 'I' for Inactive)
REMARK    1  A    between atoms: C_2  and  C_3
REMARK    2  A    between atoms: C_2  and  N_11
REMARK    3  A    between atoms: C_3  and  O_4
REMARK    4  A    between atoms: O_4  and  C_5
REMARK    5  A    between atoms: N_11  and  C_12
REMARK    6  A    between atoms: N_11  and  C_15
REMARK    7  A    between atoms: C_12  and  C_13
REMARK    8  A    between atoms: C_15  and  C_16
REMARK                            x       y       z     vdW  Elec       q    Type
REMARK                         _______ _______ _______ _____ _____    ______ ____
ROOT
ATOM      1  N   UNL     1     -11.107  14.178  69.040  0.00  0.00    -0.266 NA
ENDROOT
BRANCH   1   3
ATOM      2  C   UNL     1      -9.065  15.258  69.157  0.00  0.00    +0.021 C 
ATOM      3  C   UNL     1      -9.925  14.421  68.031  0.00  0.00    +0.102 C 
BRANCH   3   4
ATOM      4  C   UNL     1     -10.558  15.799  67.390  0.00  0.00    +0.221 C 
BRANCH   4   5
ATOM      5  O   UNL     1      -9.530  16.369  66.622  0.00  0.00    -0.474 OA
BRANCH   5   6
ATOM      6  C   UNL     1      -9.349  17.741  66.453  0.00  0.00    +0.139 A 
ATOM      7  C   UNL     1     -10.415  18.553  66.102  0.00  0.00    +0.037 A 
ATOM      8  C   UNL     1     -10.557  19.847  66.582  0.00  0.00    +0.003 A 
ATOM      9  C   UNL     1      -9.565  20.372  67.402  0.00  0.00    +0.000 A 
ATOM     10  C   UNL     1      -8.353  19.699  67.480  0.00  0.00    +0.003 A 
ATOM     11  C   UNL     1      -8.247  18.412  66.969  0.00  0.00    +0.037 A 
ENDBRANCH   5   6
ENDBRANCH   4   5
ENDBRANCH   3   4
ENDBRANCH   1   3
BRANCH   1  12
ATOM     12  C   UNL     1     -11.773  15.363  69.322  0.00  0.00    +0.099 C 
BRANCH  12  13
ATOM     13  C   UNL     1     -12.397  15.521  70.632  0.00  0.00    -0.006 A 
ATOM     14  C   UNL     1     -11.541  15.551  71.729  0.00  0.00    -0.003 A 
ATOM     15  C   UNL     1     -12.032  15.601  73.026  0.00  0.00    -0.000 A 
ATOM     16  C   UNL     1     -13.387  15.658  73.212  0.00  0.00    -0.000 A 
ATOM     17  C   UNL     1     -14.199  15.344  72.158  0.00  0.00    -0.000 A 
ATOM     18  C   UNL     1     -13.701  15.191  70.876  0.00  0.00    -0.003 A 
ENDBRANCH  12  13
ENDBRANCH   1  12
BRANCH   1  19
ATOM     19  C   UNL     1     -11.875  13.085  68.525  0.00  0.00    +0.090 C 
BRANCH  19  20
ATOM     20  C   UNL     1     -11.469  11.853  69.328  0.00  0.00    +0.112 C 
ATOM     21 CL   UNL     1     -12.396  11.811  70.857  0.00  0.00    -0.112 Cl
ENDBRANCH  19  20
ENDBRANCH   1  19
TORSDOF 8
ENDMDL
MODEL 6
REMARK VINA RESULT:      -5.9      2.037      5.050
REMARK  Name = 
REMARK  8 active torsions:
REMARK  status: ('A' for Active; 'I' for Inactive)
REMARK    1  A    between atoms: C_2  and  C_3
REMARK    2  A    between atoms: C_2  and  N_11
REMARK    3  A    between atoms: C_3  and  O_4
REMARK    4  A    between atoms: O_4  and  C_5
REMARK    5  A    between atoms: N_11  and  C_12
REMARK    6  A    between atoms: N_11  and  C_15
REMARK    7  A    between atoms: C_12  and  C_13
REMARK    8  A    between atoms: C_15  and  C_16
REMARK                            x       y       z     vdW  Elec       q    Type
REMARK                         _______ _______ _______ _____ _____    ______ ____
ROOT
ATOM      1  N   UNL     1     -10.804  13.961  67.039  0.00  0.00    -0.266 NA
ENDROOT
BRANCH   1   3
ATOM      2  C   UNL     1     -11.099  13.329  64.833  0.00  0.00    +0.021 C 
ATOM      3  C   UNL     1     -11.486  14.617  65.783  0.00  0.00    +0.102 C 
BRANCH   3   4
ATOM      4  C   UNL     1     -10.151  15.456  65.309  0.00  0.00    +0.221 C 
BRANCH   4   5
ATOM      5  O   UNL     1     -10.511  16.811  65.373  0.00  0.00    -0.474 OA
BRANCH   5   6
ATOM      6  C   UNL     1      -9.893  17.747  66.202  0.00  0.00    +0.139 A 
ATOM      7  C   UNL     1     -10.481  18.979  66.432  0.00  0.00    +0.037 A 
ATOM      8  C   UNL     1     -10.405  19.626  67.658  0.00  0.00    +0.003 A 
ATOM      9  C   UNL     1      -9.663  19.044  68.678  0.00  0.00    +0.000 A 
ATOM     10  C   UNL     1      -8.808  17.999  68.356  0.00  0.00    +0.003 A 
ATOM     11  C   UNL     1      -8.903  17.392  67.111  0.00  0.00    +0.037 A 
ENDBRANCH   5   6
ENDBRANCH   4   5
ENDBRANCH   3   4
ENDBRANCH   1   3
BRANCH   1  12
ATOM     12  C   UNL     1     -11.756  13.488  67.932  0.00  0.00    +0.099 C 
BRANCH  12  13
ATOM     13  C   UNL     1     -11.962  14.211  69.183  0.00  0.00    -0.006 A 
ATOM     14  C   UNL     1     -11.405  15.483  69.266  0.00  0.00    -0.003 A 
ATOM     15  C   UNL     1     -11.458  16.219  70.442  0.00  0.00    -0.000 A 
ATOM     16  C   UNL     1     -12.107  15.683  71.522  0.00  0.00    -0.000 A 
ATOM     17  C   UNL     1     -12.389  14.346  71.509  0.00  0.00    -0.000 A 
ATOM     18  C   UNL     1     -12.241  13.581  70.364  0.00  0.00    -0.003 A 
ENDBRANCH  12  13
ENDBRANCH   1  12
BRANCH   1  19
ATOM     19  C   UNL     1      -9.829  13.035  66.547  0.00  0.00    +0.090 C 
BRANCH  19  20
ATOM     20  C   UNL     1      -8.974  12.630  67.743  0.00  0.00    +0.112 C 
ATOM     21 CL   UNL     1      -8.172  14.080  68.416  0.00  0.00    -0.112 Cl
ENDBRANCH  19  20
ENDBRANCH   1  19
TORSDOF 8
ENDMDL
MODEL 7
REMARK VINA RESULT:      -5.9      3.536      5.570
REMARK  Name = 
REMARK  8 active torsions:
REMARK  status: ('A' for Active; 'I' for Inactive)
REMARK    1  A    between atoms: C_2  and  C_3
REMARK    2  A    between atoms: C_2  and  N_11
REMARK    3  A    between atoms: C_3  and  O_4
REMARK    4  A    between atoms: O_4  and  C_5
REMARK    5  A    between atoms: N_11  and  C_12
REMARK    6  A    between atoms: N_11  and  C_15
REMARK    7  A    between atoms: C_12  and  C_13
REMARK    8  A    between atoms: C_15  and  C_16
REMARK                            x       y       z     vdW  Elec       q    Type
REMARK                         _______ _______ _______ _____ _____    ______ ____
ROOT
ATOM      1  N   UNL     1     -11.713  13.340  68.551  0.00  0.00    -0.266 NA
ENDROOT
BRANCH   1   3
ATOM      2  C   UNL     1     -11.397  11.749  66.901  0.00  0.00    +0.021 C 
ATOM      3  C   UNL     1     -10.818  12.054  68.411  0.00  0.00    +0.102 C 
BRANCH   3   4
ATOM      4  C   UNL     1     -11.907  11.037  69.110  0.00  0.00    +0.221 C 
BRANCH   4   5
ATOM      5  O   UNL     1     -11.324  10.626  70.319  0.00  0.00    -0.474 OA
BRANCH   5   6
ATOM      6  C   UNL     1     -11.856   9.641  71.150  0.00  0.00    +0.139 A 
ATOM      7  C   UNL     1     -13.043   9.861  71.829  0.00  0.00    +0.037 A 
ATOM      8  C   UNL     1     -13.974   8.855  72.049  0.00  0.00    +0.003 A 
ATOM      9  C   UNL     1     -13.683   7.565  71.621  0.00  0.00    +0.000 A 
ATOM     10  C   UNL     1     -12.378   7.275  71.251  0.00  0.00    +0.003 A 
ATOM     11  C   UNL     1     -11.470   8.309  71.061  0.00  0.00    +0.037 A 
ENDBRANCH   5   6
ENDBRANCH   4   5
ENDBRANCH   3   4
ENDBRANCH   1   3
BRANCH   1  12
ATOM     12  C   UNL     1     -11.193  14.207  69.503  0.00  0.00    +0.099 C 
BRANCH  12  13
ATOM     13  C   UNL     1     -12.011  14.548  70.661  0.00  0.00    -0.006 A 
ATOM     14  C   UNL     1     -11.620  15.665  71.392  0.00  0.00    -0.003 A 
ATOM     15  C   UNL     1     -12.268  16.023  72.566  0.00  0.00    -0.000 A 
ATOM     16  C   UNL     1     -13.335  15.273  72.980  0.00  0.00    -0.000 A 
ATOM     17  C   UNL     1     -13.518  14.042  72.417  0.00  0.00    -0.000 A 
ATOM     18  C   UNL     1     -12.801  13.636  71.305  0.00  0.00    -0.003 A 
ENDBRANCH  12  13
ENDBRANCH   1  12
BRANCH   1  19
ATOM     19  C   UNL     1     -11.924  13.845  67.229  0.00  0.00    +0.090 C 
BRANCH  19  20
ATOM     20  C   UNL     1     -11.152  15.157  67.138  0.00  0.00    +0.112 C 
ATOM     21 CL   UNL     1      -9.830  14.985  65.945  0.00  0.00    -0.112 Cl
ENDBRANCH  19  20
ENDBRANCH   1  19
TORSDOF 8
ENDMDL
MODEL 8
REMARK VINA RESULT:      -5.8      1.787      4.765
REMARK  Name = 
REMARK  8 active torsions:
REMARK  status: ('A' for Active; 'I' for Inactive)
REMARK    1  A    between atoms: C_2  and  C_3
REMARK    2  A    between atoms: C_2  and  N_11
REMARK    3  A    between atoms: C_3  and  O_4
REMARK    4  A    between atoms: O_4  and  C_5
REMARK    5  A    between atoms: N_11  and  C_12
REMARK    6  A    between atoms: N_11  and  C_15
REMARK    7  A    between atoms: C_12  and  C_13
REMARK    8  A    between atoms: C_15  and  C_16
REMARK                            x       y       z     vdW  Elec       q    Type
REMARK                         _______ _______ _______ _____ _____    ______ ____
ROOT
ATOM      1  N   UNL     1     -10.803  13.626  66.644  0.00  0.00    -0.266 NA
ENDROOT
BRANCH   1   3
ATOM      2  C   UNL     1      -8.668  14.491  66.852  0.00  0.00    +0.021 C 
ATOM      3  C   UNL     1      -9.742  14.205  65.638  0.00  0.00    +0.102 C 
BRANCH   3   4
ATOM      4  C   UNL     1     -10.315  15.746  65.687  0.00  0.00    +0.221 C 
BRANCH   4   5
ATOM      5  O   UNL     1      -9.182  16.572  65.754  0.00  0.00    -0.474 OA
BRANCH   5   6
ATOM      6  C   UNL     1      -9.155  17.815  66.386  0.00  0.00    +0.139 A 
ATOM      7  C   UNL     1     -10.220  18.691  66.258  0.00  0.00    +0.037 A 
ATOM      8  C   UNL     1     -10.636  19.517  67.293  0.00  0.00    +0.003 A 
ATOM      9  C   UNL     1      -9.924  19.507  68.487  0.00  0.00    +0.000 A 
ATOM     10  C   UNL     1      -8.678  18.896  68.504  0.00  0.00    +0.003 A 
ATOM     11  C   UNL     1      -8.291  18.093  67.438  0.00  0.00    +0.037 A 
ENDBRANCH   5   6
ENDBRANCH   4   5
ENDBRANCH   3   4
ENDBRANCH   1   3
BRANCH   1  12
ATOM     12  C   UNL     1     -11.659  14.623  67.093  0.00  0.00    +0.099 C 
BRANCH  12  13
ATOM     13  C   UNL     1     -11.842  14.794  68.531  0.00  0.00    -0.006 A 
ATOM     14  C   UNL     1     -11.357  15.975  69.083  0.00  0.00    -0.003 A 
ATOM     15  C   UNL     1     -11.391  16.198  70.453  0.00  0.00    -0.000 A 
ATOM     16  C   UNL     1     -11.949  15.244  71.259  0.00  0.00    -0.000 A 
ATOM     17  C   UNL     1     -12.152  13.996  70.739  0.00  0.00    -0.000 A 
ATOM     18  C   UNL     1     -12.020  13.741  69.385  0.00  0.00    -0.003 A 
ENDBRANCH  12  13
ENDBRANCH   1  12
BRANCH   1  19
ATOM     19  C   UNL     1     -11.384  12.476  66.020  0.00  0.00    +0.090 C 
BRANCH  19  20
ATOM     20  C   UNL     1     -12.546  12.983  65.172  0.00  0.00    +0.112 C 
ATOM     21 CL   UNL     1     -12.161  12.755  63.440  0.00  0.00    -0.112 Cl
ENDBRANCH  19  20
ENDBRANCH   1  19
TORSDOF 8
ENDMDL
MODEL 9
REMARK VINA RESULT:      -5.8      2.206      4.444
REMARK  Name = 
REMARK  8 active torsions:
REMARK  status: ('A' for Active; 'I' for Inactive)
REMARK    1  A    between atoms: C_2  and  C_3
REMARK    2  A    between atoms: C_2  and  N_11
REMARK    3  A    between atoms: C_3  and  O_4
REMARK    4  A    between atoms: O_4  and  C_5
REMARK    5  A    between atoms: N_11  and  C_12
REMARK    6  A    between atoms: N_11  and  C_15
REMARK    7  A    between atoms: C_12  and  C_13
REMARK    8  A    between atoms: C_15  and  C_16
REMARK                            x       y       z     vdW  Elec       q    Type
REMARK                         _______ _______ _______ _____ _____    ______ ____
ROOT
ATOM      1  N   UNL     1     -10.189  15.740  66.636  0.00  0.00    -0.266 NA
ENDROOT
BRANCH   1   3
ATOM      2  C   UNL     1      -9.240  14.823  68.536  0.00  0.00    +0.021 C 
ATOM      3  C   UNL     1      -9.857  16.278  68.076  0.00  0.00    +0.102 C 
BRANCH   3   4
ATOM      4  C   UNL     1     -11.335  15.929  68.710  0.00  0.00    +0.221 C 
BRANCH   4   5
ATOM      5  O   UNL     1     -11.264  16.294  70.064  0.00  0.00    -0.474 OA
BRANCH   5   6
ATOM      6  C   UNL     1     -11.711  15.494  71.115  0.00  0.00    +0.139 A 
ATOM      7  C   UNL     1     -12.173  16.067  72.287  0.00  0.00    +0.037 A 
ATOM      8  C   UNL     1     -13.223  15.528  73.019  0.00  0.00    +0.003 A 
ATOM      9  C   UNL     1     -13.797  14.337  72.591  0.00  0.00    +0.000 A 
ATOM     10  C   UNL     1     -13.128  13.594  71.628  0.00  0.00    +0.003 A 
ATOM     11  C   UNL     1     -12.070  14.164  70.932  0.00  0.00    +0.037 A 
ENDBRANCH   5   6
ENDBRANCH   4   5
ENDBRANCH   3   4
ENDBRANCH   1   3
BRANCH   1  12
ATOM     12  C   UNL     1     -11.248  14.842  66.672  0.00  0.00    +0.099 C 
BRANCH  12  13
ATOM     13  C   UNL     1     -11.341  13.827  65.627  0.00  0.00    -0.006 A 
ATOM     14  C   UNL     1     -10.256  12.966  65.497  0.00  0.00    -0.003 A 
ATOM     15  C   UNL     1     -10.198  12.027  64.477  0.00  0.00    -0.000 A 
ATOM     16  C   UNL     1     -11.253  11.935  63.610  0.00  0.00    -0.000 A 
ATOM     17  C   UNL     1     -12.158  12.959  63.581  0.00  0.00    -0.000 A 
ATOM     18  C   UNL     1     -12.159  13.958  64.539  0.00  0.00    -0.003 A 
ENDBRANCH  12  13
ENDBRANCH   1  12
BRANCH   1  19
ATOM     19  C   UNL     1     -10.310  16.883  65.783  0.00  0.00    +0.090 C 
BRANCH  19  20
ATOM     20  C   UNL     1      -9.523  18.006  66.449  0.00  0.00    +0.112 C 
ATOM     21 CL   UNL     1     -10.502  19.504  66.433  0.00  0.00    -0.112 Cl
ENDBRANCH  19  20
ENDBRANCH   1  19
TORSDOF 8
ENDMDL
