MODEL 1
REMARK VINA RESULT:      -6.7      0.000      0.000
REMARK  Name = 
REMARK  2 active torsions:
REMARK  status: ('A' for Active; 'I' for Inactive)
REMARK    1  A    between atoms: C_2  and  C_4
REMARK    2  A    between atoms: C_4  and  C_6
REMARK                            x       y       z     vdW  Elec       q    Type
REMARK                         _______ _______ _______ _____ _____    ______ ____
ROOT
ATOM      1  C   UNL     1      -9.557  16.074  67.522  0.00  0.00    +0.147 C 
ATOM      2  N   UNL     1     -10.356  16.432  66.229  0.00  0.00    -0.228 NA
ATOM      3  C   UNL     1     -10.980  15.298  65.610  0.00  0.00    +0.157 A 
ATOM      4  C   UNL     1     -10.567  14.011  65.942  0.00  0.00    +0.170 A 
ATOM      5  N   UNL     1     -11.142  12.999  65.253  0.00  0.00    -0.193 NA
ATOM      6  C   UNL     1     -12.209  13.216  64.455  0.00  0.00    +0.260 A 
ATOM      7  N   UNL     1     -12.320  14.436  63.872  0.00  0.00    -0.171 NA
ATOM      8  N   UNL     1     -13.187  12.191  64.292  0.00  0.00    -0.086 NA
ATOM      9  N   UNL     1      -9.349  13.867  66.652  0.00  0.00    -0.217 NA
ATOM     10  C   UNL     1     -11.790  15.516  64.495  0.00  0.00    +0.299 A 
ATOM     11  O   UNL     1     -11.688  16.621  63.875  0.00  0.00    -0.264 OA
ATOM     12  C   UNL     1      -8.546  15.079  66.719  0.00  0.00    +0.138 C 
ENDROOT
BRANCH   1  13
ATOM     13  C   UNL     1      -8.502  17.394  67.311  0.00  0.00    +0.203 C 
ATOM     14  O   UNL     1      -7.555  16.857  68.338  0.00  0.00    -0.219 OA
BRANCH  13  16
ATOM     15  C   UNL     1      -8.180  19.434  68.749  0.00  0.00    +0.038 C 
ATOM     16  C   UNL     1      -9.404  18.404  68.375  0.00  0.00    +0.184 C 
ATOM     17  O   UNL     1      -9.895  19.277  67.244  0.00  0.00    -0.220 OA
ENDBRANCH  13  16
ENDBRANCH   1  13
TORSDOF 2
ENDMDL
MODEL 2
REMARK VINA RESULT:      -6.5      4.543      6.406
REMARK  Name = 
REMARK  2 active torsions:
REMARK  status: ('A' for Active; 'I' for Inactive)
REMARK    1  A    between atoms: C_2  and  C_4
REMARK    2  A    between atoms: C_4  and  C_6
REMARK                            x       y       z     vdW  Elec       q    Type
REMARK                         _______ _______ _______ _____ _____    ______ ____
ROOT
ATOM      1  C   UNL     1     -11.602  15.121  67.739  0.00  0.00    +0.147 C 
ATOM      2  N   UNL     1     -12.002  14.040  68.792  0.00  0.00    -0.228 NA
ATOM      3  C   UNL     1     -12.200  14.571  70.111  0.00  0.00    +0.157 A 
ATOM      4  C   UNL     1     -11.702  15.831  70.434  0.00  0.00    +0.170 A 
ATOM      5  N   UNL     1     -11.852  16.225  71.718  0.00  0.00    -0.193 NA
ATOM      6  C   UNL     1     -12.635  15.532  72.573  0.00  0.00    +0.260 A 
ATOM      7  N   UNL     1     -12.761  14.197  72.370  0.00  0.00    -0.171 NA
ATOM      8  N   UNL     1     -13.325  16.223  73.613  0.00  0.00    -0.086 NA
ATOM      9  N   UNL     1     -10.763  16.420  69.550  0.00  0.00    -0.217 NA
ATOM     10  C   UNL     1     -12.643  13.707  71.113  0.00  0.00    +0.299 A 
ATOM     11  O   UNL     1     -12.538  12.454  70.925  0.00  0.00    -0.264 OA
ATOM     12  C   UNL     1     -10.238  15.513  68.540  0.00  0.00    +0.138 C 
ENDROOT
BRANCH   1  13
ATOM     13  C   UNL     1     -10.773  13.978  66.788  0.00  0.00    +0.203 C 
ATOM     14  O   UNL     1     -10.177  15.054  65.936  0.00  0.00    -0.219 OA
BRANCH  13  16
ATOM     15  C   UNL     1     -11.317  13.318  64.421  0.00  0.00    +0.038 C 
ATOM     16  C   UNL     1     -12.146  13.669  65.796  0.00  0.00    +0.184 C 
ATOM     17  O   UNL     1     -12.212  12.219  66.216  0.00  0.00    -0.220 OA
ENDBRANCH  13  16
ENDBRANCH   1  13
TORSDOF 2
ENDMDL
MODEL 3
REMARK VINA RESULT:      -6.4      2.333      5.615
REMARK  Name = 
REMARK  2 active torsions:
REMARK  status: ('A' for Active; 'I' for Inactive)
REMARK    1  A    between atoms: C_2  and  C_4
REMARK    2  A    between atoms: C_4  and  C_6
REMARK                            x       y       z     vdW  Elec       q    Type
REMARK                         _______ _______ _______ _____ _____    ______ ____
ROOT
ATOM      1  C   UNL     1     -10.897  13.992  66.473  0.00  0.00    +0.147 C 
ATOM      2  N   UNL     1     -10.945  15.421  65.844  0.00  0.00    -0.228 NA
ATOM      3  C   UNL     1     -10.285  16.418  66.637  0.00  0.00    +0.157 A 
ATOM      4  C   UNL     1      -9.998  16.162  67.975  0.00  0.00    +0.170 A 
ATOM      5  N   UNL     1      -9.455  17.182  68.678  0.00  0.00    -0.193 NA
ATOM      6  C   UNL     1      -9.013  18.298  68.060  0.00  0.00    +0.260 A 
ATOM      7  N   UNL     1      -9.632  18.667  66.910  0.00  0.00    -0.171 NA
ATOM      8  N   UNL     1      -7.903  19.011  68.603  0.00  0.00    -0.086 NA
ATOM      9  N   UNL     1     -10.630  15.051  68.589  0.00  0.00    -0.217 NA
ATOM     10  C   UNL     1     -10.193  17.714  66.128  0.00  0.00    +0.299 A 
ATOM     11  O   UNL     1     -10.960  18.047  65.171  0.00  0.00    -0.264 OA
ATOM     12  C   UNL     1     -11.707  14.465  67.806  0.00  0.00    +0.138 C 
ENDROOT
BRANCH   1  13
ATOM     13  C   UNL     1     -12.343  13.535  65.699  0.00  0.00    +0.203 C 
ATOM     14  O   UNL     1     -12.209  12.126  66.186  0.00  0.00    -0.219 OA
BRANCH  13  16
ATOM     15  C   UNL     1     -12.439  11.989  63.716  0.00  0.00    +0.038 C 
ATOM     16  C   UNL     1     -11.565  13.300  64.181  0.00  0.00    +0.184 C 
ATOM     17  O   UNL     1     -12.493  14.263  63.476  0.00  0.00    -0.220 OA
ENDBRANCH  13  16
ENDBRANCH   1  13
TORSDOF 2
ENDMDL
MODEL 4
REMARK VINA RESULT:      -6.4      3.001      5.466
REMARK  Name = 
REMARK  2 active torsions:
REMARK  status: ('A' for Active; 'I' for Inactive)
REMARK    1  A    between atoms: C_2  and  C_4
REMARK    2  A    between atoms: C_4  and  C_6
REMARK                            x       y       z     vdW  Elec       q    Type
REMARK                         _______ _______ _______ _____ _____    ______ ____
ROOT
ATOM      1  C   UNL     1     -10.614  14.348  68.099  0.00  0.00    +0.147 C 
ATOM      2  N   UNL     1     -10.675  15.077  66.720  0.00  0.00    -0.228 NA
ATOM      3  C   UNL     1     -10.547  16.503  66.820  0.00  0.00    +0.157 A 
ATOM      4  C   UNL     1     -10.741  17.132  68.046  0.00  0.00    +0.170 A 
ATOM      5  N   UNL     1     -10.689  18.484  68.042  0.00  0.00    -0.193 NA
ATOM      6  C   UNL     1     -10.253  19.162  66.959  0.00  0.00    +0.260 A 
ATOM      7  N   UNL     1     -10.452  18.597  65.742  0.00  0.00    -0.171 NA
ATOM      8  N   UNL     1      -9.572  20.403  67.133  0.00  0.00    -0.086 NA
ATOM      9  N   UNL     1     -11.349  16.386  69.087  0.00  0.00    -0.217 NA
ATOM     10  C   UNL     1     -10.502  17.248  65.641  0.00  0.00    +0.299 A 
ATOM     11  O   UNL     1     -10.902  16.704  64.563  0.00  0.00    -0.264 OA
ATOM     12  C   UNL     1     -11.934  15.124  68.658  0.00  0.00    +0.138 C 
ENDROOT
BRANCH   1  13
ATOM     13  C   UNL     1     -11.561  13.052  67.526  0.00  0.00    +0.203 C 
ATOM     14  O   UNL     1     -11.863  12.600  68.920  0.00  0.00    -0.219 OA
BRANCH  13  16
ATOM     15  C   UNL     1     -10.988  10.607  67.368  0.00  0.00    +0.038 C 
ATOM     16  C   UNL     1     -10.190  12.040  67.276  0.00  0.00    +0.184 C 
ATOM     17  O   UNL     1     -10.327  12.106  65.772  0.00  0.00    -0.220 OA
ENDBRANCH  13  16
ENDBRANCH   1  13
TORSDOF 2
ENDMDL
MODEL 5
REMARK VINA RESULT:      -6.2      1.734      2.551
REMARK  Name = 
REMARK  2 active torsions:
REMARK  status: ('A' for Active; 'I' for Inactive)
REMARK    1  A    between atoms: C_2  and  C_4
REMARK    2  A    between atoms: C_4  and  C_6
REMARK                            x       y       z     vdW  Elec       q    Type
REMARK                         _______ _______ _______ _____ _____    ______ ____
ROOT
ATOM      1  C   UNL     1      -9.177  16.566  66.255  0.00  0.00    +0.147 C 
ATOM      2  N   UNL     1      -9.979  15.473  67.031  0.00  0.00    -0.228 NA
ATOM      3  C   UNL     1     -10.860  14.708  66.196  0.00  0.00    +0.157 A 
ATOM      4  C   UNL     1     -11.207  15.183  64.935  0.00  0.00    +0.170 A 
ATOM      5  N   UNL     1     -12.108  14.449  64.244  0.00  0.00    -0.193 NA
ATOM      6  C   UNL     1     -12.473  13.218  64.663  0.00  0.00    +0.260 A 
ATOM      7  N   UNL     1     -12.444  12.973  65.996  0.00  0.00    -0.171 NA
ATOM      8  N   UNL     1     -12.828  12.224  63.703  0.00  0.00    -0.086 NA
ATOM      9  N   UNL     1     -10.922  16.539  64.634  0.00  0.00    -0.217 NA
ATOM     10  C   UNL     1     -11.561  13.648  66.771  0.00  0.00    +0.299 A 
ATOM     11  O   UNL     1     -11.661  13.600  68.038  0.00  0.00    -0.264 OA
ATOM     12  C   UNL     1     -10.532  17.340  65.785  0.00  0.00    +0.138 C 
ENDROOT
BRANCH   1  13
ATOM     13  C   UNL     1      -9.043  17.543  67.643  0.00  0.00    +0.203 C 
ATOM     14  O   UNL     1      -8.709  18.745  66.817  0.00  0.00    -0.219 OA
BRANCH  13  16
ATOM     15  C   UNL     1      -6.988  18.353  68.847  0.00  0.00    +0.038 C 
ATOM     16  C   UNL     1      -7.423  17.048  67.949  0.00  0.00    +0.184 C 
ATOM     17  O   UNL     1      -7.822  16.248  69.168  0.00  0.00    -0.220 OA
ENDBRANCH  13  16
ENDBRANCH   1  13
TORSDOF 2
ENDMDL
MODEL 6
REMARK VINA RESULT:      -6.2      4.012      5.852
REMARK  Name = 
REMARK  2 active torsions:
REMARK  status: ('A' for Active; 'I' for Inactive)
REMARK    1  A    between atoms: C_2  and  C_4
REMARK    2  A    between atoms: C_4  and  C_6
REMARK                            x       y       z     vdW  Elec       q    Type
REMARK                         _______ _______ _______ _____ _____    ______ ____
ROOT
ATOM      1  C   UNL     1     -10.169  11.501  67.444  0.00  0.00    +0.147 C 
ATOM      2  N   UNL     1     -11.266  11.603  66.339  0.00  0.00    -0.228 NA
ATOM      3  C   UNL     1     -11.431  12.930  65.816  0.00  0.00    +0.157 A 
ATOM      4  C   UNL     1     -10.926  14.020  66.519  0.00  0.00    +0.170 A 
ATOM      5  N   UNL     1     -11.196  15.242  66.006  0.00  0.00    -0.193 NA
ATOM      6  C   UNL     1     -11.729  15.379  64.773  0.00  0.00    +0.260 A 
ATOM      7  N   UNL     1     -12.530  14.383  64.320  0.00  0.00    -0.171 NA
ATOM      8  N   UNL     1     -11.400  16.524  63.988  0.00  0.00    -0.086 NA
ATOM      9  N   UNL     1     -10.531  13.817  67.865  0.00  0.00    -0.217 NA
ATOM     10  C   UNL     1     -12.326  13.119  64.763  0.00  0.00    +0.299 A 
ATOM     11  O   UNL     1     -13.189  12.216  64.528  0.00  0.00    -0.264 OA
ATOM     12  C   UNL     1     -10.948  12.541  68.427  0.00  0.00    +0.138 C 
ENDROOT
BRANCH   1  13
ATOM     13  C   UNL     1     -10.935  10.165  68.171  0.00  0.00    +0.203 C 
ATOM     14  O   UNL     1     -10.336  10.490  69.503  0.00  0.00    -0.219 OA
BRANCH  13  16
ATOM     15  C   UNL     1     -10.078   7.863  68.716  0.00  0.00    +0.038 C 
ATOM     16  C   UNL     1      -9.712   9.067  67.659  0.00  0.00    +0.184 C 
ATOM     17  O   UNL     1     -10.588   8.485  66.574  0.00  0.00    -0.220 OA
ENDBRANCH  13  16
ENDBRANCH   1  13
TORSDOF 2
ENDMDL
MODEL 7
REMARK VINA RESULT:      -6.1      4.911      8.428
REMARK  Name = 
REMARK  2 active torsions:
REMARK  status: ('A' for Active; 'I' for Inactive)
REMARK    1  A    between atoms: C_2  and  C_4
REMARK    2  A    between atoms: C_4  and  C_6
REMARK                            x       y       z     vdW  Elec       q    Type
REMARK                         _______ _______ _______ _____ _____    ______ ____
ROOT
ATOM      1  C   UNL     1      -7.370  18.795  68.053  0.00  0.00    +0.147 C 
ATOM      2  N   UNL     1      -6.601  18.221  69.285  0.00  0.00    -0.228 NA
ATOM      3  C   UNL     1      -5.886  19.218  70.029  0.00  0.00    +0.157 A 
ATOM      4  C   UNL     1      -5.625  20.458  69.453  0.00  0.00    +0.170 A 
ATOM      5  N   UNL     1      -4.871  21.312  70.182  0.00  0.00    -0.193 NA
ATOM      6  C   UNL     1      -4.583  21.057  71.476  0.00  0.00    +0.260 A 
ATOM      7  N   UNL     1      -4.501  19.759  71.859  0.00  0.00    -0.171 NA
ATOM      8  N   UNL     1      -4.423  22.142  72.389  0.00  0.00    -0.086 NA
ATOM      9  N   UNL     1      -5.809  20.593  68.054  0.00  0.00    -0.217 NA
ATOM     10  C   UNL     1      -5.233  18.829  71.199  0.00  0.00    +0.299 A 
ATOM     11  O   UNL     1      -5.011  17.592  71.389  0.00  0.00    -0.264 OA
ATOM     12  C   UNL     1      -6.003  19.334  67.349  0.00  0.00    +0.138 C 
ENDROOT
BRANCH   1  13
ATOM     13  C   UNL     1      -7.270  17.312  67.221  0.00  0.00    +0.203 C 
ATOM     14  O   UNL     1      -7.545  17.980  65.910  0.00  0.00    -0.219 OA
BRANCH  13  16
ATOM     15  C   UNL     1      -9.099  15.815  66.358  0.00  0.00    +0.038 C 
ATOM     16  C   UNL     1      -8.901  16.893  67.582  0.00  0.00    +0.184 C 
ATOM     17  O   UNL     1      -8.482  15.820  68.561  0.00  0.00    -0.220 OA
ENDBRANCH  13  16
ENDBRANCH   1  13
TORSDOF 2
ENDMDL
MODEL 8
REMARK VINA RESULT:      -5.9      2.990      3.387
REMARK  Name = 
REMARK  2 active torsions:
REMARK  status: ('A' for Active; 'I' for Inactive)
REMARK    1  A    between atoms: C_2  and  C_4
REMARK    2  A    between atoms: C_4  and  C_6
REMARK                            x       y       z     vdW  Elec       q    Type
REMARK                         _______ _______ _______ _____ _____    ______ ____
ROOT
ATOM      1  C   UNL     1     -10.903  14.026  68.774  0.00  0.00    +0.147 C 
ATOM      2  N   UNL     1     -11.999  14.063  67.662  0.00  0.00    -0.228 NA
ATOM      3  C   UNL     1     -11.604  13.407  66.449  0.00  0.00    +0.157 A 
ATOM      4  C   UNL     1     -10.260  13.133  66.213  0.00  0.00    +0.170 A 
ATOM      5  N   UNL     1      -9.959  12.593  65.010  0.00  0.00    -0.193 NA
ATOM      6  C   UNL     1     -10.929  12.141  64.186  0.00  0.00    +0.260 A 
ATOM      7  N   UNL     1     -12.140  12.748  64.249  0.00  0.00    -0.171 NA
ATOM      8  N   UNL     1     -10.663  11.034  63.327  0.00  0.00    -0.086 NA
ATOM      9  N   UNL     1      -9.298  13.775  67.034  0.00  0.00    -0.217 NA
ATOM     10  C   UNL     1     -12.539  13.305  65.417  0.00  0.00    +0.299 A 
ATOM     11  O   UNL     1     -13.560  14.062  65.446  0.00  0.00    -0.264 OA
ATOM     12  C   UNL     1      -9.833  14.847  67.860  0.00  0.00    +0.138 C 
ENDROOT
BRANCH   1  13
ATOM     13  C   UNL     1     -11.480  15.467  69.477  0.00  0.00    +0.203 C 
ATOM     14  O   UNL     1     -10.099  15.867  69.893  0.00  0.00    -0.219 OA
BRANCH  13  16
ATOM     15  C   UNL     1     -11.920  16.030  71.889  0.00  0.00    +0.038 C 
ATOM     16  C   UNL     1     -11.917  14.684  70.947  0.00  0.00    +0.184 C 
ATOM     17  O   UNL     1     -13.395  14.797  70.650  0.00  0.00    -0.220 OA
ENDBRANCH  13  16
ENDBRANCH   1  13
TORSDOF 2
ENDMDL
MODEL 9
REMARK VINA RESULT:      -5.8      3.899      5.518
REMARK  Name = 
REMARK  2 active torsions:
REMARK  status: ('A' for Active; 'I' for Inactive)
REMARK    1  A    between atoms: C_2  and  C_4
REMARK    2  A    between atoms: C_4  and  C_6
REMARK                            x       y       z     vdW  Elec       q    Type
REMARK                         _______ _______ _______ _____ _____    ______ ____
ROOT
ATOM      1  C   UNL     1     -11.658  11.738  67.886  0.00  0.00    +0.147 C 
ATOM      2  N   UNL     1     -11.187  13.164  68.314  0.00  0.00    -0.228 NA
ATOM      3  C   UNL     1     -11.050  14.076  67.214  0.00  0.00    +0.157 A 
ATOM      4  C   UNL     1     -10.979  13.587  65.912  0.00  0.00    +0.170 A 
ATOM      5  N   UNL     1     -10.764  14.501  64.939  0.00  0.00    -0.193 NA
ATOM      6  C   UNL     1     -10.838  15.824  65.196  0.00  0.00    +0.260 A 
ATOM      7  N   UNL     1     -10.520  16.241  66.447  0.00  0.00    -0.171 NA
ATOM      8  N   UNL     1     -11.283  16.716  64.175  0.00  0.00    -0.086 NA
ATOM      9  N   UNL     1     -10.745  12.200  65.735  0.00  0.00    -0.217 NA
ATOM     10  C   UNL     1     -10.716  15.402  67.492  0.00  0.00    +0.299 A 
ATOM     11  O   UNL     1     -10.229  15.680  68.632  0.00  0.00    -0.264 OA
ATOM     12  C   UNL     1     -10.347  11.499  66.947  0.00  0.00    +0.138 C 
ENDROOT
BRANCH   1  13
ATOM     13  C   UNL     1     -10.891  11.014  69.223  0.00  0.00    +0.203 C 
ATOM     14  O   UNL     1     -10.807   9.697  68.518  0.00  0.00    -0.219 OA
BRANCH  13  16
ATOM     15  C   UNL     1     -11.769   9.749  71.213  0.00  0.00    +0.038 C 
ATOM     16  C   UNL     1     -12.381  10.717  70.034  0.00  0.00    +0.184 C 
ATOM     17  O   UNL     1     -12.249  11.961  70.882  0.00  0.00    -0.220 OA
ENDBRANCH  13  16
ENDBRANCH   1  13
TORSDOF 2
ENDMDL
