MODEL 1
REMARK VINA RESULT:      -6.4      0.000      0.000
REMARK  Name = 
REMARK  3 active torsions:
REMARK  status: ('A' for Active; 'I' for Inactive)
REMARK    1  A    between atoms: C_4  and  C_5
REMARK    2  A    between atoms: C_13  and  C_14
REMARK    3  A    between atoms: C_14  and  C_15
REMARK                            x       y       z     vdW  Elec       q    Type
REMARK                         _______ _______ _______ _____ _____    ______ ____
ROOT
ATOM      1  C   UNL     1     -11.815  10.890  68.699  0.00  0.00    +0.031 C 
ATOM      2  C   UNL     1     -11.641  12.271  69.236  0.00  0.00    -0.026 A 
ATOM      3  C   UNL     1     -10.920  13.199  68.496  0.00  0.00    -0.015 A 
ATOM      4  C   UNL     1     -11.281  14.536  68.608  0.00  0.00    +0.013 A 
ATOM      5  C   UNL     1     -10.527  15.553  67.831  0.00  0.00    +0.034 C 
ATOM      6  C   UNL     1     -12.065  14.930  69.686  0.00  0.00    +0.187 A 
ATOM      7  O   UNL     1     -12.125  16.276  69.986  0.00  0.00    -0.287 OA
ATOM      8  C   UNL     1     -12.368  14.001  70.671  0.00  0.00    +0.015 A 
ATOM      9  C   UNL     1     -12.107  12.648  70.487  0.00  0.00    -0.006 A 
ENDROOT
BRANCH   8  10
ATOM     10  C   UNL     1     -13.181  14.391  71.865  0.00  0.00    +0.022 C 
ATOM     11  C   UNL     1     -14.399  15.171  71.454  0.00  0.00    +0.004 C 
ATOM     12  C   UNL     1     -13.676  13.081  72.466  0.00  0.00    +0.004 C 
ATOM     13  C   UNL     1     -12.321  15.165  72.829  0.00  0.00    +0.004 C 
ENDBRANCH   8  10
BRANCH   3  14
ATOM     14  C   UNL     1     -10.017  12.700  67.440  0.00  0.00    +0.146 C 
BRANCH  14  15
ATOM     15  C   UNL     1     -10.742  12.818  66.136  0.00  0.00    +0.336 C 
ATOM     16  N   UNL     1     -12.093  12.436  65.856  0.00  0.00    -0.030 NA
ATOM     17  C   UNL     1     -12.736  13.479  65.061  0.00  0.00    +0.308 C 
ATOM     18  C   UNL     1     -11.508  14.195  64.514  0.00  0.00    +0.318 C 
ATOM     19  N   UNL     1     -10.372  13.471  65.074  0.00  0.00    -0.061 NA
ENDBRANCH  14  15
ENDBRANCH   3  14
TORSDOF 3
ENDMDL
MODEL 2
REMARK VINA RESULT:      -6.3      1.349      2.636
REMARK  Name = 
REMARK  3 active torsions:
REMARK  status: ('A' for Active; 'I' for Inactive)
REMARK    1  A    between atoms: C_4  and  C_5
REMARK    2  A    between atoms: C_13  and  C_14
REMARK    3  A    between atoms: C_14  and  C_15
REMARK                            x       y       z     vdW  Elec       q    Type
REMARK                         _______ _______ _______ _____ _____    ______ ____
ROOT
ATOM      1  C   UNL     1      -9.624  15.197  68.412  0.00  0.00    +0.031 C 
ATOM      2  C   UNL     1     -10.802  14.545  69.054  0.00  0.00    -0.026 A 
ATOM      3  C   UNL     1     -11.143  13.250  68.686  0.00  0.00    -0.015 A 
ATOM      4  C   UNL     1     -11.736  12.441  69.647  0.00  0.00    +0.013 A 
ATOM      5  C   UNL     1     -12.115  11.051  69.284  0.00  0.00    +0.034 C 
ATOM      6  C   UNL     1     -12.284  13.034  70.778  0.00  0.00    +0.187 A 
ATOM      7  O   UNL     1     -13.163  12.290  71.539  0.00  0.00    -0.287 OA
ATOM      8  C   UNL     1     -12.321  14.419  70.858  0.00  0.00    +0.015 A 
ATOM      9  C   UNL     1     -11.621  15.210  69.955  0.00  0.00    -0.006 A 
ENDROOT
BRANCH   8  10
ATOM     10  C   UNL     1     -12.933  15.099  72.042  0.00  0.00    +0.022 C 
ATOM     11  C   UNL     1     -12.753  14.276  73.287  0.00  0.00    +0.004 C 
ATOM     12  C   UNL     1     -12.128  16.379  72.237  0.00  0.00    +0.004 C 
ATOM     13  C   UNL     1     -14.386  15.383  71.765  0.00  0.00    +0.004 C 
ENDBRANCH   8  10
BRANCH   3  14
ATOM     14  C   UNL     1     -10.615  12.724  67.412  0.00  0.00    +0.146 C 
BRANCH  14  15
ATOM     15  C   UNL     1     -11.646  12.983  66.359  0.00  0.00    +0.336 C 
ATOM     16  N   UNL     1     -12.063  14.253  65.845  0.00  0.00    -0.030 NA
ATOM     17  C   UNL     1     -12.175  14.174  64.390  0.00  0.00    +0.308 C 
ATOM     18  C   UNL     1     -12.281  12.664  64.211  0.00  0.00    +0.318 C 
ATOM     19  N   UNL     1     -12.208  12.121  65.564  0.00  0.00    -0.061 NA
ENDBRANCH  14  15
ENDBRANCH   3  14
TORSDOF 3
ENDMDL
MODEL 3
REMARK VINA RESULT:      -6.1      3.082      4.526
REMARK  Name = 
REMARK  3 active torsions:
REMARK  status: ('A' for Active; 'I' for Inactive)
REMARK    1  A    between atoms: C_4  and  C_5
REMARK    2  A    between atoms: C_13  and  C_14
REMARK    3  A    between atoms: C_14  and  C_15
REMARK                            x       y       z     vdW  Elec       q    Type
REMARK                         _______ _______ _______ _____ _____    ______ ____
ROOT
ATOM      1  C   UNL     1     -12.327  13.216  70.697  0.00  0.00    +0.031 C 
ATOM      2  C   UNL     1     -11.940  11.835  70.284  0.00  0.00    -0.026 A 
ATOM      3  C   UNL     1     -10.972  11.668  69.303  0.00  0.00    -0.015 A 
ATOM      4  C   UNL     1     -10.169  10.537  69.373  0.00  0.00    +0.013 A 
ATOM      5  C   UNL     1      -9.126  10.328  68.336  0.00  0.00    +0.034 C 
ATOM      6  C   UNL     1     -10.581   9.471  70.165  0.00  0.00    +0.187 A 
ATOM      7  O   UNL     1      -9.983   8.244  69.961  0.00  0.00    -0.287 OA
ATOM      8  C   UNL     1     -11.829   9.526  70.768  0.00  0.00    +0.015 A 
ATOM      9  C   UNL     1     -12.565  10.705  70.790  0.00  0.00    -0.006 A 
ENDROOT
BRANCH   8  10
ATOM     10  C   UNL     1     -12.326   8.387  71.600  0.00  0.00    +0.022 C 
ATOM     11  C   UNL     1     -11.336   8.035  72.676  0.00  0.00    +0.004 C 
ATOM     12  C   UNL     1     -13.575   8.909  72.301  0.00  0.00    +0.004 C 
ATOM     13  C   UNL     1     -12.629   7.209  70.713  0.00  0.00    +0.004 C 
ENDBRANCH   8  10
BRANCH   3  14
ATOM     14  C   UNL     1     -10.667  12.813  68.421  0.00  0.00    +0.146 C 
BRANCH  14  15
ATOM     15  C   UNL     1     -11.682  12.815  67.322  0.00  0.00    +0.336 C 
ATOM     16  N   UNL     1     -12.425  13.935  66.828  0.00  0.00    -0.030 NA
ATOM     17  C   UNL     1     -12.445  13.897  65.368  0.00  0.00    +0.308 C 
ATOM     18  C   UNL     1     -12.104  12.430  65.133  0.00  0.00    +0.318 C 
ATOM     19  N   UNL     1     -11.936  11.867  66.469  0.00  0.00    -0.061 NA
ENDBRANCH  14  15
ENDBRANCH   3  14
TORSDOF 3
ENDMDL
MODEL 4
REMARK VINA RESULT:      -5.9      2.339      4.875
REMARK  Name = 
REMARK  3 active torsions:
REMARK  status: ('A' for Active; 'I' for Inactive)
REMARK    1  A    between atoms: C_4  and  C_5
REMARK    2  A    between atoms: C_13  and  C_14
REMARK    3  A    between atoms: C_14  and  C_15
REMARK                            x       y       z     vdW  Elec       q    Type
REMARK                         _______ _______ _______ _____ _____    ______ ____
ROOT
ATOM      1  C   UNL     1      -8.587  13.266  66.888  0.00  0.00    +0.031 C 
ATOM      2  C   UNL     1      -9.235  14.589  67.126  0.00  0.00    -0.026 A 
ATOM      3  C   UNL     1     -10.433  14.639  67.827  0.00  0.00    -0.015 A 
ATOM      4  C   UNL     1     -10.687  15.771  68.591  0.00  0.00    +0.013 A 
ATOM      5  C   UNL     1     -11.961  15.856  69.351  0.00  0.00    +0.034 C 
ATOM      6  C   UNL     1      -9.947  16.922  68.351  0.00  0.00    +0.187 A 
ATOM      7  O   UNL     1     -10.427  18.117  68.848  0.00  0.00    -0.287 OA
ATOM      8  C   UNL     1      -9.060  16.938  67.284  0.00  0.00    +0.015 A 
ATOM      9  C   UNL     1      -8.727  15.771  66.608  0.00  0.00    -0.006 A 
ENDROOT
BRANCH   8  10
ATOM     10  C   UNL     1      -8.268  18.168  66.968  0.00  0.00    +0.022 C 
ATOM     11  C   UNL     1      -7.572  18.689  68.195  0.00  0.00    +0.004 C 
ATOM     12  C   UNL     1      -7.181  17.715  66.000  0.00  0.00    +0.004 C 
ATOM     13  C   UNL     1      -9.171  19.206  66.356  0.00  0.00    +0.004 C 
ENDBRANCH   8  10
BRANCH   3  14
ATOM     14  C   UNL     1     -11.226  13.399  67.945  0.00  0.00    +0.146 C 
BRANCH  14  15
ATOM     15  C   UNL     1     -11.965  13.215  66.658  0.00  0.00    +0.336 C 
ATOM     16  N   UNL     1     -12.542  14.234  65.834  0.00  0.00    -0.030 NA
ATOM     17  C   UNL     1     -12.234  13.958  64.433  0.00  0.00    +0.308 C 
ATOM     18  C   UNL     1     -11.893  12.475  64.521  0.00  0.00    +0.318 C 
ATOM     19  N   UNL     1     -12.049  12.139  65.933  0.00  0.00    -0.061 NA
ENDBRANCH  14  15
ENDBRANCH   3  14
TORSDOF 3
ENDMDL
MODEL 5
REMARK VINA RESULT:      -5.8      2.941      5.587
REMARK  Name = 
REMARK  3 active torsions:
REMARK  status: ('A' for Active; 'I' for Inactive)
REMARK    1  A    between atoms: C_4  and  C_5
REMARK    2  A    between atoms: C_13  and  C_14
REMARK    3  A    between atoms: C_14  and  C_15
REMARK                            x       y       z     vdW  Elec       q    Type
REMARK                         _______ _______ _______ _____ _____    ______ ____
ROOT
ATOM      1  C   UNL     1     -11.902  12.377  63.484  0.00  0.00    +0.031 C 
ATOM      2  C   UNL     1     -11.281  12.097  64.812  0.00  0.00    -0.026 A 
ATOM      3  C   UNL     1     -11.543  12.951  65.875  0.00  0.00    -0.015 A 
ATOM      4  C   UNL     1     -11.551  12.407  67.154  0.00  0.00    +0.013 A 
ATOM      5  C   UNL     1     -11.825  13.296  68.312  0.00  0.00    +0.034 C 
ATOM      6  C   UNL     1     -10.961  11.166  67.358  0.00  0.00    +0.187 A 
ATOM      7  O   UNL     1     -10.661  10.796  68.653  0.00  0.00    -0.287 OA
ATOM      8  C   UNL     1     -10.286  10.563  66.307  0.00  0.00    +0.015 A 
ATOM      9  C   UNL     1     -10.387  11.054  65.011  0.00  0.00    -0.006 A 
ENDROOT
BRANCH   8  10
ATOM     10  C   UNL     1      -9.606   9.243  66.493  0.00  0.00    +0.022 C 
ATOM     11  C   UNL     1     -10.576   8.203  66.981  0.00  0.00    +0.004 C 
ATOM     12  C   UNL     1      -9.162   8.814  65.099  0.00  0.00    +0.004 C 
ATOM     13  C   UNL     1      -8.440   9.403  67.431  0.00  0.00    +0.004 C 
ENDBRANCH   8  10
BRANCH   3  14
ATOM     14  C   UNL     1     -12.062  14.300  65.575  0.00  0.00    +0.146 C 
BRANCH  14  15
ATOM     15  C   UNL     1     -10.886  15.214  65.438  0.00  0.00    +0.336 C 
ATOM     16  N   UNL     1     -10.897  16.592  65.049  0.00  0.00    -0.030 NA
ATOM     17  C   UNL     1     -10.001  17.348  65.920  0.00  0.00    +0.308 C 
ATOM     18  C   UNL     1      -9.137  16.217  66.464  0.00  0.00    +0.318 C 
ATOM     19  N   UNL     1      -9.666  15.009  65.838  0.00  0.00    -0.061 NA
ENDBRANCH  14  15
ENDBRANCH   3  14
TORSDOF 3
ENDMDL
MODEL 6
REMARK VINA RESULT:      -5.8      2.685      5.843
REMARK  Name = 
REMARK  3 active torsions:
REMARK  status: ('A' for Active; 'I' for Inactive)
REMARK    1  A    between atoms: C_4  and  C_5
REMARK    2  A    between atoms: C_13  and  C_14
REMARK    3  A    between atoms: C_14  and  C_15
REMARK                            x       y       z     vdW  Elec       q    Type
REMARK                         _______ _______ _______ _____ _____    ______ ____
ROOT
ATOM      1  C   UNL     1     -10.772  16.855  68.495  0.00  0.00    +0.031 C 
ATOM      2  C   UNL     1     -10.825  15.372  68.339  0.00  0.00    -0.026 A 
ATOM      3  C   UNL     1     -11.049  14.581  69.459  0.00  0.00    -0.015 A 
ATOM      4  C   UNL     1     -11.725  13.381  69.277  0.00  0.00    +0.013 A 
ATOM      5  C   UNL     1     -11.977  12.512  70.455  0.00  0.00    +0.034 C 
ATOM      6  C   UNL     1     -11.824  12.855  67.995  0.00  0.00    +0.187 A 
ATOM      7  O   UNL     1     -12.173  11.526  67.865  0.00  0.00    -0.287 OA
ATOM      8  C   UNL     1     -11.151  13.484  66.957  0.00  0.00    +0.015 A 
ATOM      9  C   UNL     1     -10.584  14.742  67.127  0.00  0.00    -0.006 A 
ENDROOT
BRANCH   8  10
ATOM     10  C   UNL     1     -11.203  12.932  65.568  0.00  0.00    +0.022 C 
ATOM     11  C   UNL     1     -12.624  12.805  65.092  0.00  0.00    +0.004 C 
ATOM     12  C   UNL     1     -10.533  13.982  64.688  0.00  0.00    +0.004 C 
ATOM     13  C   UNL     1     -10.479  11.613  65.522  0.00  0.00    +0.004 C 
ENDBRANCH   8  10
BRANCH   3  14
ATOM     14  C   UNL     1     -10.812  15.173  70.790  0.00  0.00    +0.146 C 
BRANCH  14  15
ATOM     15  C   UNL     1     -12.145  15.544  71.360  0.00  0.00    +0.336 C 
ATOM     16  N   UNL     1     -13.364  15.766  70.643  0.00  0.00    -0.030 NA
ATOM     17  C   UNL     1     -14.466  15.113  71.346  0.00  0.00    +0.308 C 
ATOM     18  C   UNL     1     -13.847  14.961  72.730  0.00  0.00    +0.318 C 
ATOM     19  N   UNL     1     -12.510  15.533  72.607  0.00  0.00    -0.061 NA
ENDBRANCH  14  15
ENDBRANCH   3  14
TORSDOF 3
ENDMDL
MODEL 7
REMARK VINA RESULT:      -5.7      3.041      4.612
REMARK  Name = 
REMARK  3 active torsions:
REMARK  status: ('A' for Active; 'I' for Inactive)
REMARK    1  A    between atoms: C_4  and  C_5
REMARK    2  A    between atoms: C_13  and  C_14
REMARK    3  A    between atoms: C_14  and  C_15
REMARK                            x       y       z     vdW  Elec       q    Type
REMARK                         _______ _______ _______ _____ _____    ______ ____
ROOT
ATOM      1  C   UNL     1     -10.182   9.383  67.176  0.00  0.00    +0.031 C 
ATOM      2  C   UNL     1     -10.615   9.623  68.584  0.00  0.00    -0.026 A 
ATOM      3  C   UNL     1     -10.890  10.921  68.995  0.00  0.00    -0.015 A 
ATOM      4  C   UNL     1     -11.856  11.096  69.978  0.00  0.00    +0.013 A 
ATOM      5  C   UNL     1     -12.171  12.472  70.441  0.00  0.00    +0.034 C 
ATOM      6  C   UNL     1     -12.234  10.003  70.749  0.00  0.00    +0.187 A 
ATOM      7  O   UNL     1     -12.911  10.244  71.927  0.00  0.00    -0.287 OA
ATOM      8  C   UNL     1     -11.556   8.803  70.588  0.00  0.00    +0.015 A 
ATOM      9  C   UNL     1     -10.682   8.607  69.526  0.00  0.00    -0.006 A 
ENDROOT
BRANCH   8  10
ATOM     10  C   UNL     1     -11.907   7.611  71.422  0.00  0.00    +0.022 C 
ATOM     11  C   UNL     1     -13.398   7.445  71.523  0.00  0.00    +0.004 C 
ATOM     12  C   UNL     1     -11.379   6.406  70.652  0.00  0.00    +0.004 C 
ATOM     13  C   UNL     1     -11.266   7.738  72.778  0.00  0.00    +0.004 C 
ENDBRANCH   8  10
BRANCH   3  14
ATOM     14  C   UNL     1     -10.358  12.037  68.187  0.00  0.00    +0.146 C 
BRANCH  14  15
ATOM     15  C   UNL     1     -11.483  12.562  67.352  0.00  0.00    +0.336 C 
ATOM     16  N   UNL     1     -11.970  13.907  67.297  0.00  0.00    -0.030 NA
ATOM     17  C   UNL     1     -12.207  14.280  65.905  0.00  0.00    +0.308 C 
ATOM     18  C   UNL     1     -12.298  12.899  65.269  0.00  0.00    +0.318 C 
ATOM     19  N   UNL     1     -12.095  11.965  66.372  0.00  0.00    -0.061 NA
ENDBRANCH  14  15
ENDBRANCH   3  14
TORSDOF 3
ENDMDL
MODEL 8
REMARK VINA RESULT:      -5.7      2.031      2.809
REMARK  Name = 
REMARK  3 active torsions:
REMARK  status: ('A' for Active; 'I' for Inactive)
REMARK    1  A    between atoms: C_4  and  C_5
REMARK    2  A    between atoms: C_13  and  C_14
REMARK    3  A    between atoms: C_14  and  C_15
REMARK                            x       y       z     vdW  Elec       q    Type
REMARK                         _______ _______ _______ _____ _____    ______ ____
ROOT
ATOM      1  C   UNL     1     -11.692  12.235  67.766  0.00  0.00    +0.031 C 
ATOM      2  C   UNL     1     -11.585  13.276  68.829  0.00  0.00    -0.026 A 
ATOM      3  C   UNL     1     -10.866  14.436  68.570  0.00  0.00    -0.015 A 
ATOM      4  C   UNL     1     -11.275  15.604  69.202  0.00  0.00    +0.013 A 
ATOM      5  C   UNL     1     -10.526  16.861  68.947  0.00  0.00    +0.034 C 
ATOM      6  C   UNL     1     -12.115  15.510  70.306  0.00  0.00    +0.187 A 
ATOM      7  O   UNL     1     -12.231  16.613  71.127  0.00  0.00    -0.287 OA
ATOM      8  C   UNL     1     -12.426  14.255  70.808  0.00  0.00    +0.015 A 
ATOM      9  C   UNL     1     -12.113  13.100  70.100  0.00  0.00    -0.006 A 
ENDROOT
BRANCH   8  10
ATOM     10  C   UNL     1     -13.297  14.109  72.015  0.00  0.00    +0.022 C 
ATOM     11  C   UNL     1     -14.649  14.726  71.779  0.00  0.00    +0.004 C 
ATOM     12  C   UNL     1     -13.517  12.610  72.180  0.00  0.00    +0.004 C 
ATOM     13  C   UNL     1     -12.609  14.713  73.210  0.00  0.00    +0.004 C 
ENDBRANCH   8  10
BRANCH   3  14
ATOM     14  C   UNL     1      -9.906  14.427  67.449  0.00  0.00    +0.146 C 
BRANCH  14  15
ATOM     15  C   UNL     1      -8.601  13.922  67.980  0.00  0.00    +0.336 C 
ATOM     16  N   UNL     1      -8.023  12.628  67.776  0.00  0.00    -0.030 NA
ATOM     17  C   UNL     1      -6.599  12.775  67.482  0.00  0.00    +0.308 C 
ATOM     18  C   UNL     1      -6.354  14.174  68.035  0.00  0.00    +0.318 C 
ATOM     19  N   UNL     1      -7.651  14.607  68.545  0.00  0.00    -0.061 NA
ENDBRANCH  14  15
ENDBRANCH   3  14
TORSDOF 3
ENDMDL
MODEL 9
REMARK VINA RESULT:      -5.7      2.663      5.004
REMARK  Name = 
REMARK  3 active torsions:
REMARK  status: ('A' for Active; 'I' for Inactive)
REMARK    1  A    between atoms: C_4  and  C_5
REMARK    2  A    between atoms: C_13  and  C_14
REMARK    3  A    between atoms: C_14  and  C_15
REMARK                            x       y       z     vdW  Elec       q    Type
REMARK                         _______ _______ _______ _____ _____    ______ ____
ROOT
ATOM      1  C   UNL     1     -12.258  15.553  70.137  0.00  0.00    +0.031 C 
ATOM      2  C   UNL     1     -11.409  15.774  68.929  0.00  0.00    -0.026 A 
ATOM      3  C   UNL     1     -11.404  14.818  67.922  0.00  0.00    -0.015 A 
ATOM      4  C   UNL     1     -11.198  15.254  66.619  0.00  0.00    +0.013 A 
ATOM      5  C   UNL     1     -11.184  14.255  65.520  0.00  0.00    +0.034 C 
ATOM      6  C   UNL     1     -10.660  16.519  66.412  0.00  0.00    +0.187 A 
ATOM      7  O   UNL     1     -10.139  16.805  65.167  0.00  0.00    -0.287 OA
ATOM      8  C   UNL     1     -10.243  17.258  67.510  0.00  0.00    +0.015 A 
ATOM      9  C   UNL     1     -10.563  16.866  68.804  0.00  0.00    -0.006 A 
ENDROOT
BRANCH   8  10
ATOM     10  C   UNL     1      -9.627  18.609  67.330  0.00  0.00    +0.022 C 
ATOM     11  C   UNL     1     -10.486  19.480  66.456  0.00  0.00    +0.004 C 
ATOM     12  C   UNL     1      -9.621  19.242  68.717  0.00  0.00    +0.004 C 
ATOM     13  C   UNL     1      -8.236  18.459  66.773  0.00  0.00    +0.004 C 
ENDBRANCH   8  10
BRANCH   3  14
ATOM     14  C   UNL     1     -11.884  13.460  68.246  0.00  0.00    +0.146 C 
BRANCH  14  15
ATOM     15  C   UNL     1     -10.688  12.633  68.598  0.00  0.00    +0.336 C 
ATOM     16  N   UNL     1     -10.675  11.283  69.073  0.00  0.00    -0.030 NA
ATOM     17  C   UNL     1      -9.629  10.535  68.380  0.00  0.00    +0.308 C 
ATOM     18  C   UNL     1      -8.764  11.685  67.879  0.00  0.00    +0.318 C 
ATOM     19  N   UNL     1      -9.438  12.891  68.348  0.00  0.00    -0.061 NA
ENDBRANCH  14  15
ENDBRANCH   3  14
TORSDOF 3
ENDMDL
