MODEL 1
REMARK VINA RESULT:      -8.3      0.000      0.000
REMARK  Name = 
REMARK  6 active torsions:
REMARK  status: ('A' for Active; 'I' for Inactive)
REMARK    1  A    between atoms: C_5  and  N_6
REMARK    2  A    between atoms: C_7  and  C_9
REMARK    3  A    between atoms: C_12  and  C_13
REMARK    4  A    between atoms: C_13  and  N_14
REMARK    5  A    between atoms: C_24  and  N_25
REMARK    6  A    between atoms: C_30  and  C_31
REMARK                            x       y       z     vdW  Elec       q    Type
REMARK                         _______ _______ _______ _____ _____    ______ ____
ROOT
ATOM      1  C   UNL     1     -11.851  12.678  69.919  0.00  0.00    +0.032 C 
ATOM      2  C   UNL     1     -12.060  13.921  69.111  0.00  0.00    -0.006 A 
ATOM      3  C   UNL     1     -11.950  13.923  67.727  0.00  0.00    +0.071 A 
ATOM      4  C   UNL     1     -11.255  14.932  67.072  0.00  0.00    +0.033 A 
ATOM      5  C   UNL     1     -10.794  16.048  67.760  0.00  0.00    +0.075 A 
ATOM      6  C   UNL     1     -11.331  16.215  69.032  0.00  0.00    +0.016 A 
ATOM      7  C   UNL     1     -11.917  15.160  69.722  0.00  0.00    -0.002 A 
ENDROOT
BRANCH   3   8
ATOM      8  N   UNL     1     -12.349  12.723  67.068  0.00  0.00    -0.178 NA
ATOM      9  C   UNL     1     -11.949  12.386  65.749  0.00  0.00    +0.241 A 
ATOM     10  N   UNL     1     -10.936  11.527  65.482  0.00  0.00    -0.212 NA
ATOM     11  C   UNL     1     -10.446  11.366  64.227  0.00  0.00    +0.087 A 
ATOM     12  C   UNL     1     -11.032  12.179  63.264  0.00  0.00    +0.040 A 
ATOM     13  C   UNL     1     -12.293  12.712  63.503  0.00  0.00    +0.103 A 
ATOM     14  N   UNL     1     -12.834  12.566  64.737  0.00  0.00    -0.211 NA
BRANCH  11  15
ATOM     15  C   UNL     1      -9.709  10.148  63.864  0.00  0.00    +0.037 A 
ATOM     16  C   UNL     1      -9.146   9.426  64.897  0.00  0.00    +0.100 A 
ATOM     17  N   UNL     1      -8.098   8.594  64.684  0.00  0.00    -0.242 NA
ATOM     18  C   UNL     1      -7.223   8.917  63.701  0.00  0.00    +0.099 A 
ATOM     19  C   UNL     1      -7.769   9.505  62.568  0.00  0.00    +0.021 A 
ATOM     20  C   UNL     1      -9.005  10.130  62.665  0.00  0.00    +0.005 A 
ENDBRANCH  11  15
ENDBRANCH   3   8
BRANCH   5  21
ATOM     21  N   UNL     1      -9.575  16.703  67.426  0.00  0.00    -0.175 NA
ATOM     22  C   UNL     1      -9.521  17.883  66.628  0.00  0.00    +0.269 C 
ATOM     23  O   UNL     1     -10.511  18.667  66.738  0.00  0.00    -0.268 OA
BRANCH  22  24
ATOM     24  C   UNL     1      -8.251  18.475  66.191  0.00  0.00    +0.055 A 
ATOM     25  C   UNL     1      -7.110  17.688  66.104  0.00  0.00    +0.004 A 
ATOM     26  C   UNL     1      -5.863  18.237  66.372  0.00  0.00    -0.003 A 
ATOM     27  C   UNL     1      -5.710  19.563  66.760  0.00  0.00    -0.006 A 
ATOM     28  C   UNL     1      -6.811  20.379  66.538  0.00  0.00    -0.003 A 
ATOM     29  C   UNL     1      -8.039  19.844  66.180  0.00  0.00    +0.004 A 
BRANCH  27  30
ATOM     30  C   UNL     1      -4.699  19.927  67.769  0.00  0.00    +0.099 C 
BRANCH  30  31
ATOM     31  N   UNL     1      -5.232  20.233  69.059  0.00  0.00    -0.267 NA
ATOM     32  C   UNL     1      -5.913  19.157  69.708  0.00  0.00    +0.090 C 
ATOM     33  C   UNL     1      -5.074  18.396  70.694  0.00  0.00    +0.090 C 
ATOM     34  N   UNL     1      -4.632  19.360  71.699  0.00  0.00    -0.269 NA
ATOM     35  C   UNL     1      -5.839  20.062  72.125  0.00  0.00    +0.090 C 
ATOM     36  C   UNL     1      -3.735  20.265  71.017  0.00  0.00    +0.090 C 
ATOM     37  C   UNL     1      -4.387  21.020  69.898  0.00  0.00    +0.090 C 
ENDBRANCH  30  31
ENDBRANCH  27  30
ENDBRANCH  22  24
ENDBRANCH   5  21
TORSDOF 6
ENDMDL
MODEL 2
REMARK VINA RESULT:      -8.0      1.236      1.634
REMARK  Name = 
REMARK  6 active torsions:
REMARK  status: ('A' for Active; 'I' for Inactive)
REMARK    1  A    between atoms: C_5  and  N_6
REMARK    2  A    between atoms: C_7  and  C_9
REMARK    3  A    between atoms: C_12  and  C_13
REMARK    4  A    between atoms: C_13  and  N_14
REMARK    5  A    between atoms: C_24  and  N_25
REMARK    6  A    between atoms: C_30  and  C_31
REMARK                            x       y       z     vdW  Elec       q    Type
REMARK                         _______ _______ _______ _____ _____    ______ ____
ROOT
ATOM      1  C   UNL     1     -11.679  12.401  69.979  0.00  0.00    +0.032 C 
ATOM      2  C   UNL     1     -12.045  13.642  69.227  0.00  0.00    -0.006 A 
ATOM      3  C   UNL     1     -11.946  13.718  67.844  0.00  0.00    +0.071 A 
ATOM      4  C   UNL     1     -11.385  14.833  67.233  0.00  0.00    +0.033 A 
ATOM      5  C   UNL     1     -11.061  15.966  67.969  0.00  0.00    +0.075 A 
ATOM      6  C   UNL     1     -11.606  16.010  69.247  0.00  0.00    +0.016 A 
ATOM      7  C   UNL     1     -12.052  14.862  69.892  0.00  0.00    -0.002 A 
ENDROOT
BRANCH   3   8
ATOM      8  N   UNL     1     -12.197  12.507  67.133  0.00  0.00    -0.178 NA
ATOM      9  C   UNL     1     -11.856  12.317  65.770  0.00  0.00    +0.241 A 
ATOM     10  N   UNL     1     -10.742  11.654  65.373  0.00  0.00    -0.212 NA
ATOM     11  C   UNL     1     -10.335  11.648  64.080  0.00  0.00    +0.087 A 
ATOM     12  C   UNL     1     -11.120  12.405  63.218  0.00  0.00    +0.040 A 
ATOM     13  C   UNL     1     -12.427  12.707  63.580  0.00  0.00    +0.103 A 
ATOM     14  N   UNL     1     -12.836  12.404  64.837  0.00  0.00    -0.211 NA
BRANCH  11  15
ATOM     15  C   UNL     1      -9.443  10.591  63.583  0.00  0.00    +0.037 A 
ATOM     16  C   UNL     1      -8.600  10.000  64.503  0.00  0.00    +0.100 A 
ATOM     17  N   UNL     1      -7.457   9.383  64.115  0.00  0.00    -0.242 NA
ATOM     18  C   UNL     1      -6.822   9.861  63.018  0.00  0.00    +0.099 A 
ATOM     19  C   UNL     1      -7.638  10.322  61.993  0.00  0.00    +0.021 A 
ATOM     20  C   UNL     1      -8.941  10.698  62.291  0.00  0.00    +0.005 A 
ENDBRANCH  11  15
ENDBRANCH   3   8
BRANCH   5  21
ATOM     21  N   UNL     1      -9.935  16.781  67.663  0.00  0.00    -0.175 NA
ATOM     22  C   UNL     1     -10.051  18.110  67.159  0.00  0.00    +0.269 C 
ATOM     23  O   UNL     1     -11.062  18.762  67.560  0.00  0.00    -0.268 OA
BRANCH  22  24
ATOM     24  C   UNL     1      -8.884  18.891  66.734  0.00  0.00    +0.055 A 
ATOM     25  C   UNL     1      -7.882  18.292  65.982  0.00  0.00    +0.004 A 
ATOM     26  C   UNL     1      -6.562  18.694  66.133  0.00  0.00    -0.003 A 
ATOM     27  C   UNL     1      -6.191  19.675  67.045  0.00  0.00    -0.006 A 
ATOM     28  C   UNL     1      -7.230  20.451  67.541  0.00  0.00    -0.003 A 
ATOM     29  C   UNL     1      -8.554  20.104  67.316  0.00  0.00    +0.004 A 
BRANCH  27  30
ATOM     30  C   UNL     1      -4.927  19.550  67.794  0.00  0.00    +0.099 C 
BRANCH  30  31
ATOM     31  N   UNL     1      -4.581  18.211  68.154  0.00  0.00    -0.267 NA
ATOM     32  C   UNL     1      -3.180  17.954  68.272  0.00  0.00    +0.090 C 
ATOM     33  C   UNL     1      -2.651  18.028  69.675  0.00  0.00    +0.090 C 
ATOM     34  N   UNL     1      -3.388  17.034  70.453  0.00  0.00    -0.269 NA
ATOM     35  C   UNL     1      -3.306  15.796  69.683  0.00  0.00    +0.090 C 
ATOM     36  C   UNL     1      -4.753  17.504  70.509  0.00  0.00    +0.090 C 
ATOM     37  C   UNL     1      -5.401  17.619  69.162  0.00  0.00    +0.090 C 
ENDBRANCH  30  31
ENDBRANCH  27  30
ENDBRANCH  22  24
ENDBRANCH   5  21
TORSDOF 6
ENDMDL
MODEL 3
REMARK VINA RESULT:      -8.0      2.665      4.107
REMARK  Name = 
REMARK  6 active torsions:
REMARK  status: ('A' for Active; 'I' for Inactive)
REMARK    1  A    between atoms: C_5  and  N_6
REMARK    2  A    between atoms: C_7  and  C_9
REMARK    3  A    between atoms: C_12  and  C_13
REMARK    4  A    between atoms: C_13  and  N_14
REMARK    5  A    between atoms: C_24  and  N_25
REMARK    6  A    between atoms: C_30  and  C_31
REMARK                            x       y       z     vdW  Elec       q    Type
REMARK                         _______ _______ _______ _____ _____    ______ ____
ROOT
ATOM      1  C   UNL     1     -11.887  12.314  70.209  0.00  0.00    +0.032 C 
ATOM      2  C   UNL     1     -12.075  13.601  69.469  0.00  0.00    -0.006 A 
ATOM      3  C   UNL     1     -11.855  13.700  68.101  0.00  0.00    +0.071 A 
ATOM      4  C   UNL     1     -11.147  14.771  67.572  0.00  0.00    +0.033 A 
ATOM      5  C   UNL     1     -10.783  15.852  68.366  0.00  0.00    +0.075 A 
ATOM      6  C   UNL     1     -11.427  15.917  69.597  0.00  0.00    +0.016 A 
ATOM      7  C   UNL     1     -12.027  14.800  70.168  0.00  0.00    -0.002 A 
ENDROOT
BRANCH   3   8
ATOM      8  N   UNL     1     -12.155  12.534  67.335  0.00  0.00    -0.178 NA
ATOM      9  C   UNL     1     -11.817  12.391  65.966  0.00  0.00    +0.241 A 
ATOM     10  N   UNL     1     -10.731  11.700  65.542  0.00  0.00    -0.212 NA
ATOM     11  C   UNL     1     -10.320  11.734  64.250  0.00  0.00    +0.087 A 
ATOM     12  C   UNL     1     -11.068  12.563  63.422  0.00  0.00    +0.040 A 
ATOM     13  C   UNL     1     -12.362  12.904  63.795  0.00  0.00    +0.103 A 
ATOM     14  N   UNL     1     -12.789  12.563  65.035  0.00  0.00    -0.211 NA
BRANCH  11  15
ATOM     15  C   UNL     1      -9.472  10.664  63.707  0.00  0.00    +0.037 A 
ATOM     16  C   UNL     1      -8.552  10.098  64.567  0.00  0.00    +0.100 A 
ATOM     17  N   UNL     1      -7.445   9.471  64.100  0.00  0.00    -0.242 NA
ATOM     18  C   UNL     1      -6.908   9.917  62.938  0.00  0.00    +0.099 A 
ATOM     19  C   UNL     1      -7.810  10.350  61.975  0.00  0.00    +0.021 A 
ATOM     20  C   UNL     1      -9.084  10.735  62.374  0.00  0.00    +0.005 A 
ENDBRANCH  11  15
ENDBRANCH   3   8
BRANCH   5  21
ATOM     21  N   UNL     1      -9.566  16.566  68.177  0.00  0.00    -0.175 NA
ATOM     22  C   UNL     1      -9.465  17.721  67.348  0.00  0.00    +0.269 C 
ATOM     23  O   UNL     1     -10.500  18.450  67.292  0.00  0.00    -0.268 OA
BRANCH  22  24
ATOM     24  C   UNL     1      -8.179  18.372  67.067  0.00  0.00    +0.055 A 
ATOM     25  C   UNL     1      -8.009  19.723  67.337  0.00  0.00    +0.004 A 
ATOM     26  C   UNL     1      -7.182  20.495  66.533  0.00  0.00    -0.003 A 
ATOM     27  C   UNL     1      -6.525  19.966  65.429  0.00  0.00    -0.006 A 
ATOM     28  C   UNL     1      -6.472  18.580  65.376  0.00  0.00    -0.003 A 
ATOM     29  C   UNL     1      -7.227  17.800  66.238  0.00  0.00    +0.004 A 
BRANCH  27  30
ATOM     30  C   UNL     1      -6.375  20.768  64.201  0.00  0.00    +0.099 C 
BRANCH  30  31
ATOM     31  N   UNL     1      -5.233  20.434  63.409  0.00  0.00    -0.267 NA
ATOM     32  C   UNL     1      -5.512  19.688  62.223  0.00  0.00    +0.090 C 
ATOM     33  C   UNL     1      -5.614  20.519  60.976  0.00  0.00    +0.090 C 
ATOM     34  N   UNL     1      -4.332  21.204  60.823  0.00  0.00    -0.269 NA
ATOM     35  C   UNL     1      -3.315  20.163  60.951  0.00  0.00    +0.090 C 
ATOM     36  C   UNL     1      -4.243  22.134  61.925  0.00  0.00    +0.090 C 
ATOM     37  C   UNL     1      -4.262  21.470  63.270  0.00  0.00    +0.090 C 
ENDBRANCH  30  31
ENDBRANCH  27  30
ENDBRANCH  22  24
ENDBRANCH   5  21
TORSDOF 6
ENDMDL
MODEL 4
REMARK VINA RESULT:      -7.6      3.776     10.257
REMARK  Name = 
REMARK  6 active torsions:
REMARK  status: ('A' for Active; 'I' for Inactive)
REMARK    1  A    between atoms: C_5  and  N_6
REMARK    2  A    between atoms: C_7  and  C_9
REMARK    3  A    between atoms: C_12  and  C_13
REMARK    4  A    between atoms: C_13  and  N_14
REMARK    5  A    between atoms: C_24  and  N_25
REMARK    6  A    between atoms: C_30  and  C_31
REMARK                            x       y       z     vdW  Elec       q    Type
REMARK                         _______ _______ _______ _____ _____    ______ ____
ROOT
ATOM      1  C   UNL     1     -11.830  15.154  64.465  0.00  0.00    +0.032 C 
ATOM      2  C   UNL     1     -11.389  14.828  65.858  0.00  0.00    -0.006 A 
ATOM      3  C   UNL     1     -10.093  15.071  66.293  0.00  0.00    +0.071 A 
ATOM      4  C   UNL     1      -9.399  14.115  67.025  0.00  0.00    +0.033 A 
ATOM      5  C   UNL     1     -10.032  12.966  67.484  0.00  0.00    +0.075 A 
ATOM      6  C   UNL     1     -11.421  12.998  67.424  0.00  0.00    +0.016 A 
ATOM      7  C   UNL     1     -12.096  13.883  66.591  0.00  0.00    -0.002 A 
ENDROOT
BRANCH   3   8
ATOM      8  N   UNL     1      -9.448  16.209  65.726  0.00  0.00    -0.178 NA
ATOM      9  C   UNL     1      -9.480  17.499  66.315  0.00  0.00    +0.241 A 
ATOM     10  N   UNL     1      -8.461  17.997  67.056  0.00  0.00    -0.212 NA
ATOM     11  C   UNL     1      -8.586  19.146  67.766  0.00  0.00    +0.087 A 
ATOM     12  C   UNL     1      -9.845  19.734  67.705  0.00  0.00    +0.040 A 
ATOM     13  C   UNL     1     -10.688  19.424  66.645  0.00  0.00    +0.103 A 
ATOM     14  N   UNL     1     -10.325  18.427  65.801  0.00  0.00    -0.211 NA
BRANCH  11  15
ATOM     15  C   UNL     1      -7.397  19.910  68.167  0.00  0.00    +0.037 A 
ATOM     16  C   UNL     1      -7.049  20.987  67.376  0.00  0.00    +0.100 A 
ATOM     17  N   UNL     1      -5.781  21.463  67.354  0.00  0.00    -0.242 NA
ATOM     18  C   UNL     1      -4.771  20.582  67.556  0.00  0.00    +0.099 A 
ATOM     19  C   UNL     1      -5.021  19.566  68.469  0.00  0.00    +0.021 A 
ATOM     20  C   UNL     1      -6.337  19.230  68.755  0.00  0.00    +0.005 A 
ENDBRANCH  11  15
ENDBRANCH   3   8
BRANCH   5  21
ATOM     21  N   UNL     1      -9.367  11.711  67.575  0.00  0.00    -0.175 NA
ATOM     22  C   UNL     1      -9.403  10.735  66.537  0.00  0.00    +0.269 C 
ATOM     23  O   UNL     1      -9.476  11.191  65.356  0.00  0.00    -0.268 OA
BRANCH  22  24
ATOM     24  C   UNL     1      -8.815   9.399  66.697  0.00  0.00    +0.055 A 
ATOM     25  C   UNL     1      -9.487   8.281  66.222  0.00  0.00    +0.004 A 
ATOM     26  C   UNL     1      -9.377   7.067  66.887  0.00  0.00    -0.003 A 
ATOM     27  C   UNL     1      -8.628   6.930  68.049  0.00  0.00    -0.006 A 
ATOM     28  C   UNL     1      -7.741   7.965  68.313  0.00  0.00    -0.003 A 
ATOM     29  C   UNL     1      -7.785   9.148  67.590  0.00  0.00    +0.004 A 
BRANCH  27  30
ATOM     30  C   UNL     1      -9.105   6.057  69.138  0.00  0.00    +0.099 C 
BRANCH  30  31
ATOM     31  N   UNL     1      -9.514   6.751  70.319  0.00  0.00    -0.267 NA
ATOM     32  C   UNL     1     -10.760   7.444  70.216  0.00  0.00    +0.090 C 
ATOM     33  C   UNL     1     -11.939   6.686  70.753  0.00  0.00    +0.090 C 
ATOM     34  N   UNL     1     -11.656   6.414  72.161  0.00  0.00    -0.269 NA
ATOM     35  C   UNL     1     -11.263   7.698  72.736  0.00  0.00    +0.090 C 
ATOM     36  C   UNL     1     -10.542   5.493  72.173  0.00  0.00    +0.090 C 
ATOM     37  C   UNL     1      -9.300   6.051  71.544  0.00  0.00    +0.090 C 
ENDBRANCH  30  31
ENDBRANCH  27  30
ENDBRANCH  22  24
ENDBRANCH   5  21
TORSDOF 6
ENDMDL
MODEL 5
REMARK VINA RESULT:      -7.5      5.190     11.055
REMARK  Name = 
REMARK  6 active torsions:
REMARK  status: ('A' for Active; 'I' for Inactive)
REMARK    1  A    between atoms: C_5  and  N_6
REMARK    2  A    between atoms: C_7  and  C_9
REMARK    3  A    between atoms: C_12  and  C_13
REMARK    4  A    between atoms: C_13  and  N_14
REMARK    5  A    between atoms: C_24  and  N_25
REMARK    6  A    between atoms: C_30  and  C_31
REMARK                            x       y       z     vdW  Elec       q    Type
REMARK                         _______ _______ _______ _____ _____    ______ ____
ROOT
ATOM      1  C   UNL     1     -10.682  15.035  64.991  0.00  0.00    +0.032 C 
ATOM      2  C   UNL     1     -10.790  14.837  66.470  0.00  0.00    -0.006 A 
ATOM      3  C   UNL     1      -9.676  14.582  67.260  0.00  0.00    +0.071 A 
ATOM      4  C   UNL     1      -9.707  13.589  68.232  0.00  0.00    +0.033 A 
ATOM      5  C   UNL     1     -10.893  12.940  68.555  0.00  0.00    +0.075 A 
ATOM      6  C   UNL     1     -12.046  13.553  68.075  0.00  0.00    +0.016 A 
ATOM      7  C   UNL     1     -12.008  14.455  67.018  0.00  0.00    -0.002 A 
ENDROOT
BRANCH   3   8
ATOM      8  N   UNL     1      -8.459  15.195  66.838  0.00  0.00    -0.178 NA
ATOM      9  C   UNL     1      -8.139  16.552  67.094  0.00  0.00    +0.241 A 
ATOM     10  N   UNL     1      -7.324  16.941  68.104  0.00  0.00    -0.212 NA
ATOM     11  C   UNL     1      -7.182  18.244  68.449  0.00  0.00    +0.087 A 
ATOM     12  C   UNL     1      -7.969  19.129  67.721  0.00  0.00    +0.040 A 
ATOM     13  C   UNL     1      -8.448  18.742  66.475  0.00  0.00    +0.103 A 
ATOM     14  N   UNL     1      -8.281  17.453  66.090  0.00  0.00    -0.211 NA
BRANCH  11  15
ATOM     15  C   UNL     1      -5.996  18.697  69.189  0.00  0.00    +0.037 A 
ATOM     16  C   UNL     1      -5.612  17.941  70.279  0.00  0.00    +0.100 A 
ATOM     17  N   UNL     1      -4.867  18.474  71.277  0.00  0.00    -0.242 NA
ATOM     18  C   UNL     1      -5.030  19.791  71.554  0.00  0.00    +0.099 A 
ATOM     19  C   UNL     1      -5.261  20.619  70.463  0.00  0.00    +0.021 A 
ATOM     20  C   UNL     1      -5.758  20.063  69.292  0.00  0.00    +0.005 A 
ENDBRANCH  11  15
ENDBRANCH   3   8
BRANCH   5  21
ATOM     21  N   UNL     1     -10.937  11.568  68.929  0.00  0.00    -0.175 NA
ATOM     22  C   UNL     1     -11.433  11.121  70.189  0.00  0.00    +0.269 C 
ATOM     23  O   UNL     1     -12.364  11.819  70.691  0.00  0.00    -0.268 OA
BRANCH  22  24
ATOM     24  C   UNL     1     -11.357   9.716  70.606  0.00  0.00    +0.055 A 
ATOM     25  C   UNL     1     -12.225   9.229  71.574  0.00  0.00    +0.004 A 
ATOM     26  C   UNL     1     -11.807   8.237  72.450  0.00  0.00    -0.003 A 
ATOM     27  C   UNL     1     -10.518   7.720  72.414  0.00  0.00    -0.006 A 
ATOM     28  C   UNL     1      -9.795   7.999  71.263  0.00  0.00    -0.003 A 
ATOM     29  C   UNL     1     -10.253   8.923  70.336  0.00  0.00    +0.004 A 
BRANCH  27  30
ATOM     30  C   UNL     1      -9.824   7.375  73.669  0.00  0.00    +0.099 C 
BRANCH  30  31
ATOM     31  N   UNL     1     -10.207   6.119  74.234  0.00  0.00    -0.267 NA
ATOM     32  C   UNL     1     -10.155   5.007  73.337  0.00  0.00    +0.090 C 
ATOM     33  C   UNL     1      -8.896   4.194  73.431  0.00  0.00    +0.090 C 
ATOM     34  N   UNL     1      -8.813   3.706  74.806  0.00  0.00    -0.269 NA
ATOM     35  C   UNL     1     -10.116   3.110  75.088  0.00  0.00    +0.090 C 
ATOM     36  C   UNL     1      -8.603   4.875  75.630  0.00  0.00    +0.090 C 
ATOM     37  C   UNL     1      -9.722   5.869  75.552  0.00  0.00    +0.090 C 
ENDBRANCH  30  31
ENDBRANCH  27  30
ENDBRANCH  22  24
ENDBRANCH   5  21
TORSDOF 6
ENDMDL
MODEL 6
REMARK VINA RESULT:      -7.5      3.691     10.980
REMARK  Name = 
REMARK  6 active torsions:
REMARK  status: ('A' for Active; 'I' for Inactive)
REMARK    1  A    between atoms: C_5  and  N_6
REMARK    2  A    between atoms: C_7  and  C_9
REMARK    3  A    between atoms: C_12  and  C_13
REMARK    4  A    between atoms: C_13  and  N_14
REMARK    5  A    between atoms: C_24  and  N_25
REMARK    6  A    between atoms: C_30  and  C_31
REMARK                            x       y       z     vdW  Elec       q    Type
REMARK                         _______ _______ _______ _____ _____    ______ ____
ROOT
ATOM      1  C   UNL     1     -10.666  14.477  64.655  0.00  0.00    +0.032 C 
ATOM      2  C   UNL     1     -10.863  14.428  66.138  0.00  0.00    -0.006 A 
ATOM      3  C   UNL     1      -9.791  14.415  67.020  0.00  0.00    +0.071 A 
ATOM      4  C   UNL     1      -9.769  13.538  68.098  0.00  0.00    +0.033 A 
ATOM      5  C   UNL     1     -10.883  12.772  68.420  0.00  0.00    +0.075 A 
ATOM      6  C   UNL     1     -12.064  13.164  67.800  0.00  0.00    +0.016 A 
ATOM      7  C   UNL     1     -12.061  13.943  66.648  0.00  0.00    -0.002 A 
ENDROOT
BRANCH   3   8
ATOM      8  N   UNL     1      -8.634  15.140  66.606  0.00  0.00    -0.178 NA
ATOM      9  C   UNL     1      -8.399  16.496  66.948  0.00  0.00    +0.241 A 
ATOM     10  N   UNL     1      -7.577  16.871  67.958  0.00  0.00    -0.212 NA
ATOM     11  C   UNL     1      -7.514  18.155  68.390  0.00  0.00    +0.087 A 
ATOM     12  C   UNL     1      -8.384  19.029  67.750  0.00  0.00    +0.040 A 
ATOM     13  C   UNL     1      -8.879  18.695  66.495  0.00  0.00    +0.103 A 
ATOM     14  N   UNL     1      -8.637  17.451  66.014  0.00  0.00    -0.211 NA
BRANCH  11  15
ATOM     15  C   UNL     1      -6.337  18.639  69.124  0.00  0.00    +0.037 A 
ATOM     16  C   UNL     1      -5.712  17.741  69.966  0.00  0.00    +0.100 A 
ATOM     17  N   UNL     1      -4.950  18.163  71.004  0.00  0.00    -0.242 NA
ATOM     18  C   UNL     1      -5.286  19.331  71.602  0.00  0.00    +0.099 A 
ATOM     19  C   UNL     1      -5.773  20.327  70.765  0.00  0.00    +0.021 A 
ATOM     20  C   UNL     1      -6.309  19.967  69.535  0.00  0.00    +0.005 A 
ENDBRANCH  11  15
ENDBRANCH   3   8
BRANCH   5  21
ATOM     21  N   UNL     1     -10.778  11.455  68.950  0.00  0.00    -0.175 NA
ATOM     22  C   UNL     1     -11.293  11.087  70.227  0.00  0.00    +0.269 C 
ATOM     23  O   UNL     1     -12.335  11.707  70.597  0.00  0.00    -0.268 OA
BRANCH  22  24
ATOM     24  C   UNL     1     -11.069   9.759  70.809  0.00  0.00    +0.055 A 
ATOM     25  C   UNL     1      -9.832   9.141  70.678  0.00  0.00    +0.004 A 
ATOM     26  C   UNL     1      -9.751   7.760  70.571  0.00  0.00    -0.003 A 
ATOM     27  C   UNL     1     -10.884   6.955  70.562  0.00  0.00    -0.006 A 
ATOM     28  C   UNL     1     -12.052   7.564  70.999  0.00  0.00    -0.003 A 
ATOM     29  C   UNL     1     -12.114   8.935  71.196  0.00  0.00    +0.004 A 
BRANCH  27  30
ATOM     30  C   UNL     1     -10.940   5.765  69.691  0.00  0.00    +0.099 C 
BRANCH  30  31
ATOM     31  N   UNL     1      -9.948   5.736  68.663  0.00  0.00    -0.267 NA
ATOM     32  C   UNL     1      -9.057   4.619  68.708  0.00  0.00    +0.090 C 
ATOM     33  C   UNL     1      -9.437   3.485  67.800  0.00  0.00    +0.090 C 
ATOM     34  N   UNL     1      -9.461   4.025  66.443  0.00  0.00    -0.269 NA
ATOM     35  C   UNL     1      -8.190   4.726  66.278  0.00  0.00    +0.090 C 
ATOM     36  C   UNL     1     -10.562   4.960  66.405  0.00  0.00    +0.090 C 
ATOM     37  C   UNL     1     -10.407   6.104  67.362  0.00  0.00    +0.090 C 
ENDBRANCH  30  31
ENDBRANCH  27  30
ENDBRANCH  22  24
ENDBRANCH   5  21
TORSDOF 6
ENDMDL
MODEL 7
REMARK VINA RESULT:      -7.4      3.981      7.116
REMARK  Name = 
REMARK  6 active torsions:
REMARK  status: ('A' for Active; 'I' for Inactive)
REMARK    1  A    between atoms: C_5  and  N_6
REMARK    2  A    between atoms: C_7  and  C_9
REMARK    3  A    between atoms: C_12  and  C_13
REMARK    4  A    between atoms: C_13  and  N_14
REMARK    5  A    between atoms: C_24  and  N_25
REMARK    6  A    between atoms: C_30  and  C_31
REMARK                            x       y       z     vdW  Elec       q    Type
REMARK                         _______ _______ _______ _____ _____    ______ ____
ROOT
ATOM      1  C   UNL     1      -9.811  19.859  67.952  0.00  0.00    +0.032 C 
ATOM      2  C   UNL     1      -9.083  19.257  66.792  0.00  0.00    -0.006 A 
ATOM      3  C   UNL     1      -9.256  17.929  66.425  0.00  0.00    +0.071 A 
ATOM      4  C   UNL     1      -8.163  17.129  66.115  0.00  0.00    +0.033 A 
ATOM      5  C   UNL     1      -6.889  17.671  66.001  0.00  0.00    +0.075 A 
ATOM      6  C   UNL     1      -6.848  19.059  65.916  0.00  0.00    +0.016 A 
ATOM      7  C   UNL     1      -7.908  19.849  66.345  0.00  0.00    -0.002 A 
ENDROOT
BRANCH   3   8
ATOM      8  N   UNL     1     -10.557  17.386  66.646  0.00  0.00    -0.178 NA
ATOM      9  C   UNL     1     -10.820  16.337  67.564  0.00  0.00    +0.241 A 
ATOM     10  N   UNL     1     -11.315  16.550  68.807  0.00  0.00    -0.212 NA
ATOM     11  C   UNL     1     -11.380  15.561  69.732  0.00  0.00    +0.087 A 
ATOM     12  C   UNL     1     -10.859  14.341  69.317  0.00  0.00    +0.040 A 
ATOM     13  C   UNL     1     -10.753  14.076  67.957  0.00  0.00    +0.103 A 
ATOM     14  N   UNL     1     -10.996  15.082  67.081  0.00  0.00    -0.211 NA
BRANCH  11  15
ATOM     15  C   UNL     1     -12.310  15.656  70.865  0.00  0.00    +0.037 A 
ATOM     16  C   UNL     1     -11.857  16.312  71.993  0.00  0.00    +0.100 A 
ATOM     17  N   UNL     1     -12.400  16.073  73.211  0.00  0.00    -0.242 NA
ATOM     18  C   UNL     1     -12.883  14.831  73.456  0.00  0.00    +0.099 A 
ATOM     19  C   UNL     1     -13.495  14.192  72.385  0.00  0.00    +0.021 A 
ATOM     20  C   UNL     1     -13.189  14.604  71.094  0.00  0.00    +0.005 A 
ENDBRANCH  11  15
ENDBRANCH   3   8
BRANCH   5  21
ATOM     21  N   UNL     1      -5.717  16.961  66.388  0.00  0.00    -0.175 NA
ATOM     22  C   UNL     1      -5.019  17.219  67.604  0.00  0.00    +0.269 C 
ATOM     23  O   UNL     1      -5.736  17.597  68.579  0.00  0.00    -0.268 OA
BRANCH  22  24
ATOM     24  C   UNL     1      -3.747  16.564  67.930  0.00  0.00    +0.055 A 
ATOM     25  C   UNL     1      -3.524  15.248  67.548  0.00  0.00    +0.004 A 
ATOM     26  C   UNL     1      -2.748  14.414  68.342  0.00  0.00    -0.003 A 
ATOM     27  C   UNL     1      -2.197  14.845  69.543  0.00  0.00    -0.006 A 
ATOM     28  C   UNL     1      -2.181  16.220  69.732  0.00  0.00    -0.003 A 
ATOM     29  C   UNL     1      -2.880  17.068  68.887  0.00  0.00    +0.004 A 
BRANCH  27  30
ATOM     30  C   UNL     1      -2.131  13.929  70.698  0.00  0.00    +0.099 C 
BRANCH  30  31
ATOM     31  N   UNL     1      -3.040  14.241  71.755  0.00  0.00    -0.267 NA
ATOM     32  C   UNL     1      -4.423  14.221  71.395  0.00  0.00    +0.090 C 
ATOM     33  C   UNL     1      -5.131  12.938  71.724  0.00  0.00    +0.090 C 
ATOM     34  N   UNL     1      -5.008  12.750  73.167  0.00  0.00    -0.269 NA
ATOM     35  C   UNL     1      -5.429  14.014  73.764  0.00  0.00    +0.090 C 
ATOM     36  C   UNL     1      -3.605  12.515  73.421  0.00  0.00    +0.090 C 
ATOM     37  C   UNL     1      -2.726  13.662  73.021  0.00  0.00    +0.090 C 
ENDBRANCH  30  31
ENDBRANCH  27  30
ENDBRANCH  22  24
ENDBRANCH   5  21
TORSDOF 6
ENDMDL
MODEL 8
REMARK VINA RESULT:      -7.4      5.611      8.436
REMARK  Name = 
REMARK  6 active torsions:
REMARK  status: ('A' for Active; 'I' for Inactive)
REMARK    1  A    between atoms: C_5  and  N_6
REMARK    2  A    between atoms: C_7  and  C_9
REMARK    3  A    between atoms: C_12  and  C_13
REMARK    4  A    between atoms: C_13  and  N_14
REMARK    5  A    between atoms: C_24  and  N_25
REMARK    6  A    between atoms: C_30  and  C_31
REMARK                            x       y       z     vdW  Elec       q    Type
REMARK                         _______ _______ _______ _____ _____    ______ ____
ROOT
ATOM      1  C   UNL     1     -11.036   6.041  68.593  0.00  0.00    +0.032 C 
ATOM      2  C   UNL     1     -10.131   7.080  68.010  0.00  0.00    -0.006 A 
ATOM      3  C   UNL     1      -9.139   7.695  68.763  0.00  0.00    +0.071 A 
ATOM      4  C   UNL     1      -8.949   9.070  68.700  0.00  0.00    +0.033 A 
ATOM      5  C   UNL     1      -9.628   9.844  67.767  0.00  0.00    +0.075 A 
ATOM      6  C   UNL     1     -10.243   9.127  66.746  0.00  0.00    +0.016 A 
ATOM      7  C   UNL     1     -10.535   7.774  66.876  0.00  0.00    -0.002 A 
ENDROOT
BRANCH   3   8
ATOM      8  N   UNL     1      -8.533   6.889  69.772  0.00  0.00    -0.178 NA
ATOM      9  C   UNL     1      -8.838   7.006  71.152  0.00  0.00    +0.241 A 
ATOM     10  N   UNL     1      -9.690   6.170  71.793  0.00  0.00    -0.212 NA
ATOM     11  C   UNL     1     -10.114   6.411  73.058  0.00  0.00    +0.087 A 
ATOM     12  C   UNL     1      -9.644   7.595  73.614  0.00  0.00    +0.040 A 
ATOM     13  C   UNL     1      -8.493   8.178  73.096  0.00  0.00    +0.103 A 
ATOM     14  N   UNL     1      -7.968   7.669  71.955  0.00  0.00    -0.211 NA
BRANCH  11  15
ATOM     15  C   UNL     1     -10.632   5.320  73.894  0.00  0.00    +0.037 A 
ATOM     16  C   UNL     1      -9.948   5.047  75.062  0.00  0.00    +0.100 A 
ATOM     17  N   UNL     1     -10.026   3.831  75.654  0.00  0.00    -0.242 NA
ATOM     18  C   UNL     1     -10.204   2.749  74.858  0.00  0.00    +0.099 A 
ATOM     19  C   UNL     1     -11.020   2.935  73.750  0.00  0.00    +0.021 A 
ATOM     20  C   UNL     1     -11.214   4.223  73.268  0.00  0.00    +0.005 A 
ENDBRANCH  11  15
ENDBRANCH   3   8
BRANCH   5  21
ATOM     21  N   UNL     1     -10.058  11.173  68.043  0.00  0.00    -0.175 NA
ATOM     22  C   UNL     1     -11.422  11.514  68.283  0.00  0.00    +0.269 C 
ATOM     23  O   UNL     1     -12.119  10.621  68.851  0.00  0.00    -0.268 OA
BRANCH  22  24
ATOM     24  C   UNL     1     -11.863  12.904  68.444  0.00  0.00    +0.055 A 
ATOM     25  C   UNL     1     -11.714  13.808  67.401  0.00  0.00    +0.004 A 
ATOM     26  C   UNL     1     -11.460  15.146  67.669  0.00  0.00    -0.003 A 
ATOM     27  C   UNL     1     -11.319  15.623  68.966  0.00  0.00    -0.006 A 
ATOM     28  C   UNL     1     -11.773  14.774  69.966  0.00  0.00    -0.003 A 
ATOM     29  C   UNL     1     -12.117  13.460  69.689  0.00  0.00    +0.004 A 
BRANCH  27  30
ATOM     30  C   UNL     1     -10.322  16.668  69.267  0.00  0.00    +0.099 C 
BRANCH  30  31
ATOM     31  N   UNL     1      -9.770  17.310  68.116  0.00  0.00    -0.267 NA
ATOM     32  C   UNL     1     -10.489  18.456  67.655  0.00  0.00    +0.090 C 
ATOM     33  C   UNL     1      -9.940  19.768  68.137  0.00  0.00    +0.090 C 
ATOM     34  N   UNL     1      -8.560  19.844  67.662  0.00  0.00    -0.269 NA
ATOM     35  C   UNL     1      -8.619  19.533  66.237  0.00  0.00    +0.090 C 
ATOM     36  C   UNL     1      -7.837  18.816  68.375  0.00  0.00    +0.090 C 
ATOM     37  C   UNL     1      -8.348  17.432  68.108  0.00  0.00    +0.090 C 
ENDBRANCH  30  31
ENDBRANCH  27  30
ENDBRANCH  22  24
ENDBRANCH   5  21
TORSDOF 6
ENDMDL
MODEL 9
REMARK VINA RESULT:      -7.4      5.895      8.798
REMARK  Name = 
REMARK  6 active torsions:
REMARK  status: ('A' for Active; 'I' for Inactive)
REMARK    1  A    between atoms: C_5  and  N_6
REMARK    2  A    between atoms: C_7  and  C_9
REMARK    3  A    between atoms: C_12  and  C_13
REMARK    4  A    between atoms: C_13  and  N_14
REMARK    5  A    between atoms: C_24  and  N_25
REMARK    6  A    between atoms: C_30  and  C_31
REMARK                            x       y       z     vdW  Elec       q    Type
REMARK                         _______ _______ _______ _____ _____    ______ ____
ROOT
ATOM      1  C   UNL     1     -12.105   6.809  70.847  0.00  0.00    +0.032 C 
ATOM      2  C   UNL     1     -10.835   7.408  70.330  0.00  0.00    -0.006 A 
ATOM      3  C   UNL     1     -10.189   8.443  70.993  0.00  0.00    +0.071 A 
ATOM      4  C   UNL     1      -9.702   9.540  70.293  0.00  0.00    +0.033 A 
ATOM      5  C   UNL     1      -9.697   9.559  68.904  0.00  0.00    +0.075 A 
ATOM      6  C   UNL     1      -9.917   8.325  68.301  0.00  0.00    +0.016 A 
ATOM      7  C   UNL     1     -10.518   7.274  68.984  0.00  0.00    -0.002 A 
ENDROOT
BRANCH   3   8
ATOM      8  N   UNL     1     -10.298   8.436  72.416  0.00  0.00    -0.178 NA
ATOM      9  C   UNL     1      -9.353   7.811  73.268  0.00  0.00    +0.241 A 
ATOM     10  N   UNL     1      -8.374   8.492  73.912  0.00  0.00    -0.212 NA
ATOM     11  C   UNL     1      -7.370   7.858  74.566  0.00  0.00    +0.087 A 
ATOM     12  C   UNL     1      -7.404   6.471  74.480  0.00  0.00    +0.040 A 
ATOM     13  C   UNL     1      -8.605   5.840  74.178  0.00  0.00    +0.103 A 
ATOM     14  N   UNL     1      -9.660   6.603  73.803  0.00  0.00    -0.211 NA
BRANCH  11  15
ATOM     15  C   UNL     1      -6.611   8.547  75.618  0.00  0.00    +0.037 A 
ATOM     16  C   UNL     1      -7.214   9.637  76.213  0.00  0.00    +0.100 A 
ATOM     17  N   UNL     1      -6.482  10.599  76.825  0.00  0.00    -0.242 NA
ATOM     18  C   UNL     1      -5.242  10.855  76.341  0.00  0.00    +0.099 A 
ATOM     19  C   UNL     1      -4.530   9.757  75.876  0.00  0.00    +0.021 A 
ATOM     20  C   UNL     1      -5.227   8.615  75.503  0.00  0.00    +0.005 A 
ENDBRANCH  11  15
ENDBRANCH   3   8
BRANCH   5  21
ATOM     21  N   UNL     1      -9.910  10.749  68.154  0.00  0.00    -0.175 NA
ATOM     22  C   UNL     1     -11.198  11.164  67.702  0.00  0.00    +0.269 C 
ATOM     23  O   UNL     1     -12.170  10.850  68.453  0.00  0.00    -0.268 OA
BRANCH  22  24
ATOM     24  C   UNL     1     -11.383  12.327  66.827  0.00  0.00    +0.055 A 
ATOM     25  C   UNL     1     -10.653  12.436  65.650  0.00  0.00    +0.004 A 
ATOM     26  C   UNL     1     -10.269  13.685  65.183  0.00  0.00    -0.003 A 
ATOM     27  C   UNL     1     -10.566  14.854  65.873  0.00  0.00    -0.006 A 
ATOM     28  C   UNL     1     -11.540  14.734  66.855  0.00  0.00    -0.003 A 
ATOM     29  C   UNL     1     -11.997  13.490  67.264  0.00  0.00    +0.004 A 
BRANCH  27  30
ATOM     30  C   UNL     1      -9.588  15.956  65.920  0.00  0.00    +0.099 C 
BRANCH  30  31
ATOM     31  N   UNL     1      -9.902  16.988  66.857  0.00  0.00    -0.267 NA
ATOM     32  C   UNL     1      -8.978  17.130  67.939  0.00  0.00    +0.090 C 
ATOM     33  C   UNL     1      -7.945  18.201  67.737  0.00  0.00    +0.090 C 
ATOM     34  N   UNL     1      -8.671  19.456  67.558  0.00  0.00    -0.269 NA
ATOM     35  C   UNL     1      -9.615  19.523  68.671  0.00  0.00    +0.090 C 
ATOM     36  C   UNL     1      -9.378  19.332  66.304  0.00  0.00    +0.090 C 
ATOM     37  C   UNL     1     -10.371  18.209  66.286  0.00  0.00    +0.090 C 
ENDBRANCH  30  31
ENDBRANCH  27  30
ENDBRANCH  22  24
ENDBRANCH   5  21
TORSDOF 6
ENDMDL
