MODEL 1
REMARK VINA RESULT:      -6.0      0.000      0.000
REMARK  Name = 
REMARK  13 active torsions:
REMARK  status: ('A' for Active; 'I' for Inactive)
REMARK    1  A    between atoms: C_2  and  C_3
REMARK    2  A    between atoms: C_3  and  C_4
REMARK    3  A    between atoms: C_4  and  O_5
REMARK    4  A    between atoms: O_5  and  C_6
REMARK    5  A    between atoms: C_6  and  C_7
REMARK    6  A    between atoms: C_7  and  O_8
REMARK    7  A    between atoms: O_8  and  C_9
REMARK    8  A    between atoms: C_9  and  C_10
REMARK    9  A    between atoms: C_10  and  O_11
REMARK   10  A    between atoms: O_11  and  C_12
REMARK   11  A    between atoms: C_12  and  C_13
REMARK   12  A    between atoms: C_18  and  C_19
REMARK   13  A    between atoms: C_19  and  C_20
REMARK                            x       y       z     vdW  Elec       q    Type
REMARK                         _______ _______ _______ _____ _____    ______ ____
ROOT
ATOM      1  C   UNL     1     -11.186  11.863  68.565  0.00  0.00    +0.168 C 
ENDROOT
BRANCH   1   2
ATOM      2  C   UNL     1     -11.847  12.302  69.826  0.00  0.00    +0.007 A 
ATOM      3  C   UNL     1     -12.249  11.421  70.808  0.00  0.00    -0.021 A 
ATOM      4  C   UNL     1     -13.066  11.914  71.807  0.00  0.00    +0.036 A 
ATOM      5  C   UNL     1     -13.465  13.240  71.826  0.00  0.00    +0.176 A 
ATOM      6  O   UNL     1     -14.545  13.925  72.362  0.00  0.00    -0.435 OA
ATOM      7  C   UNL     1     -14.331  15.302  72.147  0.00  0.00    +0.429 C 
ATOM      8  O   UNL     1     -13.216  15.415  71.294  0.00  0.00    -0.435 OA
ATOM      9  C   UNL     1     -12.732  14.132  71.077  0.00  0.00    +0.176 A 
ATOM     10  C   UNL     1     -11.978  13.654  70.021  0.00  0.00    +0.038 A 
BRANCH   3  11
ATOM     11  C   UNL     1     -12.081   9.977  70.527  0.00  0.00    +0.026 C 
BRANCH  11  12
ATOM     12  C   UNL     1     -11.024   9.357  71.407  0.00  0.00    +0.005 C 
ATOM     13  C   UNL     1     -11.624   8.283  72.285  0.00  0.00    +0.000 C 
ENDBRANCH  11  12
ENDBRANCH   3  11
ENDBRANCH   1   2
BRANCH   1  14
ATOM     14  O   UNL     1     -12.107  11.951  67.510  0.00  0.00    -0.346 OA
BRANCH  14  15
ATOM     15  C   UNL     1     -11.337  12.094  66.349  0.00  0.00    +0.175 C 
BRANCH  15  16
ATOM     16  C   UNL     1     -10.378  13.241  66.543  0.00  0.00    +0.174 C 
BRANCH  16  17
ATOM     17  O   UNL     1     -10.163  13.942  65.363  0.00  0.00    -0.348 OA
BRANCH  17  18
ATOM     18  C   UNL     1     -10.291  15.298  65.603  0.00  0.00    +0.174 C 
BRANCH  18  19
ATOM     19  C   UNL     1     -11.105  16.018  64.564  0.00  0.00    +0.174 C 
BRANCH  19  20
ATOM     20  O   UNL     1     -11.106  17.392  64.714  0.00  0.00    -0.351 OA
BRANCH  20  21
ATOM     21  C   UNL     1     -10.586  17.820  65.923  0.00  0.00    +0.142 C 
BRANCH  21  22
ATOM     22  C   UNL     1     -10.415  19.311  66.007  0.00  0.00    +0.032 C 
BRANCH  22  24
ATOM     23  C   UNL     1      -9.624  18.648  68.208  0.00  0.00    +0.000 C 
ATOM     24  C   UNL     1     -10.269  19.767  67.432  0.00  0.00    +0.003 C 
ENDBRANCH  22  24
ENDBRANCH  21  22
ENDBRANCH  20  21
ENDBRANCH  19  20
ENDBRANCH  18  19
ENDBRANCH  17  18
ENDBRANCH  16  17
ENDBRANCH  15  16
ENDBRANCH  14  15
ENDBRANCH   1  14
TORSDOF 13
ENDMDL
MODEL 2
REMARK VINA RESULT:      -5.8      1.148      1.348
REMARK  Name = 
REMARK  13 active torsions:
REMARK  status: ('A' for Active; 'I' for Inactive)
REMARK    1  A    between atoms: C_2  and  C_3
REMARK    2  A    between atoms: C_3  and  C_4
REMARK    3  A    between atoms: C_4  and  O_5
REMARK    4  A    between atoms: O_5  and  C_6
REMARK    5  A    between atoms: C_6  and  C_7
REMARK    6  A    between atoms: C_7  and  O_8
REMARK    7  A    between atoms: O_8  and  C_9
REMARK    8  A    between atoms: C_9  and  C_10
REMARK    9  A    between atoms: C_10  and  O_11
REMARK   10  A    between atoms: O_11  and  C_12
REMARK   11  A    between atoms: C_12  and  C_13
REMARK   12  A    between atoms: C_18  and  C_19
REMARK   13  A    between atoms: C_19  and  C_20
REMARK                            x       y       z     vdW  Elec       q    Type
REMARK                         _______ _______ _______ _____ _____    ______ ____
ROOT
ATOM      1  C   UNL     1     -11.598  11.247  68.779  0.00  0.00    +0.168 C 
ENDROOT
BRANCH   1   2
ATOM      2  C   UNL     1     -12.105  11.915  70.011  0.00  0.00    +0.007 A 
ATOM      3  C   UNL     1     -12.572  11.216  71.106  0.00  0.00    -0.021 A 
ATOM      4  C   UNL     1     -13.241  11.934  72.078  0.00  0.00    +0.036 A 
ATOM      5  C   UNL     1     -13.435  13.300  71.964  0.00  0.00    +0.176 A 
ATOM      6  O   UNL     1     -14.364  14.198  72.466  0.00  0.00    -0.435 OA
ATOM      7  C   UNL     1     -13.960  15.495  72.085  0.00  0.00    +0.429 C 
ATOM      8  O   UNL     1     -12.897  15.341  71.175  0.00  0.00    -0.435 OA
ATOM      9  C   UNL     1     -12.625  13.983  71.084  0.00  0.00    +0.176 A 
ATOM     10  C   UNL     1     -12.020  13.283  70.057  0.00  0.00    +0.038 A 
BRANCH   3  11
ATOM     11  C   UNL     1     -12.640   9.742  70.984  0.00  0.00    +0.026 C 
BRANCH  11  12
ATOM     12  C   UNL     1     -13.537   9.137  72.035  0.00  0.00    +0.005 C 
ATOM     13  C   UNL     1     -14.065   7.797  71.578  0.00  0.00    +0.000 C 
ENDBRANCH  11  12
ENDBRANCH   3  11
ENDBRANCH   1   2
BRANCH   1  14
ATOM     14  O   UNL     1     -12.038  11.964  67.656  0.00  0.00    -0.346 OA
BRANCH  14  15
ATOM     15  C   UNL     1     -11.204  11.563  66.605  0.00  0.00    +0.175 C 
BRANCH  15  16
ATOM     16  C   UNL     1     -11.561  12.355  65.373  0.00  0.00    +0.174 C 
BRANCH  16  17
ATOM     17  O   UNL     1     -12.295  13.493  65.684  0.00  0.00    -0.348 OA
BRANCH  17  18
ATOM     18  C   UNL     1     -11.943  14.517  64.823  0.00  0.00    +0.174 C 
BRANCH  18  19
ATOM     19  C   UNL     1     -10.535  15.006  65.017  0.00  0.00    +0.174 C 
BRANCH  19  20
ATOM     20  O   UNL     1     -10.455  16.336  65.386  0.00  0.00    -0.351 OA
BRANCH  20  21
ATOM     21  C   UNL     1      -9.428  16.608  66.272  0.00  0.00    +0.142 C 
BRANCH  21  22
ATOM     22  C   UNL     1      -9.143  18.075  66.428  0.00  0.00    +0.032 C 
BRANCH  22  24
ATOM     23  C   UNL     1     -10.021  20.225  67.147  0.00  0.00    +0.000 C 
ATOM     24  C   UNL     1     -10.407  18.861  66.637  0.00  0.00    +0.003 C 
ENDBRANCH  22  24
ENDBRANCH  21  22
ENDBRANCH  20  21
ENDBRANCH  19  20
ENDBRANCH  18  19
ENDBRANCH  17  18
ENDBRANCH  16  17
ENDBRANCH  15  16
ENDBRANCH  14  15
ENDBRANCH   1  14
TORSDOF 13
ENDMDL
MODEL 3
REMARK VINA RESULT:      -5.8      2.575      4.487
REMARK  Name = 
REMARK  13 active torsions:
REMARK  status: ('A' for Active; 'I' for Inactive)
REMARK    1  A    between atoms: C_2  and  C_3
REMARK    2  A    between atoms: C_3  and  C_4
REMARK    3  A    between atoms: C_4  and  O_5
REMARK    4  A    between atoms: O_5  and  C_6
REMARK    5  A    between atoms: C_6  and  C_7
REMARK    6  A    between atoms: C_7  and  O_8
REMARK    7  A    between atoms: O_8  and  C_9
REMARK    8  A    between atoms: C_9  and  C_10
REMARK    9  A    between atoms: C_10  and  O_11
REMARK   10  A    between atoms: O_11  and  C_12
REMARK   11  A    between atoms: C_12  and  C_13
REMARK   12  A    between atoms: C_18  and  C_19
REMARK   13  A    between atoms: C_19  and  C_20
REMARK                            x       y       z     vdW  Elec       q    Type
REMARK                         _______ _______ _______ _____ _____    ______ ____
ROOT
ATOM      1  C   UNL     1     -11.555  12.877  67.959  0.00  0.00    +0.168 C 
ENDROOT
BRANCH   1   2
ATOM      2  C   UNL     1     -11.978  13.101  69.371  0.00  0.00    +0.007 A 
ATOM      3  C   UNL     1     -12.146  12.073  70.275  0.00  0.00    -0.021 A 
ATOM      4  C   UNL     1     -12.774  12.375  71.468  0.00  0.00    +0.036 A 
ATOM      5  C   UNL     1     -13.216  13.656  71.749  0.00  0.00    +0.176 A 
ATOM      6  O   UNL     1     -14.200  14.190  72.567  0.00  0.00    -0.435 OA
ATOM      7  C   UNL     1     -14.089  15.595  72.514  0.00  0.00    +0.429 C 
ATOM      8  O   UNL     1     -13.165  15.894  71.493  0.00  0.00    -0.435 OA
ATOM      9  C   UNL     1     -12.679  14.686  71.010  0.00  0.00    +0.176 A 
ATOM     10  C   UNL     1     -12.125  14.403  69.777  0.00  0.00    +0.038 A 
BRANCH   3  11
ATOM     11  C   UNL     1     -11.975  10.693  69.766  0.00  0.00    +0.026 C 
BRANCH  11  12
ATOM     12  C   UNL     1     -11.443   9.767  70.831  0.00  0.00    +0.005 C 
ATOM     13  C   UNL     1      -9.976   9.481  70.606  0.00  0.00    +0.000 C 
ENDBRANCH  11  12
ENDBRANCH   3  11
ENDBRANCH   1   2
BRANCH   1  14
ATOM     14  O   UNL     1     -12.292  13.728  67.120  0.00  0.00    -0.346 OA
BRANCH  14  15
ATOM     15  C   UNL     1     -11.402  14.126  66.115  0.00  0.00    +0.175 C 
BRANCH  15  16
ATOM     16  C   UNL     1     -12.100  14.025  64.782  0.00  0.00    +0.174 C 
BRANCH  16  17
ATOM     17  O   UNL     1     -12.790  12.827  64.648  0.00  0.00    -0.348 OA
BRANCH  17  18
ATOM     18  C   UNL     1     -12.432  12.220  63.458  0.00  0.00    +0.174 C 
BRANCH  18  19
ATOM     19  C   UNL     1     -10.983  11.823  63.398  0.00  0.00    +0.174 C 
BRANCH  19  20
ATOM     20  O   UNL     1     -10.669  10.747  64.207  0.00  0.00    -0.351 OA
BRANCH  20  21
ATOM     21  C   UNL     1      -9.629  10.995  65.085  0.00  0.00    +0.142 C 
BRANCH  21  22
ATOM     22  C   UNL     1      -9.259   9.807  65.928  0.00  0.00    +0.032 C 
BRANCH  22  24
ATOM     23  C   UNL     1     -10.483   7.941  66.890  0.00  0.00    +0.000 C 
ATOM     24  C   UNL     1     -10.365   9.443  66.878  0.00  0.00    +0.003 C 
ENDBRANCH  22  24
ENDBRANCH  21  22
ENDBRANCH  20  21
ENDBRANCH  19  20
ENDBRANCH  18  19
ENDBRANCH  17  18
ENDBRANCH  16  17
ENDBRANCH  15  16
ENDBRANCH  14  15
ENDBRANCH   1  14
TORSDOF 13
ENDMDL
MODEL 4
REMARK VINA RESULT:      -5.6      2.106      4.882
REMARK  Name = 
REMARK  13 active torsions:
REMARK  status: ('A' for Active; 'I' for Inactive)
REMARK    1  A    between atoms: C_2  and  C_3
REMARK    2  A    between atoms: C_3  and  C_4
REMARK    3  A    between atoms: C_4  and  O_5
REMARK    4  A    between atoms: O_5  and  C_6
REMARK    5  A    between atoms: C_6  and  C_7
REMARK    6  A    between atoms: C_7  and  O_8
REMARK    7  A    between atoms: O_8  and  C_9
REMARK    8  A    between atoms: C_9  and  C_10
REMARK    9  A    between atoms: C_10  and  O_11
REMARK   10  A    between atoms: O_11  and  C_12
REMARK   11  A    between atoms: C_12  and  C_13
REMARK   12  A    between atoms: C_18  and  C_19
REMARK   13  A    between atoms: C_19  and  C_20
REMARK                            x       y       z     vdW  Elec       q    Type
REMARK                         _______ _______ _______ _____ _____    ______ ____
ROOT
ATOM      1  C   UNL     1     -11.245  15.460  70.536  0.00  0.00    +0.168 C 
ENDROOT
BRANCH   1   2
ATOM      2  C   UNL     1     -12.053  14.249  70.858  0.00  0.00    +0.007 A 
ATOM      3  C   UNL     1     -13.024  14.235  71.838  0.00  0.00    -0.021 A 
ATOM      4  C   UNL     1     -13.527  13.005  72.212  0.00  0.00    +0.036 A 
ATOM      5  C   UNL     1     -13.080  11.831  71.629  0.00  0.00    +0.176 A 
ATOM      6  O   UNL     1     -13.026  10.504  72.027  0.00  0.00    -0.435 OA
ATOM      7  C   UNL     1     -12.562   9.745  70.932  0.00  0.00    +0.429 C 
ATOM      8  O   UNL     1     -12.143  10.661  69.948  0.00  0.00    -0.435 OA
ATOM      9  C   UNL     1     -12.430  11.934  70.420  0.00  0.00    +0.176 A 
ATOM     10  C   UNL     1     -11.850  13.140  70.077  0.00  0.00    +0.038 A 
BRANCH   3  11
ATOM     11  C   UNL     1     -13.185  15.466  72.644  0.00  0.00    +0.026 C 
BRANCH  11  12
ATOM     12  C   UNL     1     -12.558  15.324  74.009  0.00  0.00    +0.005 C 
ATOM     13  C   UNL     1     -12.305  16.682  74.623  0.00  0.00    +0.000 C 
ENDBRANCH  11  12
ENDBRANCH   3  11
ENDBRANCH   1   2
BRANCH   1  14
ATOM     14  O   UNL     1     -11.899  16.194  69.534  0.00  0.00    -0.346 OA
BRANCH  14  15
ATOM     15  C   UNL     1     -10.882  16.838  68.817  0.00  0.00    +0.175 C 
BRANCH  15  16
ATOM     16  C   UNL     1      -9.696  15.913  68.720  0.00  0.00    +0.174 C 
BRANCH  16  17
ATOM     17  O   UNL     1      -9.264  15.760  67.409  0.00  0.00    -0.348 OA
BRANCH  17  18
ATOM     18  C   UNL     1      -9.483  14.457  67.000  0.00  0.00    +0.174 C 
BRANCH  18  19
ATOM     19  C   UNL     1     -10.890  14.202  66.536  0.00  0.00    +0.174 C 
BRANCH  19  20
ATOM     20  O   UNL     1     -11.203  14.829  65.344  0.00  0.00    -0.351 OA
BRANCH  20  21
ATOM     21  C   UNL     1     -12.328  14.317  64.724  0.00  0.00    +0.142 C 
BRANCH  21  22
ATOM     22  C   UNL     1     -12.461  12.826  64.858  0.00  0.00    +0.032 C 
BRANCH  22  24
ATOM     23  C   UNL     1     -10.668  11.889  63.510  0.00  0.00    +0.000 C 
ATOM     24  C   UNL     1     -12.154  12.129  63.562  0.00  0.00    +0.003 C 
ENDBRANCH  22  24
ENDBRANCH  21  22
ENDBRANCH  20  21
ENDBRANCH  19  20
ENDBRANCH  18  19
ENDBRANCH  17  18
ENDBRANCH  16  17
ENDBRANCH  15  16
ENDBRANCH  14  15
ENDBRANCH   1  14
TORSDOF 13
ENDMDL
MODEL 5
REMARK VINA RESULT:      -5.6      2.508      4.156
REMARK  Name = 
REMARK  13 active torsions:
REMARK  status: ('A' for Active; 'I' for Inactive)
REMARK    1  A    between atoms: C_2  and  C_3
REMARK    2  A    between atoms: C_3  and  C_4
REMARK    3  A    between atoms: C_4  and  O_5
REMARK    4  A    between atoms: O_5  and  C_6
REMARK    5  A    between atoms: C_6  and  C_7
REMARK    6  A    between atoms: C_7  and  O_8
REMARK    7  A    between atoms: O_8  and  C_9
REMARK    8  A    between atoms: C_9  and  C_10
REMARK    9  A    between atoms: C_10  and  O_11
REMARK   10  A    between atoms: O_11  and  C_12
REMARK   11  A    between atoms: C_12  and  C_13
REMARK   12  A    between atoms: C_18  and  C_19
REMARK   13  A    between atoms: C_19  and  C_20
REMARK                            x       y       z     vdW  Elec       q    Type
REMARK                         _______ _______ _______ _____ _____    ______ ____
ROOT
ATOM      1  C   UNL     1     -11.642  13.335  67.773  0.00  0.00    +0.168 C 
ENDROOT
BRANCH   1   2
ATOM      2  C   UNL     1     -11.985  13.422  69.220  0.00  0.00    +0.007 A 
ATOM      3  C   UNL     1     -12.101  12.313  70.032  0.00  0.00    -0.021 A 
ATOM      4  C   UNL     1     -12.662  12.497  71.280  0.00  0.00    +0.036 A 
ATOM      5  C   UNL     1     -13.089  13.743  71.705  0.00  0.00    +0.176 A 
ATOM      6  O   UNL     1     -14.026  14.192  72.624  0.00  0.00    -0.435 OA
ATOM      7  C   UNL     1     -13.920  15.596  72.697  0.00  0.00    +0.429 C 
ATOM      8  O   UNL     1     -13.055  15.995  71.660  0.00  0.00    -0.435 OA
ATOM      9  C   UNL     1     -12.596  14.842  71.039  0.00  0.00    +0.176 A 
ATOM     10  C   UNL     1     -12.111  14.680  69.755  0.00  0.00    +0.038 A 
BRANCH   3  11
ATOM     11  C   UNL     1     -11.957  10.988  69.386  0.00  0.00    +0.026 C 
BRANCH  11  12
ATOM     12  C   UNL     1     -10.756  10.241  69.908  0.00  0.00    +0.005 C 
ATOM     13  C   UNL     1     -11.175   9.194  70.914  0.00  0.00    +0.000 C 
ENDBRANCH  11  12
ENDBRANCH   3  11
ENDBRANCH   1   2
BRANCH   1  14
ATOM     14  O   UNL     1     -11.928  14.565  67.159  0.00  0.00    -0.346 OA
BRANCH  14  15
ATOM     15  C   UNL     1     -11.628  14.387  65.803  0.00  0.00    +0.175 C 
BRANCH  15  16
ATOM     16  C   UNL     1     -12.438  13.230  65.276  0.00  0.00    +0.174 C 
BRANCH  16  17
ATOM     17  O   UNL     1     -12.632  13.316  63.903  0.00  0.00    -0.348 OA
BRANCH  17  18
ATOM     18  C   UNL     1     -12.174  12.159  63.300  0.00  0.00    +0.174 C 
BRANCH  18  19
ATOM     19  C   UNL     1     -10.709  11.906  63.520  0.00  0.00    +0.174 C 
BRANCH  19  20
ATOM     20  O   UNL     1     -10.334  10.594  63.301  0.00  0.00    -0.351 OA
BRANCH  20  21
ATOM     21  C   UNL     1      -9.573  10.054  64.323  0.00  0.00    +0.142 C 
BRANCH  21  22
ATOM     22  C   UNL     1     -10.086  10.390  65.695  0.00  0.00    +0.032 C 
BRANCH  22  24
ATOM     23  C   UNL     1      -8.450  11.840  66.759  0.00  0.00    +0.000 C 
ATOM     24  C   UNL     1      -8.972  10.427  66.703  0.00  0.00    +0.003 C 
ENDBRANCH  22  24
ENDBRANCH  21  22
ENDBRANCH  20  21
ENDBRANCH  19  20
ENDBRANCH  18  19
ENDBRANCH  17  18
ENDBRANCH  16  17
ENDBRANCH  15  16
ENDBRANCH  14  15
ENDBRANCH   1  14
TORSDOF 13
ENDMDL
MODEL 6
REMARK VINA RESULT:      -5.5      2.377      4.440
REMARK  Name = 
REMARK  13 active torsions:
REMARK  status: ('A' for Active; 'I' for Inactive)
REMARK    1  A    between atoms: C_2  and  C_3
REMARK    2  A    between atoms: C_3  and  C_4
REMARK    3  A    between atoms: C_4  and  O_5
REMARK    4  A    between atoms: O_5  and  C_6
REMARK    5  A    between atoms: C_6  and  C_7
REMARK    6  A    between atoms: C_7  and  O_8
REMARK    7  A    between atoms: O_8  and  C_9
REMARK    8  A    between atoms: C_9  and  C_10
REMARK    9  A    between atoms: C_10  and  O_11
REMARK   10  A    between atoms: O_11  and  C_12
REMARK   11  A    between atoms: C_12  and  C_13
REMARK   12  A    between atoms: C_18  and  C_19
REMARK   13  A    between atoms: C_19  and  C_20
REMARK                            x       y       z     vdW  Elec       q    Type
REMARK                         _______ _______ _______ _____ _____    ______ ____
ROOT
ATOM      1  C   UNL     1     -10.967  16.181  68.272  0.00  0.00    +0.168 C 
ENDROOT
BRANCH   1   2
ATOM      2  C   UNL     1     -11.371  15.449  69.506  0.00  0.00    +0.007 A 
ATOM      3  C   UNL     1     -11.808  14.141  69.493  0.00  0.00    -0.021 A 
ATOM      4  C   UNL     1     -12.385  13.654  70.649  0.00  0.00    +0.036 A 
ATOM      5  C   UNL     1     -12.519  14.443  71.779  0.00  0.00    +0.176 A 
ATOM      6  O   UNL     1     -13.374  14.446  72.871  0.00  0.00    -0.435 OA
ATOM      7  C   UNL     1     -12.930  15.444  73.763  0.00  0.00    +0.429 C 
ATOM      8  O   UNL     1     -11.929  16.175  73.094  0.00  0.00    -0.435 OA
ATOM      9  C   UNL     1     -11.728  15.568  71.862  0.00  0.00    +0.176 A 
ATOM     10  C   UNL     1     -11.217  16.110  70.698  0.00  0.00    +0.038 A 
BRANCH   3  11
ATOM     11  C   UNL     1     -11.953  13.492  68.170  0.00  0.00    +0.026 C 
BRANCH  11  12
ATOM     12  C   UNL     1     -11.266  12.150  68.128  0.00  0.00    +0.005 C 
ATOM     13  C   UNL     1      -9.767  12.315  68.230  0.00  0.00    +0.000 C 
ENDBRANCH  11  12
ENDBRANCH   3  11
ENDBRANCH   1   2
BRANCH   1  14
ATOM     14  O   UNL     1     -10.365  17.395  68.635  0.00  0.00    -0.346 OA
BRANCH  14  15
ATOM     15  C   UNL     1      -9.717  17.853  67.482  0.00  0.00    +0.175 C 
BRANCH  15  16
ATOM     16  C   UNL     1     -10.474  17.364  66.274  0.00  0.00    +0.174 C 
BRANCH  16  17
ATOM     17  O   UNL     1      -9.689  16.554  65.463  0.00  0.00    -0.348 OA
BRANCH  17  18
ATOM     18  C   UNL     1     -10.429  15.461  65.049  0.00  0.00    +0.174 C 
BRANCH  18  19
ATOM     19  C   UNL     1     -11.705  15.831  64.346  0.00  0.00    +0.174 C 
BRANCH  19  20
ATOM     20  O   UNL     1     -12.487  14.743  64.006  0.00  0.00    -0.351 OA
BRANCH  20  21
ATOM     21  C   UNL     1     -11.974  13.533  64.437  0.00  0.00    +0.142 C 
BRANCH  21  22
ATOM     22  C   UNL     1     -12.251  12.395  63.496  0.00  0.00    +0.032 C 
BRANCH  22  24
ATOM     23  C   UNL     1     -10.168  11.785  64.590  0.00  0.00    +0.000 C 
ATOM     24  C   UNL     1     -11.124  11.400  63.492  0.00  0.00    +0.003 C 
ENDBRANCH  22  24
ENDBRANCH  21  22
ENDBRANCH  20  21
ENDBRANCH  19  20
ENDBRANCH  18  19
ENDBRANCH  17  18
ENDBRANCH  16  17
ENDBRANCH  15  16
ENDBRANCH  14  15
ENDBRANCH   1  14
TORSDOF 13
ENDMDL
MODEL 7
REMARK VINA RESULT:      -5.5      1.905      3.115
REMARK  Name = 
REMARK  13 active torsions:
REMARK  status: ('A' for Active; 'I' for Inactive)
REMARK    1  A    between atoms: C_2  and  C_3
REMARK    2  A    between atoms: C_3  and  C_4
REMARK    3  A    between atoms: C_4  and  O_5
REMARK    4  A    between atoms: O_5  and  C_6
REMARK    5  A    between atoms: C_6  and  C_7
REMARK    6  A    between atoms: C_7  and  O_8
REMARK    7  A    between atoms: O_8  and  C_9
REMARK    8  A    between atoms: C_9  and  C_10
REMARK    9  A    between atoms: C_10  and  O_11
REMARK   10  A    between atoms: O_11  and  C_12
REMARK   11  A    between atoms: C_12  and  C_13
REMARK   12  A    between atoms: C_18  and  C_19
REMARK   13  A    between atoms: C_19  and  C_20
REMARK                            x       y       z     vdW  Elec       q    Type
REMARK                         _______ _______ _______ _____ _____    ______ ____
ROOT
ATOM      1  C   UNL     1     -11.070  12.483  68.887  0.00  0.00    +0.168 C 
ENDROOT
BRANCH   1   2
ATOM      2  C   UNL     1     -11.465  13.727  69.608  0.00  0.00    +0.007 A 
ATOM      3  C   UNL     1     -10.839  14.940  69.409  0.00  0.00    -0.021 A 
ATOM      4  C   UNL     1     -11.122  15.953  70.304  0.00  0.00    +0.036 A 
ATOM      5  C   UNL     1     -11.999  15.764  71.358  0.00  0.00    +0.176 A 
ATOM      6  O   UNL     1     -12.166  16.348  72.604  0.00  0.00    -0.435 OA
ATOM      7  C   UNL     1     -13.326  15.796  73.187  0.00  0.00    +0.429 C 
ATOM      8  O   UNL     1     -13.728  14.727  72.364  0.00  0.00    -0.435 OA
ATOM      9  C   UNL     1     -12.870  14.701  71.273  0.00  0.00    +0.176 A 
ATOM     10  C   UNL     1     -12.551  13.643  70.442  0.00  0.00    +0.038 A 
BRANCH   3  11
ATOM     11  C   UNL     1      -9.672  14.955  68.498  0.00  0.00    +0.026 C 
BRANCH  11  12
ATOM     12  C   UNL     1      -8.457  15.557  69.158  0.00  0.00    +0.005 C 
ATOM     13  C   UNL     1      -7.299  14.586  69.129  0.00  0.00    +0.000 C 
ENDBRANCH  11  12
ENDBRANCH   3  11
ENDBRANCH   1   2
BRANCH   1  14
ATOM     14  O   UNL     1     -12.099  12.118  68.006  0.00  0.00    -0.346 OA
BRANCH  14  15
ATOM     15  C   UNL     1     -11.496  12.020  66.745  0.00  0.00    +0.175 C 
BRANCH  15  16
ATOM     16  C   UNL     1     -11.869  13.235  65.934  0.00  0.00    +0.174 C 
BRANCH  16  17
ATOM     17  O   UNL     1     -10.979  13.454  64.890  0.00  0.00    -0.348 OA
BRANCH  17  18
ATOM     18  C   UNL     1     -10.511  14.754  64.948  0.00  0.00    +0.174 C 
BRANCH  18  19
ATOM     19  C   UNL     1     -11.494  15.769  64.435  0.00  0.00    +0.174 C 
BRANCH  19  20
ATOM     20  O   UNL     1     -11.108  17.077  64.659  0.00  0.00    -0.351 OA
BRANCH  20  21
ATOM     21  C   UNL     1     -10.194  17.220  65.688  0.00  0.00    +0.142 C 
BRANCH  21  22
ATOM     22  C   UNL     1     -10.589  18.257  66.702  0.00  0.00    +0.032 C 
BRANCH  22  24
ATOM     23  C   UNL     1      -9.784  20.437  67.413  0.00  0.00    +0.000 C 
ATOM     24  C   UNL     1     -10.260  19.644  66.225  0.00  0.00    +0.003 C 
ENDBRANCH  22  24
ENDBRANCH  21  22
ENDBRANCH  20  21
ENDBRANCH  19  20
ENDBRANCH  18  19
ENDBRANCH  17  18
ENDBRANCH  16  17
ENDBRANCH  15  16
ENDBRANCH  14  15
ENDBRANCH   1  14
TORSDOF 13
ENDMDL
MODEL 8
REMARK VINA RESULT:      -5.5      1.643      7.717
REMARK  Name = 
REMARK  13 active torsions:
REMARK  status: ('A' for Active; 'I' for Inactive)
REMARK    1  A    between atoms: C_2  and  C_3
REMARK    2  A    between atoms: C_3  and  C_4
REMARK    3  A    between atoms: C_4  and  O_5
REMARK    4  A    between atoms: O_5  and  C_6
REMARK    5  A    between atoms: C_6  and  C_7
REMARK    6  A    between atoms: C_7  and  O_8
REMARK    7  A    between atoms: O_8  and  C_9
REMARK    8  A    between atoms: C_9  and  C_10
REMARK    9  A    between atoms: C_10  and  O_11
REMARK   10  A    between atoms: O_11  and  C_12
REMARK   11  A    between atoms: C_12  and  C_13
REMARK   12  A    between atoms: C_18  and  C_19
REMARK   13  A    between atoms: C_19  and  C_20
REMARK                            x       y       z     vdW  Elec       q    Type
REMARK                         _______ _______ _______ _____ _____    ______ ____
ROOT
ATOM      1  C   UNL     1      -9.462  15.453  68.743  0.00  0.00    +0.168 C 
ENDROOT
BRANCH   1   2
ATOM      2  C   UNL     1      -9.952  15.088  67.383  0.00  0.00    +0.007 A 
ATOM      3  C   UNL     1      -9.875  15.944  66.303  0.00  0.00    -0.021 A 
ATOM      4  C   UNL     1     -10.579  15.595  65.167  0.00  0.00    +0.036 A 
ATOM      5  C   UNL     1     -11.330  14.434  65.109  0.00  0.00    +0.176 A 
ATOM      6  O   UNL     1     -12.430  14.020  64.373  0.00  0.00    -0.435 OA
ATOM      7  C   UNL     1     -12.670  12.665  64.682  0.00  0.00    +0.429 C 
ATOM      8  O   UNL     1     -11.832  12.338  65.766  0.00  0.00    -0.435 OA
ATOM      9  C   UNL     1     -11.053  13.455  66.037  0.00  0.00    +0.176 A 
ATOM     10  C   UNL     1     -10.425  13.812  67.214  0.00  0.00    +0.038 A 
BRANCH   3  11
ATOM     11  C   UNL     1      -9.359  17.307  66.560  0.00  0.00    +0.026 C 
BRANCH  11  12
ATOM     12  C   UNL     1     -10.475  18.315  66.671  0.00  0.00    +0.005 C 
ATOM     13  C   UNL     1     -10.008  19.681  66.223  0.00  0.00    +0.000 C 
ENDBRANCH  11  12
ENDBRANCH   3  11
ENDBRANCH   1   2
BRANCH   1  14
ATOM     14  O   UNL     1     -10.411  15.048  69.695  0.00  0.00    -0.346 OA
BRANCH  14  15
ATOM     15  C   UNL     1     -11.153  16.197  69.997  0.00  0.00    +0.175 C 
BRANCH  15  16
ATOM     16  C   UNL     1     -11.805  16.012  71.344  0.00  0.00    +0.174 C 
BRANCH  16  17
ATOM     17  O   UNL     1     -13.189  15.948  71.245  0.00  0.00    -0.348 OA
BRANCH  17  18
ATOM     18  C   UNL     1     -13.715  15.482  72.436  0.00  0.00    +0.174 C 
BRANCH  18  19
ATOM     19  C   UNL     1     -13.391  14.039  72.711  0.00  0.00    +0.174 C 
BRANCH  19  20
ATOM     20  O   UNL     1     -13.613  13.205  71.632  0.00  0.00    -0.351 OA
BRANCH  20  21
ATOM     21  C   UNL     1     -12.779  12.102  71.599  0.00  0.00    +0.142 C 
BRANCH  21  22
ATOM     22  C   UNL     1     -12.130  11.881  70.261  0.00  0.00    +0.032 C 
BRANCH  22  24
ATOM     23  C   UNL     1     -12.039   9.714  71.360  0.00  0.00    +0.000 C 
ATOM     24  C   UNL     1     -11.700  10.450  70.090  0.00  0.00    +0.003 C 
ENDBRANCH  22  24
ENDBRANCH  21  22
ENDBRANCH  20  21
ENDBRANCH  19  20
ENDBRANCH  18  19
ENDBRANCH  17  18
ENDBRANCH  16  17
ENDBRANCH  15  16
ENDBRANCH  14  15
ENDBRANCH   1  14
TORSDOF 13
ENDMDL
MODEL 9
REMARK VINA RESULT:      -5.4      2.686      7.160
REMARK  Name = 
REMARK  13 active torsions:
REMARK  status: ('A' for Active; 'I' for Inactive)
REMARK    1  A    between atoms: C_2  and  C_3
REMARK    2  A    between atoms: C_3  and  C_4
REMARK    3  A    between atoms: C_4  and  O_5
REMARK    4  A    between atoms: O_5  and  C_6
REMARK    5  A    between atoms: C_6  and  C_7
REMARK    6  A    between atoms: C_7  and  O_8
REMARK    7  A    between atoms: O_8  and  C_9
REMARK    8  A    between atoms: C_9  and  C_10
REMARK    9  A    between atoms: C_10  and  O_11
REMARK   10  A    between atoms: O_11  and  C_12
REMARK   11  A    between atoms: C_12  and  C_13
REMARK   12  A    between atoms: C_18  and  C_19
REMARK   13  A    between atoms: C_19  and  C_20
REMARK                            x       y       z     vdW  Elec       q    Type
REMARK                         _______ _______ _______ _____ _____    ______ ____
ROOT
ATOM      1  C   UNL     1     -10.711  14.981  68.356  0.00  0.00    +0.168 C 
ENDROOT
BRANCH   1   2
ATOM      2  C   UNL     1     -10.815  13.849  67.392  0.00  0.00    +0.007 A 
ATOM      3  C   UNL     1      -9.856  12.863  67.287  0.00  0.00    -0.021 A 
ATOM      4  C   UNL     1      -9.936  12.015  66.200  0.00  0.00    +0.036 A 
ATOM      5  C   UNL     1     -10.937  12.144  65.253  0.00  0.00    +0.176 A 
ATOM      6  O   UNL     1     -11.064  11.802  63.915  0.00  0.00    -0.435 OA
ATOM      7  C   UNL     1     -12.387  12.090  63.521  0.00  0.00    +0.429 C 
ATOM      8  O   UNL     1     -12.984  12.801  64.579  0.00  0.00    -0.435 OA
ATOM      9  C   UNL     1     -12.058  12.859  65.611  0.00  0.00    +0.176 A 
ATOM     10  C   UNL     1     -11.962  13.773  66.644  0.00  0.00    +0.038 A 
BRANCH   3  11
ATOM     11  C   UNL     1      -8.642  13.012  68.121  0.00  0.00    +0.026 C 
BRANCH  11  12
ATOM     12  C   UNL     1      -7.462  13.486  67.310  0.00  0.00    +0.005 C 
ATOM     13  C   UNL     1      -6.373  12.438  67.290  0.00  0.00    +0.000 C 
ENDBRANCH  11  12
ENDBRANCH   3  11
ENDBRANCH   1   2
BRANCH   1  14
ATOM     14  O   UNL     1     -11.306  14.604  69.570  0.00  0.00    -0.346 OA
BRANCH  14  15
ATOM     15  C   UNL     1     -12.121  15.681  69.939  0.00  0.00    +0.175 C 
BRANCH  15  16
ATOM     16  C   UNL     1     -11.831  16.040  71.374  0.00  0.00    +0.174 C 
BRANCH  16  17
ATOM     17  O   UNL     1     -11.921  14.936  72.212  0.00  0.00    -0.348 OA
BRANCH  17  18
ATOM     18  C   UNL     1     -13.216  14.818  72.682  0.00  0.00    +0.174 C 
BRANCH  18  19
ATOM     19  C   UNL     1     -13.864  13.506  72.336  0.00  0.00    +0.174 C 
BRANCH  19  20
ATOM     20  O   UNL     1     -13.058  12.671  71.585  0.00  0.00    -0.351 OA
BRANCH  20  21
ATOM     21  C   UNL     1     -13.219  11.329  71.880  0.00  0.00    +0.142 C 
BRANCH  21  22
ATOM     22  C   UNL     1     -12.739  10.413  70.789  0.00  0.00    +0.032 C 
BRANCH  22  24
ATOM     23  C   UNL     1     -10.958   9.960  69.198  0.00  0.00    +0.000 C 
ATOM     24  C   UNL     1     -11.644  11.050  69.980  0.00  0.00    +0.003 C 
ENDBRANCH  22  24
ENDBRANCH  21  22
ENDBRANCH  20  21
ENDBRANCH  19  20
ENDBRANCH  18  19
ENDBRANCH  17  18
ENDBRANCH  16  17
ENDBRANCH  15  16
ENDBRANCH  14  15
ENDBRANCH   1  14
TORSDOF 13
ENDMDL
