MODEL 1
REMARK VINA RESULT:      -6.5      0.000      0.000
REMARK  Name = 
REMARK  3 active torsions:
REMARK  status: ('A' for Active; 'I' for Inactive)
REMARK    1  A    between atoms: C_2  and  C_4
REMARK    2  A    between atoms: N_6  and  C_7
REMARK    3  A    between atoms: C_7  and  C_8
REMARK                            x       y       z     vdW  Elec       q    Type
REMARK                         _______ _______ _______ _____ _____    ______ ____
ROOT
ATOM      1  C   UNL     1     -12.648  14.087  65.376  0.00  0.00    +0.160 C 
ENDROOT
BRANCH   1   2
ATOM      2  C   UNL     1     -12.232  12.672  65.121  0.00  0.00    +0.057 A 
ATOM      3  C   UNL     1     -11.501  12.094  66.154  0.00  0.00    +0.140 A 
ATOM      4  F   UNL     1     -11.793  12.349  67.463  0.00  0.00    -0.204 F 
ATOM      5  C   UNL     1     -10.613  11.051  65.933  0.00  0.00    +0.030 A 
ATOM      6  C   UNL     1     -10.019  10.981  64.678  0.00  0.00    +0.005 A 
ATOM      7  C   UNL     1     -10.833  11.368  63.623  0.00  0.00    +0.030 A 
ATOM      8  C   UNL     1     -11.798  12.344  63.843  0.00  0.00    +0.140 A 
ATOM      9  F   UNL     1     -12.245  13.006  62.760  0.00  0.00    -0.204 F 
ENDBRANCH   1   2
BRANCH   1  13
ATOM     10  C   UNL     1     -10.514  16.881  65.768  0.00  0.00    +0.180 A 
ATOM     11  N   UNL     1     -11.147  17.099  64.591  0.00  0.00    -0.124 NA
ATOM     12  N   UNL     1     -11.459  15.895  64.111  0.00  0.00    -0.063 NA
ATOM     13  N   UNL     1     -11.558  15.020  65.111  0.00  0.00    -0.225 N 
ATOM     14  C   UNL     1     -10.875  15.599  66.129  0.00  0.00    +0.123 A 
BRANCH  10  16
ATOM     15  N   UNL     1     -10.660  18.549  67.552  0.00  0.00    -0.082 NA
ATOM     16  C   UNL     1      -9.830  17.889  66.588  0.00  0.00    +0.305 C 
ATOM     17  O   UNL     1      -9.002  18.639  65.989  0.00  0.00    -0.265 OA
ENDBRANCH  10  16
ENDBRANCH   1  13
TORSDOF 3
ENDMDL
MODEL 2
REMARK VINA RESULT:      -6.3      4.682      6.362
REMARK  Name = 
REMARK  3 active torsions:
REMARK  status: ('A' for Active; 'I' for Inactive)
REMARK    1  A    between atoms: C_2  and  C_4
REMARK    2  A    between atoms: N_6  and  C_7
REMARK    3  A    between atoms: C_7  and  C_8
REMARK                            x       y       z     vdW  Elec       q    Type
REMARK                         _______ _______ _______ _____ _____    ______ ____
ROOT
ATOM      1  C   UNL     1     -11.366  14.067  69.561  0.00  0.00    +0.160 C 
ENDROOT
BRANCH   1   2
ATOM      2  C   UNL     1     -12.264  14.634  70.616  0.00  0.00    +0.057 A 
ATOM      3  C   UNL     1     -11.791  15.802  71.204  0.00  0.00    +0.140 A 
ATOM      4  F   UNL     1     -11.138  16.754  70.474  0.00  0.00    -0.204 F 
ATOM      5  C   UNL     1     -12.162  16.184  72.486  0.00  0.00    +0.030 A 
ATOM      6  C   UNL     1     -12.499  15.170  73.375  0.00  0.00    +0.005 A 
ATOM      7  C   UNL     1     -13.160  14.090  72.808  0.00  0.00    +0.030 A 
ATOM      8  C   UNL     1     -12.878  13.747  71.491  0.00  0.00    +0.140 A 
ATOM      9  F   UNL     1     -13.166  12.485  71.120  0.00  0.00    -0.204 F 
ENDBRANCH   1   2
BRANCH   1  13
ATOM     10  C   UNL     1     -11.892  14.109  66.063  0.00  0.00    +0.180 A 
ATOM     11  N   UNL     1     -10.865  14.969  66.263  0.00  0.00    -0.124 NA
ATOM     12  N   UNL     1     -11.019  15.447  67.498  0.00  0.00    -0.063 NA
ATOM     13  N   UNL     1     -11.707  14.579  68.238  0.00  0.00    -0.225 N 
ATOM     14  C   UNL     1     -12.339  13.795  67.330  0.00  0.00    +0.123 A 
BRANCH  10  16
ATOM     15  N   UNL     1     -12.502  14.358  63.706  0.00  0.00    -0.082 NA
ATOM     16  C   UNL     1     -12.250  13.461  64.795  0.00  0.00    +0.305 C 
ATOM     17  O   UNL     1     -13.038  12.471  64.869  0.00  0.00    -0.265 OA
ENDBRANCH  10  16
ENDBRANCH   1  13
TORSDOF 3
ENDMDL
MODEL 3
REMARK VINA RESULT:      -6.1      3.373      6.174
REMARK  Name = 
REMARK  3 active torsions:
REMARK  status: ('A' for Active; 'I' for Inactive)
REMARK    1  A    between atoms: C_2  and  C_4
REMARK    2  A    between atoms: N_6  and  C_7
REMARK    3  A    between atoms: C_7  and  C_8
REMARK                            x       y       z     vdW  Elec       q    Type
REMARK                         _______ _______ _______ _____ _____    ______ ____
ROOT
ATOM      1  C   UNL     1      -8.899  16.555  66.153  0.00  0.00    +0.160 C 
ENDROOT
BRANCH   1   2
ATOM      2  C   UNL     1      -8.717  17.774  67.002  0.00  0.00    +0.057 A 
ATOM      3  C   UNL     1      -9.742  17.996  67.916  0.00  0.00    +0.140 A 
ATOM      4  F   UNL     1     -10.349  16.962  68.569  0.00  0.00    -0.204 F 
ATOM      5  C   UNL     1     -10.036  19.263  68.399  0.00  0.00    +0.030 A 
ATOM      6  C   UNL     1      -9.740  20.340  67.573  0.00  0.00    +0.005 A 
ATOM      7  C   UNL     1      -8.591  20.193  66.810  0.00  0.00    +0.030 A 
ATOM      8  C   UNL     1      -8.220  18.920  66.393  0.00  0.00    +0.140 A 
ATOM      9  F   UNL     1      -7.405  18.847  65.325  0.00  0.00    -0.204 F 
ENDBRANCH   1   2
BRANCH   1  13
ATOM     10  C   UNL     1     -11.781  15.068  64.740  0.00  0.00    +0.180 A 
ATOM     11  N   UNL     1     -11.568  16.175  63.991  0.00  0.00    -0.124 NA
ATOM     12  N   UNL     1     -10.943  17.044  64.786  0.00  0.00    -0.063 NA
ATOM     13  N   UNL     1     -10.291  16.390  65.747  0.00  0.00    -0.225 N 
ATOM     14  C   UNL     1     -10.888  15.174  65.786  0.00  0.00    +0.123 A 
BRANCH  10  16
ATOM     15  N   UNL     1     -12.574  12.821  65.301  0.00  0.00    -0.082 NA
ATOM     16  C   UNL     1     -12.586  13.901  64.358  0.00  0.00    +0.305 C 
ATOM     17  O   UNL     1     -12.533  13.550  63.141  0.00  0.00    -0.265 OA
ENDBRANCH  10  16
ENDBRANCH   1  13
TORSDOF 3
ENDMDL
MODEL 4
REMARK VINA RESULT:      -6.1      5.022      5.686
REMARK  Name = 
REMARK  3 active torsions:
REMARK  status: ('A' for Active; 'I' for Inactive)
REMARK    1  A    between atoms: C_2  and  C_4
REMARK    2  A    between atoms: N_6  and  C_7
REMARK    3  A    between atoms: C_7  and  C_8
REMARK                            x       y       z     vdW  Elec       q    Type
REMARK                         _______ _______ _______ _____ _____    ______ ____
ROOT
ATOM      1  C   UNL     1     -11.098  15.171  69.368  0.00  0.00    +0.160 C 
ENDROOT
BRANCH   1   2
ATOM      2  C   UNL     1     -11.820  14.066  68.662  0.00  0.00    +0.057 A 
ATOM      3  C   UNL     1     -11.745  12.832  69.299  0.00  0.00    +0.140 A 
ATOM      4  F   UNL     1     -11.790  12.730  70.660  0.00  0.00    -0.204 F 
ATOM      5  C   UNL     1     -11.871  11.636  68.607  0.00  0.00    +0.030 A 
ATOM      6  C   UNL     1     -11.485  11.635  67.271  0.00  0.00    +0.005 A 
ATOM      7  C   UNL     1     -11.754  12.809  66.583  0.00  0.00    +0.030 A 
ATOM      8  C   UNL     1     -11.729  14.014  67.276  0.00  0.00    +0.140 A 
ATOM      9  F   UNL     1     -11.545  15.128  66.545  0.00  0.00    -0.204 F 
ENDBRANCH   1   2
BRANCH   1  13
ATOM     10  C   UNL     1     -12.690  15.818  72.460  0.00  0.00    +0.180 A 
ATOM     11  N   UNL     1     -13.700  15.491  71.620  0.00  0.00    -0.124 NA
ATOM     12  N   UNL     1     -13.287  15.829  70.398  0.00  0.00    -0.063 NA
ATOM     13  N   UNL     1     -11.955  15.824  70.352  0.00  0.00    -0.225 N 
ATOM     14  C   UNL     1     -11.577  15.918  71.651  0.00  0.00    +0.123 A 
BRANCH  10  16
ATOM     15  N   UNL     1     -12.403  17.033  74.565  0.00  0.00    -0.082 NA
ATOM     16  C   UNL     1     -12.736  15.793  73.928  0.00  0.00    +0.305 C 
ATOM     17  O   UNL     1     -12.269  14.758  74.491  0.00  0.00    -0.265 OA
ENDBRANCH  10  16
ENDBRANCH   1  13
TORSDOF 3
ENDMDL
MODEL 5
REMARK VINA RESULT:      -6.0      3.350      6.375
REMARK  Name = 
REMARK  3 active torsions:
REMARK  status: ('A' for Active; 'I' for Inactive)
REMARK    1  A    between atoms: C_2  and  C_4
REMARK    2  A    between atoms: N_6  and  C_7
REMARK    3  A    between atoms: C_7  and  C_8
REMARK                            x       y       z     vdW  Elec       q    Type
REMARK                         _______ _______ _______ _____ _____    ______ ____
ROOT
ATOM      1  C   UNL     1      -8.966  16.262  66.546  0.00  0.00    +0.160 C 
ENDROOT
BRANCH   1   2
ATOM      2  C   UNL     1      -9.689  17.421  67.160  0.00  0.00    +0.057 A 
ATOM      3  C   UNL     1     -10.324  18.251  66.243  0.00  0.00    +0.140 A 
ATOM      4  F   UNL     1     -10.943  17.747  65.135  0.00  0.00    -0.204 F 
ATOM      5  C   UNL     1     -10.583  19.587  66.515  0.00  0.00    +0.030 A 
ATOM      6  C   UNL     1      -9.723  20.231  67.397  0.00  0.00    +0.005 A 
ATOM      7  C   UNL     1      -9.253  19.441  68.436  0.00  0.00    +0.030 A 
ATOM      8  C   UNL     1      -9.077  18.080  68.218  0.00  0.00    +0.140 A 
ATOM      9  F   UNL     1      -8.228  17.441  69.044  0.00  0.00    -0.204 F 
ENDBRANCH   1   2
BRANCH   1  13
ATOM     10  C   UNL     1     -11.399  13.912  65.513  0.00  0.00    +0.180 A 
ATOM     11  N   UNL     1     -11.856  14.373  66.702  0.00  0.00    -0.124 NA
ATOM     12  N   UNL     1     -10.777  14.749  67.390  0.00  0.00    -0.063 NA
ATOM     13  N   UNL     1      -9.789  15.057  66.551  0.00  0.00    -0.225 N 
ATOM     14  C   UNL     1     -10.133  14.444  65.392  0.00  0.00    +0.123 A 
BRANCH  10  16
ATOM     15  N   UNL     1     -12.559  14.047  63.362  0.00  0.00    -0.082 NA
ATOM     16  C   UNL     1     -12.193  13.231  64.482  0.00  0.00    +0.305 C 
ATOM     17  O   UNL     1     -13.098  12.444  64.892  0.00  0.00    -0.265 OA
ENDBRANCH  10  16
ENDBRANCH   1  13
TORSDOF 3
ENDMDL
MODEL 6
REMARK VINA RESULT:      -6.0      4.393      5.890
REMARK  Name = 
REMARK  3 active torsions:
REMARK  status: ('A' for Active; 'I' for Inactive)
REMARK    1  A    between atoms: C_2  and  C_4
REMARK    2  A    between atoms: N_6  and  C_7
REMARK    3  A    between atoms: C_7  and  C_8
REMARK                            x       y       z     vdW  Elec       q    Type
REMARK                         _______ _______ _______ _____ _____    ______ ____
ROOT
ATOM      1  C   UNL     1     -10.636  15.567  70.108  0.00  0.00    +0.160 C 
ENDROOT
BRANCH   1   2
ATOM      2  C   UNL     1     -11.957  15.325  70.771  0.00  0.00    +0.057 A 
ATOM      3  C   UNL     1     -12.092  15.928  72.017  0.00  0.00    +0.140 A 
ATOM      4  F   UNL     1     -11.573  17.165  72.270  0.00  0.00    -0.204 F 
ATOM      5  C   UNL     1     -12.957  15.435  72.984  0.00  0.00    +0.030 A 
ATOM      6  C   UNL     1     -13.226  14.071  72.956  0.00  0.00    +0.005 A 
ATOM      7  C   UNL     1     -13.293  13.515  71.687  0.00  0.00    +0.030 A 
ATOM      8  C   UNL     1     -12.508  14.054  70.675  0.00  0.00    +0.140 A 
ATOM      9  F   UNL     1     -12.249  13.257  69.622  0.00  0.00    -0.204 F 
ENDBRANCH   1   2
BRANCH   1  13
ATOM     10  C   UNL     1     -10.462  16.338  66.661  0.00  0.00    +0.180 A 
ATOM     11  N   UNL     1      -9.654  17.248  67.254  0.00  0.00    -0.124 NA
ATOM     12  N   UNL     1     -10.126  17.411  68.490  0.00  0.00    -0.063 NA
ATOM     13  N   UNL     1     -10.791  16.320  68.868  0.00  0.00    -0.225 N 
ATOM     14  C   UNL     1     -11.091  15.692  67.705  0.00  0.00    +0.123 A 
BRANCH  10  16
ATOM     15  N   UNL     1     -11.236  16.790  64.383  0.00  0.00    -0.082 NA
ATOM     16  C   UNL     1     -10.449  15.956  65.243  0.00  0.00    +0.305 C 
ATOM     17  O   UNL     1     -10.512  14.715  64.991  0.00  0.00    -0.265 OA
ENDBRANCH  10  16
ENDBRANCH   1  13
TORSDOF 3
ENDMDL
MODEL 7
REMARK VINA RESULT:      -5.9      4.293      5.055
REMARK  Name = 
REMARK  3 active torsions:
REMARK  status: ('A' for Active; 'I' for Inactive)
REMARK    1  A    between atoms: C_2  and  C_4
REMARK    2  A    between atoms: N_6  and  C_7
REMARK    3  A    between atoms: C_7  and  C_8
REMARK                            x       y       z     vdW  Elec       q    Type
REMARK                         _______ _______ _______ _____ _____    ______ ____
ROOT
ATOM      1  C   UNL     1     -10.489  13.814  68.464  0.00  0.00    +0.160 C 
ENDROOT
BRANCH   1   2
ATOM      2  C   UNL     1     -11.413  13.978  67.297  0.00  0.00    +0.057 A 
ATOM      3  C   UNL     1     -11.818  12.782  66.714  0.00  0.00    +0.140 A 
ATOM      4  F   UNL     1     -12.084  11.676  67.470  0.00  0.00    -0.204 F 
ATOM      5  C   UNL     1     -12.213  12.706  65.386  0.00  0.00    +0.030 A 
ATOM      6  C   UNL     1     -11.662  13.633  64.509  0.00  0.00    +0.005 A 
ATOM      7  C   UNL     1     -11.450  14.894  65.047  0.00  0.00    +0.030 A 
ATOM      8  C   UNL     1     -11.148  15.004  66.399  0.00  0.00    +0.140 A 
ATOM      9  F   UNL     1     -10.523  16.131  66.788  0.00  0.00    -0.204 F 
ENDBRANCH   1   2
BRANCH   1  13
ATOM     10  C   UNL     1     -12.832  14.879  70.890  0.00  0.00    +0.180 A 
ATOM     11  N   UNL     1     -12.397  16.023  70.312  0.00  0.00    -0.124 NA
ATOM     12  N   UNL     1     -11.162  15.772  69.877  0.00  0.00    -0.063 NA
ATOM     13  N   UNL     1     -11.017  14.465  69.658  0.00  0.00    -0.225 N 
ATOM     14  C   UNL     1     -12.012  13.894  70.379  0.00  0.00    +0.123 A 
BRANCH  10  16
ATOM     15  N   UNL     1     -14.573  15.908  72.268  0.00  0.00    -0.082 NA
ATOM     16  C   UNL     1     -14.068  14.710  71.665  0.00  0.00    +0.305 C 
ATOM     17  O   UNL     1     -14.145  13.671  72.388  0.00  0.00    -0.265 OA
ENDBRANCH  10  16
ENDBRANCH   1  13
TORSDOF 3
ENDMDL
MODEL 8
REMARK VINA RESULT:      -5.9      6.522      8.428
REMARK  Name = 
REMARK  3 active torsions:
REMARK  status: ('A' for Active; 'I' for Inactive)
REMARK    1  A    between atoms: C_2  and  C_4
REMARK    2  A    between atoms: N_6  and  C_7
REMARK    3  A    between atoms: C_7  and  C_8
REMARK                            x       y       z     vdW  Elec       q    Type
REMARK                         _______ _______ _______ _____ _____    ______ ____
ROOT
ATOM      1  C   UNL     1      -6.755  18.780  68.421  0.00  0.00    +0.160 C 
ENDROOT
BRANCH   1   2
ATOM      2  C   UNL     1      -8.218  19.089  68.356  0.00  0.00    +0.057 A 
ATOM      3  C   UNL     1      -9.041  17.968  68.331  0.00  0.00    +0.140 A 
ATOM      4  F   UNL     1      -8.752  16.856  69.069  0.00  0.00    -0.204 F 
ATOM      5  C   UNL     1     -10.310  17.998  67.769  0.00  0.00    +0.030 A 
ATOM      6  C   UNL     1     -10.525  18.910  66.743  0.00  0.00    +0.005 A 
ATOM      7  C   UNL     1      -9.855  20.117  66.882  0.00  0.00    +0.030 A 
ATOM      8  C   UNL     1      -8.625  20.130  67.530  0.00  0.00    +0.140 A 
ATOM      9  F   UNL     1      -7.813  21.170  67.265  0.00  0.00    -0.204 F 
ENDBRANCH   1   2
BRANCH   1  13
ATOM     10  C   UNL     1      -4.714  19.896  71.086  0.00  0.00    +0.180 A 
ATOM     11  N   UNL     1      -4.470  18.566  71.004  0.00  0.00    -0.124 NA
ATOM     12  N   UNL     1      -5.574  18.018  70.497  0.00  0.00    -0.063 NA
ATOM     13  N   UNL     1      -6.240  18.923  69.779  0.00  0.00    -0.225 N 
ATOM     14  C   UNL     1      -5.767  20.113  70.222  0.00  0.00    +0.123 A 
BRANCH  10  16
ATOM     15  N   UNL     1      -2.848  20.364  72.599  0.00  0.00    -0.082 NA
ATOM     16  C   UNL     1      -3.862  20.898  71.739  0.00  0.00    +0.305 C 
ATOM     17  O   UNL     1      -4.444  21.937  72.175  0.00  0.00    -0.265 OA
ENDBRANCH  10  16
ENDBRANCH   1  13
TORSDOF 3
ENDMDL
MODEL 9
REMARK VINA RESULT:      -5.9      3.786      6.996
REMARK  Name = 
REMARK  3 active torsions:
REMARK  status: ('A' for Active; 'I' for Inactive)
REMARK    1  A    between atoms: C_2  and  C_4
REMARK    2  A    between atoms: N_6  and  C_7
REMARK    3  A    between atoms: C_7  and  C_8
REMARK                            x       y       z     vdW  Elec       q    Type
REMARK                         _______ _______ _______ _____ _____    ______ ____
ROOT
ATOM      1  C   UNL     1      -8.210  17.301  66.378  0.00  0.00    +0.160 C 
ENDROOT
BRANCH   1   2
ATOM      2  C   UNL     1      -8.107  18.481  67.295  0.00  0.00    +0.057 A 
ATOM      3  C   UNL     1      -7.717  19.661  66.670  0.00  0.00    +0.140 A 
ATOM      4  F   UNL     1      -8.154  19.981  65.417  0.00  0.00    -0.204 F 
ATOM      5  C   UNL     1      -7.079  20.683  67.359  0.00  0.00    +0.030 A 
ATOM      6  C   UNL     1      -6.319  20.321  68.465  0.00  0.00    +0.005 A 
ATOM      7  C   UNL     1      -6.829  19.266  69.206  0.00  0.00    +0.030 A 
ATOM      8  C   UNL     1      -7.556  18.278  68.554  0.00  0.00    +0.140 A 
ATOM      9  F   UNL     1      -7.646  17.085  69.173  0.00  0.00    -0.204 F 
ENDBRANCH   1   2
BRANCH   1  13
ATOM     10  C   UNL     1     -10.989  15.530  65.093  0.00  0.00    +0.180 A 
ATOM     11  N   UNL     1     -11.077  16.758  64.529  0.00  0.00    -0.124 NA
ATOM     12  N   UNL     1     -10.489  17.599  65.380  0.00  0.00    -0.063 NA
ATOM     13  N   UNL     1      -9.601  16.942  66.125  0.00  0.00    -0.225 N 
ATOM     14  C   UNL     1      -9.977  15.643  66.024  0.00  0.00    +0.123 A 
BRANCH  10  16
ATOM     15  N   UNL     1     -10.747  13.230  64.295  0.00  0.00    -0.082 NA
ATOM     16  C   UNL     1     -11.640  14.304  64.616  0.00  0.00    +0.305 C 
ATOM     17  O   UNL     1     -12.610  14.454  63.813  0.00  0.00    -0.265 OA
ENDBRANCH  10  16
ENDBRANCH   1  13
TORSDOF 3
ENDMDL
