MODEL 1
REMARK VINA RESULT:      -8.2      0.000      0.000
REMARK  Name = 
REMARK  7 active torsions:
REMARK  status: ('A' for Active; 'I' for Inactive)
REMARK    1  A    between atoms: O_2  and  C_3
REMARK    2  A    between atoms: C_6  and  C_7
REMARK    3  A    between atoms: C_7  and  N_8
REMARK    4  A    between atoms: C_16  and  C_17
REMARK    5  A    between atoms: C_21  and  C_22
REMARK    6  A    between atoms: N_24  and  C_25
REMARK    7  A    between atoms: C_25  and  C_26
REMARK                            x       y       z     vdW  Elec       q    Type
REMARK                         _______ _______ _______ _____ _____    ______ ____
ROOT
ATOM      1  N   UNL     1     -11.296  13.054  68.469  0.00  0.00    -0.215 NA
ATOM      2  C   UNL     1     -10.750  14.215  69.066  0.00  0.00    +0.157 A 
ATOM      3  C   UNL     1     -11.481  14.803  70.092  0.00  0.00    +0.110 A 
ATOM      4  C   UNL     1     -11.470  16.178  70.297  0.00  0.00    +0.109 A 
ATOM      5  N   UNL     1     -10.888  16.964  69.358  0.00  0.00    -0.212 NA
ATOM      6  C   UNL     1     -10.023  16.396  68.483  0.00  0.00    +0.221 A 
ATOM      7  N   UNL     1      -9.110  17.294  67.836  0.00  0.00    -0.277 N 
ATOM      8  C   UNL     1      -9.800  18.191  66.710  0.00  0.00    +0.108 C 
ATOM      9  C   UNL     1     -10.203  19.374  67.815  0.00  0.00    +0.024 C 
ATOM     10  C   UNL     1      -8.909  19.542  68.524  0.00  0.00    +0.023 C 
ATOM     11  C   UNL     1      -8.261  18.196  68.542  0.00  0.00    +0.094 C 
ATOM     12  N   UNL     1      -9.938  15.065  68.389  0.00  0.00    -0.197 NA
ENDROOT
BRANCH   3  13
ATOM     13  C   UNL     1     -12.630  14.077  70.649  0.00  0.00    +0.280 C 
ATOM     14  N   UNL     1     -12.321  13.110  71.461  0.00  0.00    -0.226 NA
ATOM     15  O   UNL     1     -13.712  14.867  71.046  0.00  0.00    -0.265 OA
BRANCH  14  16
ATOM     16  C   UNL     1     -13.420  12.235  71.854  0.00  0.00    +0.194 C 
BRANCH  16  17
ATOM     17  C   UNL     1     -12.999  10.841  71.563  0.00  0.00    +0.164 A 
ATOM     18  N   UNL     1     -13.653   9.843  72.205  0.00  0.00    -0.227 NA
ATOM     19  C   UNL     1     -13.111   8.619  72.346  0.00  0.00    +0.102 A 
ATOM     20  C   UNL     1     -11.803   8.418  71.926  0.00  0.00    +0.041 A 
ATOM     21  C   UNL     1     -11.200   9.363  71.120  0.00  0.00    +0.102 A 
ATOM     22  N   UNL     1     -11.810  10.545  70.994  0.00  0.00    -0.227 NA
ENDBRANCH  16  17
ENDBRANCH  14  16
ENDBRANCH   3  13
BRANCH   8  23
ATOM     23  C   UNL     1      -8.364  18.947  66.318  0.00  0.00    +0.202 C 
ATOM     24  O   UNL     1      -7.754  18.024  65.462  0.00  0.00    -0.219 OA
ENDBRANCH   8  23
BRANCH   1  25
ATOM     25  C   UNL     1     -10.565  11.887  68.081  0.00  0.00    +0.140 C 
BRANCH  25  30
ATOM     26  C   UNL     1     -10.178  11.236  64.015  0.00  0.00    +0.149 A 
ATOM     27  C   UNL     1     -11.191  12.096  64.415  0.00  0.00    +0.091 A 
ATOM     28 CL   UNL     1     -12.208  12.934  63.247  0.00  0.00    -0.079 Cl
ATOM     29  C   UNL     1     -11.481  12.225  65.769  0.00  0.00    +0.012 A 
ATOM     30  C   UNL     1     -10.908  11.392  66.723  0.00  0.00    +0.000 A 
ATOM     31  C   UNL     1     -10.255  10.281  66.204  0.00  0.00    +0.001 A 
ATOM     32  C   UNL     1      -9.865  10.217  64.872  0.00  0.00    +0.038 A 
BRANCH  26  34
ATOM     33  C   UNL     1      -8.946  10.344  62.180  0.00  0.00    +0.253 C 
ATOM     34  O   UNL     1      -9.660  11.420  62.760  0.00  0.00    -0.471 OA
ENDBRANCH  26  34
ENDBRANCH  25  30
ENDBRANCH   1  25
TORSDOF 7
ENDMDL
MODEL 2
REMARK VINA RESULT:      -8.0      2.674      3.834
REMARK  Name = 
REMARK  7 active torsions:
REMARK  status: ('A' for Active; 'I' for Inactive)
REMARK    1  A    between atoms: O_2  and  C_3
REMARK    2  A    between atoms: C_6  and  C_7
REMARK    3  A    between atoms: C_7  and  N_8
REMARK    4  A    between atoms: C_16  and  C_17
REMARK    5  A    between atoms: C_21  and  C_22
REMARK    6  A    between atoms: N_24  and  C_25
REMARK    7  A    between atoms: C_25  and  C_26
REMARK                            x       y       z     vdW  Elec       q    Type
REMARK                         _______ _______ _______ _____ _____    ______ ____
ROOT
ATOM      1  N   UNL     1     -11.025  15.604  65.675  0.00  0.00    -0.215 NA
ATOM      2  C   UNL     1      -9.837  15.906  66.381  0.00  0.00    +0.157 A 
ATOM      3  C   UNL     1      -9.904  15.884  67.770  0.00  0.00    +0.110 A 
ATOM      4  C   UNL     1      -9.134  16.740  68.549  0.00  0.00    +0.109 A 
ATOM      5  N   UNL     1      -8.455  17.738  67.930  0.00  0.00    -0.212 NA
ATOM      6  C   UNL     1      -8.234  17.641  66.597  0.00  0.00    +0.221 A 
ATOM      7  N   UNL     1      -7.159  18.440  66.082  0.00  0.00    -0.277 N 
ATOM      8  C   UNL     1      -7.513  19.996  66.002  0.00  0.00    +0.108 C 
ATOM      9  C   UNL     1      -6.983  20.258  67.561  0.00  0.00    +0.024 C 
ATOM     10  C   UNL     1      -5.670  19.565  67.526  0.00  0.00    +0.023 C 
ATOM     11  C   UNL     1      -5.832  18.402  66.602  0.00  0.00    +0.094 C 
ATOM     12  N   UNL     1      -8.877  16.719  65.873  0.00  0.00    -0.197 NA
ENDROOT
BRANCH   3  13
ATOM     13  C   UNL     1     -11.103  15.331  68.413  0.00  0.00    +0.280 C 
ATOM     14  N   UNL     1     -10.871  14.405  69.294  0.00  0.00    -0.226 NA
ATOM     15  O   UNL     1     -12.084  16.262  68.768  0.00  0.00    -0.265 OA
BRANCH  14  16
ATOM     16  C   UNL     1     -12.042  13.686  69.784  0.00  0.00    +0.194 C 
BRANCH  16  17
ATOM     17  C   UNL     1     -12.352  14.219  71.134  0.00  0.00    +0.164 A 
ATOM     18  N   UNL     1     -13.643  14.166  71.546  0.00  0.00    -0.227 NA
ATOM     19  C   UNL     1     -14.105  14.964  72.527  0.00  0.00    +0.102 A 
ATOM     20  C   UNL     1     -13.264  15.942  73.040  0.00  0.00    +0.041 A 
ATOM     21  C   UNL     1     -11.913  15.887  72.759  0.00  0.00    +0.102 A 
ATOM     22  N   UNL     1     -11.517  15.047  71.798  0.00  0.00    -0.227 NA
ENDBRANCH  16  17
ENDBRANCH  14  16
ENDBRANCH   3  13
BRANCH   8  23
ATOM     23  C   UNL     1      -6.024  20.384  65.354  0.00  0.00    +0.202 C 
ATOM     24  O   UNL     1      -6.360  20.899  64.098  0.00  0.00    -0.219 OA
ENDBRANCH   8  23
BRANCH   1  25
ATOM     25  C   UNL     1     -11.116  14.804  64.491  0.00  0.00    +0.140 C 
BRANCH  25  30
ATOM     26  C   UNL     1     -10.478  11.082  66.176  0.00  0.00    +0.149 A 
ATOM     27  C   UNL     1     -10.176  11.216  64.827  0.00  0.00    +0.091 A 
ATOM     28 CL   UNL     1      -9.479   9.892  63.899  0.00  0.00    -0.079 Cl
ATOM     29  C   UNL     1     -10.525  12.387  64.164  0.00  0.00    +0.012 A 
ATOM     30  C   UNL     1     -11.320  13.358  64.762  0.00  0.00    +0.000 A 
ATOM     31  C   UNL     1     -11.943  12.953  65.936  0.00  0.00    +0.001 A 
ATOM     32  C   UNL     1     -11.506  11.846  66.653  0.00  0.00    +0.038 A 
BRANCH  26  34
ATOM     33  C   UNL     1     -10.518   8.988  67.314  0.00  0.00    +0.253 C 
ATOM     34  O   UNL     1      -9.794  10.123  66.877  0.00  0.00    -0.471 OA
ENDBRANCH  26  34
ENDBRANCH  25  30
ENDBRANCH   1  25
TORSDOF 7
ENDMDL
MODEL 3
REMARK VINA RESULT:      -7.8      2.938      5.552
REMARK  Name = 
REMARK  7 active torsions:
REMARK  status: ('A' for Active; 'I' for Inactive)
REMARK    1  A    between atoms: O_2  and  C_3
REMARK    2  A    between atoms: C_6  and  C_7
REMARK    3  A    between atoms: C_7  and  N_8
REMARK    4  A    between atoms: C_16  and  C_17
REMARK    5  A    between atoms: C_21  and  C_22
REMARK    6  A    between atoms: N_24  and  C_25
REMARK    7  A    between atoms: C_25  and  C_26
REMARK                            x       y       z     vdW  Elec       q    Type
REMARK                         _______ _______ _______ _____ _____    ______ ____
ROOT
ATOM      1  N   UNL     1     -11.267  13.230  67.510  0.00  0.00    -0.215 NA
ATOM      2  C   UNL     1     -11.436  14.540  67.001  0.00  0.00    +0.157 A 
ATOM      3  C   UNL     1     -11.546  14.673  65.622  0.00  0.00    +0.110 A 
ATOM      4  C   UNL     1     -11.061  15.795  64.959  0.00  0.00    +0.109 A 
ATOM      5  N   UNL     1     -10.300  16.675  65.655  0.00  0.00    -0.212 NA
ATOM      6  C   UNL     1     -10.358  16.653  67.008  0.00  0.00    +0.221 A 
ATOM      7  N   UNL     1      -9.924  17.849  67.673  0.00  0.00    -0.277 N 
ATOM      8  C   UNL     1      -8.339  18.040  67.653  0.00  0.00    +0.108 C 
ATOM      9  C   UNL     1      -8.393  18.850  66.197  0.00  0.00    +0.024 C 
ATOM     10  C   UNL     1      -9.480  19.826  66.465  0.00  0.00    +0.023 C 
ATOM     11  C   UNL     1     -10.444  19.143  67.379  0.00  0.00    +0.094 C 
ATOM     12  N   UNL     1     -10.951  15.634  67.640  0.00  0.00    -0.197 NA
ENDROOT
BRANCH   3  13
ATOM     13  C   UNL     1     -11.716  13.465  64.805  0.00  0.00    +0.280 C 
ATOM     14  N   UNL     1     -10.620  12.807  64.570  0.00  0.00    -0.226 NA
ATOM     15  O   UNL     1     -12.831  12.678  65.110  0.00  0.00    -0.265 OA
BRANCH  14  16
ATOM     16  C   UNL     1     -10.720  11.735  63.586  0.00  0.00    +0.194 C 
BRANCH  16  17
ATOM     17  C   UNL     1      -9.746  10.685  63.978  0.00  0.00    +0.164 A 
ATOM     18  N   UNL     1      -8.948  10.940  65.043  0.00  0.00    -0.227 NA
ATOM     19  C   UNL     1      -7.788  10.282  65.230  0.00  0.00    +0.102 A 
ATOM     20  C   UNL     1      -7.350   9.411  64.241  0.00  0.00    +0.041 A 
ATOM     21  C   UNL     1      -8.229   9.016  63.252  0.00  0.00    +0.102 A 
ATOM     22  N   UNL     1      -9.379   9.688  63.145  0.00  0.00    -0.227 NA
ENDBRANCH  16  17
ENDBRANCH  14  16
ENDBRANCH   3  13
BRANCH   8  23
ATOM     23  C   UNL     1      -8.419  19.460  68.528  0.00  0.00    +0.202 C 
ATOM     24  O   UNL     1      -7.166  19.509  69.150  0.00  0.00    -0.219 OA
ENDBRANCH   8  23
BRANCH   1  25
ATOM     25  C   UNL     1     -11.893  12.699  68.682  0.00  0.00    +0.140 C 
BRANCH  25  30
ATOM     26  C   UNL     1     -10.120   9.009  69.269  0.00  0.00    +0.149 A 
ATOM     27  C   UNL     1     -10.550   9.296  67.981  0.00  0.00    +0.091 A 
ATOM     28 CL   UNL     1     -10.282   8.181  66.646  0.00  0.00    -0.079 Cl
ATOM     29  C   UNL     1     -11.302  10.443  67.753  0.00  0.00    +0.012 A 
ATOM     30  C   UNL     1     -11.785  11.223  68.800  0.00  0.00    +0.000 A 
ATOM     31  C   UNL     1     -11.690  10.630  70.053  0.00  0.00    +0.001 A 
ATOM     32  C   UNL     1     -10.842   9.556  70.293  0.00  0.00    +0.038 A 
BRANCH  26  34
ATOM     33  C   UNL     1      -9.270   7.015  70.260  0.00  0.00    +0.253 C 
ATOM     34  O   UNL     1      -9.083   8.123  69.399  0.00  0.00    -0.471 OA
ENDBRANCH  26  34
ENDBRANCH  25  30
ENDBRANCH   1  25
TORSDOF 7
ENDMDL
MODEL 4
REMARK VINA RESULT:      -7.5      1.937      2.345
REMARK  Name = 
REMARK  7 active torsions:
REMARK  status: ('A' for Active; 'I' for Inactive)
REMARK    1  A    between atoms: O_2  and  C_3
REMARK    2  A    between atoms: C_6  and  C_7
REMARK    3  A    between atoms: C_7  and  N_8
REMARK    4  A    between atoms: C_16  and  C_17
REMARK    5  A    between atoms: C_21  and  C_22
REMARK    6  A    between atoms: N_24  and  C_25
REMARK    7  A    between atoms: C_25  and  C_26
REMARK                            x       y       z     vdW  Elec       q    Type
REMARK                         _______ _______ _______ _____ _____    ______ ____
ROOT
ATOM      1  N   UNL     1     -12.312  13.520  66.778  0.00  0.00    -0.215 NA
ATOM      2  C   UNL     1     -11.197  14.179  67.349  0.00  0.00    +0.157 A 
ATOM      3  C   UNL     1     -10.987  13.999  68.712  0.00  0.00    +0.110 A 
ATOM      4  C   UNL     1     -10.438  15.003  69.501  0.00  0.00    +0.109 A 
ATOM      5  N   UNL     1     -10.289  16.238  68.961  0.00  0.00    -0.212 NA
ATOM      6  C   UNL     1     -10.306  16.361  67.612  0.00  0.00    +0.221 A 
ATOM      7  N   UNL     1      -9.703  17.552  67.086  0.00  0.00    -0.277 N 
ATOM      8  C   UNL     1     -10.595  18.859  67.306  0.00  0.00    +0.108 C 
ATOM      9  C   UNL     1      -9.907  19.151  68.796  0.00  0.00    +0.024 C 
ATOM     10  C   UNL     1      -8.466  19.011  68.466  0.00  0.00    +0.023 C 
ATOM     11  C   UNL     1      -8.377  17.968  67.401  0.00  0.00    +0.094 C 
ATOM     12  N   UNL     1     -10.705  15.339  66.848  0.00  0.00    -0.197 NA
ENDROOT
BRANCH   3  13
ATOM     13  C   UNL     1     -11.767  12.975  69.421  0.00  0.00    +0.280 C 
ATOM     14  N   UNL     1     -11.220  11.797  69.447  0.00  0.00    -0.226 NA
ATOM     15  O   UNL     1     -12.360  13.386  70.618  0.00  0.00    -0.265 OA
BRANCH  14  16
ATOM     16  C   UNL     1     -12.065  10.716  69.944  0.00  0.00    +0.194 C 
BRANCH  16  17
ATOM     17  C   UNL     1     -11.176   9.565  70.243  0.00  0.00    +0.164 A 
ATOM     18  N   UNL     1     -10.903   9.307  71.545  0.00  0.00    -0.227 NA
ATOM     19  C   UNL     1      -9.824   8.590  71.912  0.00  0.00    +0.102 A 
ATOM     20  C   UNL     1      -8.912   8.213  70.935  0.00  0.00    +0.041 A 
ATOM     21  C   UNL     1      -9.267   8.313  69.604  0.00  0.00    +0.102 A 
ATOM     22  N   UNL     1     -10.371   9.009  69.312  0.00  0.00    -0.227 NA
ENDBRANCH  16  17
ENDBRANCH  14  16
ENDBRANCH   3  13
BRANCH   8  23
ATOM     23  C   UNL     1      -9.493  19.841  66.525  0.00  0.00    +0.202 C 
ATOM     24  O   UNL     1     -10.213  20.284  65.410  0.00  0.00    -0.219 OA
ENDBRANCH   8  23
BRANCH   1  25
ATOM     25  C   UNL     1     -12.336  12.863  65.507  0.00  0.00    +0.140 C 
BRANCH  25  30
ATOM     26  C   UNL     1      -9.711  10.340  63.546  0.00  0.00    +0.149 A 
ATOM     27  C   UNL     1      -9.921  10.094  64.896  0.00  0.00    +0.091 A 
ATOM     28 CL   UNL     1      -9.173   8.726  65.715  0.00  0.00    -0.079 Cl
ATOM     29  C   UNL     1     -10.657  11.003  65.648  0.00  0.00    +0.012 A 
ATOM     30  C   UNL     1     -11.042  12.237  65.134  0.00  0.00    +0.000 A 
ATOM     31  C   UNL     1     -10.418  12.587  63.943  0.00  0.00    +0.001 A 
ATOM     32  C   UNL     1      -9.788  11.643  63.141  0.00  0.00    +0.038 A 
BRANCH  26  34
ATOM     33  C   UNL     1      -8.153   9.399  62.007  0.00  0.00    +0.253 C 
ATOM     34  O   UNL     1      -9.341   9.275  62.766  0.00  0.00    -0.471 OA
ENDBRANCH  26  34
ENDBRANCH  25  30
ENDBRANCH   1  25
TORSDOF 7
ENDMDL
MODEL 5
REMARK VINA RESULT:      -7.5      2.017      2.833
REMARK  Name = 
REMARK  7 active torsions:
REMARK  status: ('A' for Active; 'I' for Inactive)
REMARK    1  A    between atoms: O_2  and  C_3
REMARK    2  A    between atoms: C_6  and  C_7
REMARK    3  A    between atoms: C_7  and  N_8
REMARK    4  A    between atoms: C_16  and  C_17
REMARK    5  A    between atoms: C_21  and  C_22
REMARK    6  A    between atoms: N_24  and  C_25
REMARK    7  A    between atoms: C_25  and  C_26
REMARK                            x       y       z     vdW  Elec       q    Type
REMARK                         _______ _______ _______ _____ _____    ______ ____
ROOT
ATOM      1  N   UNL     1     -11.575  15.379  65.828  0.00  0.00    -0.215 NA
ATOM      2  C   UNL     1     -10.269  15.481  66.362  0.00  0.00    +0.157 A 
ATOM      3  C   UNL     1     -10.136  15.342  67.739  0.00  0.00    +0.110 A 
ATOM      4  C   UNL     1      -9.161  16.032  68.449  0.00  0.00    +0.109 A 
ATOM      5  N   UNL     1      -8.460  16.999  67.806  0.00  0.00    -0.212 NA
ATOM      6  C   UNL     1      -8.448  16.997  66.451  0.00  0.00    +0.221 A 
ATOM      7  N   UNL     1      -7.367  17.713  65.835  0.00  0.00    -0.277 N 
ATOM      8  C   UNL     1      -7.532  19.300  65.922  0.00  0.00    +0.108 C 
ATOM      9  C   UNL     1      -6.753  19.360  67.395  0.00  0.00    +0.024 C 
ATOM     10  C   UNL     1      -5.556  18.529  67.108  0.00  0.00    +0.023 C 
ATOM     11  C   UNL     1      -5.994  17.480  66.140  0.00  0.00    +0.094 C 
ATOM     12  N   UNL     1      -9.299  16.222  65.771  0.00  0.00    -0.197 NA
ENDROOT
BRANCH   3  13
ATOM     13  C   UNL     1     -11.290  14.873  68.518  0.00  0.00    +0.280 C 
ATOM     14  N   UNL     1     -11.068  13.811  69.235  0.00  0.00    -0.226 NA
ATOM     15  O   UNL     1     -12.044  15.869  69.145  0.00  0.00    -0.265 OA
BRANCH  14  16
ATOM     16  C   UNL     1     -12.243  13.196  69.841  0.00  0.00    +0.194 C 
BRANCH  16  17
ATOM     17  C   UNL     1     -11.957  11.747  69.984  0.00  0.00    +0.164 A 
ATOM     18  N   UNL     1     -12.655  11.062  70.923  0.00  0.00    -0.227 NA
ATOM     19  C   UNL     1     -12.210   9.892  71.421  0.00  0.00    +0.102 A 
ATOM     20  C   UNL     1     -10.950   9.447  71.047  0.00  0.00    +0.041 A 
ATOM     21  C   UNL     1     -10.316  10.036  69.971  0.00  0.00    +0.102 A 
ATOM     22  N   UNL     1     -10.832  11.177  69.502  0.00  0.00    -0.227 NA
ENDBRANCH  16  17
ENDBRANCH  14  16
ENDBRANCH   3  13
BRANCH   8  23
ATOM     23  C   UNL     1      -6.116  19.574  65.081  0.00  0.00    +0.202 C 
ATOM     24  O   UNL     1      -6.381  20.776  64.417  0.00  0.00    -0.219 OA
ENDBRANCH   8  23
BRANCH   1  25
ATOM     25  C   UNL     1     -11.936  14.704  64.619  0.00  0.00    +0.140 C 
BRANCH  25  30
ATOM     26  C   UNL     1     -10.208  11.045  65.474  0.00  0.00    +0.149 A 
ATOM     27  C   UNL     1     -10.314  11.386  64.132  0.00  0.00    +0.091 A 
ATOM     28 CL   UNL     1      -9.671  10.352  62.861  0.00  0.00    -0.079 Cl
ATOM     29  C   UNL     1     -11.034  12.519  63.772  0.00  0.00    +0.012 A 
ATOM     30  C   UNL     1     -11.797  13.227  64.695  0.00  0.00    +0.000 A 
ATOM     31  C   UNL     1     -11.994  12.572  65.905  0.00  0.00    +0.001 A 
ATOM     32  C   UNL     1     -11.187  11.514  66.305  0.00  0.00    +0.038 A 
BRANCH  26  34
ATOM     33  C   UNL     1      -7.952  10.749  66.184  0.00  0.00    +0.253 C 
ATOM     34  O   UNL     1      -9.199  10.185  65.823  0.00  0.00    -0.471 OA
ENDBRANCH  26  34
ENDBRANCH  25  30
ENDBRANCH   1  25
TORSDOF 7
ENDMDL
MODEL 6
REMARK VINA RESULT:      -7.4      3.072      4.873
REMARK  Name = 
REMARK  7 active torsions:
REMARK  status: ('A' for Active; 'I' for Inactive)
REMARK    1  A    between atoms: O_2  and  C_3
REMARK    2  A    between atoms: C_6  and  C_7
REMARK    3  A    between atoms: C_7  and  N_8
REMARK    4  A    between atoms: C_16  and  C_17
REMARK    5  A    between atoms: C_21  and  C_22
REMARK    6  A    between atoms: N_24  and  C_25
REMARK    7  A    between atoms: C_25  and  C_26
REMARK                            x       y       z     vdW  Elec       q    Type
REMARK                         _______ _______ _______ _____ _____    ______ ____
ROOT
ATOM      1  N   UNL     1      -8.479  15.249  67.175  0.00  0.00    -0.215 NA
ATOM      2  C   UNL     1      -7.953  16.308  67.953  0.00  0.00    +0.157 A 
ATOM      3  C   UNL     1      -8.867  17.189  68.521  0.00  0.00    +0.110 A 
ATOM      4  C   UNL     1      -8.563  18.533  68.702  0.00  0.00    +0.109 A 
ATOM      5  N   UNL     1      -7.431  19.020  68.137  0.00  0.00    -0.212 NA
ATOM      6  C   UNL     1      -6.466  18.145  67.764  0.00  0.00    +0.221 A 
ATOM      7  N   UNL     1      -5.149  18.696  67.611  0.00  0.00    -0.277 N 
ATOM      8  C   UNL     1      -4.986  19.578  66.289  0.00  0.00    +0.108 C 
ATOM      9  C   UNL     1      -5.488  20.959  67.077  0.00  0.00    +0.024 C 
ATOM     10  C   UNL     1      -4.654  20.896  68.304  0.00  0.00    +0.023 C 
ATOM     11  C   UNL     1      -4.487  19.446  68.626  0.00  0.00    +0.094 C 
ATOM     12  N   UNL     1      -6.724  16.834  67.726  0.00  0.00    -0.197 NA
ENDROOT
BRANCH   3  13
ATOM     13  C   UNL     1     -10.295  16.849  68.485  0.00  0.00    +0.280 C 
ATOM     14  N   UNL     1     -10.734  16.231  69.541  0.00  0.00    -0.226 NA
ATOM     15  O   UNL     1     -11.141  17.839  67.977  0.00  0.00    -0.265 OA
BRANCH  14  16
ATOM     16  C   UNL     1     -12.084  15.687  69.443  0.00  0.00    +0.194 C 
BRANCH  16  17
ATOM     17  C   UNL     1     -12.619  15.587  70.824  0.00  0.00    +0.164 A 
ATOM     18  N   UNL     1     -12.014  16.327  71.784  0.00  0.00    -0.227 NA
ATOM     19  C   UNL     1     -12.124  16.017  73.090  0.00  0.00    +0.102 A 
ATOM     20  C   UNL     1     -12.776  14.842  73.442  0.00  0.00    +0.041 A 
ATOM     21  C   UNL     1     -13.540  14.185  72.499  0.00  0.00    +0.102 A 
ATOM     22  N   UNL     1     -13.409  14.567  71.225  0.00  0.00    -0.227 NA
ENDBRANCH  16  17
ENDBRANCH  14  16
ENDBRANCH   3  13
BRANCH   8  23
ATOM     23  C   UNL     1      -3.377  19.897  66.605  0.00  0.00    +0.202 C 
ATOM     24  O   UNL     1      -2.723  19.248  65.552  0.00  0.00    -0.219 OA
ENDBRANCH   8  23
BRANCH   1  25
ATOM     25  C   UNL     1      -8.011  13.896  67.175  0.00  0.00    +0.140 C 
BRANCH  25  30
ATOM     26  C   UNL     1     -11.317  11.569  68.042  0.00  0.00    +0.149 A 
ATOM     27  C   UNL     1     -10.101  10.908  67.932  0.00  0.00    +0.091 A 
ATOM     28 CL   UNL     1      -9.958   9.178  68.228  0.00  0.00    -0.079 Cl
ATOM     29  C   UNL     1      -8.986  11.603  67.478  0.00  0.00    +0.012 A 
ATOM     30  C   UNL     1      -9.086  12.893  66.966  0.00  0.00    +0.000 A 
ATOM     31  C   UNL     1     -10.384  13.311  66.700  0.00  0.00    +0.001 A 
ATOM     32  C   UNL     1     -11.486  12.676  67.259  0.00  0.00    +0.038 A 
BRANCH  26  34
ATOM     33  C   UNL     1     -12.169  11.197  70.237  0.00  0.00    +0.253 C 
ATOM     34  O   UNL     1     -12.272  10.993  68.840  0.00  0.00    -0.471 OA
ENDBRANCH  26  34
ENDBRANCH  25  30
ENDBRANCH   1  25
TORSDOF 7
ENDMDL
MODEL 7
REMARK VINA RESULT:      -7.3      2.542      7.217
REMARK  Name = 
REMARK  7 active torsions:
REMARK  status: ('A' for Active; 'I' for Inactive)
REMARK    1  A    between atoms: O_2  and  C_3
REMARK    2  A    between atoms: C_6  and  C_7
REMARK    3  A    between atoms: C_7  and  N_8
REMARK    4  A    between atoms: C_16  and  C_17
REMARK    5  A    between atoms: C_21  and  C_22
REMARK    6  A    between atoms: N_24  and  C_25
REMARK    7  A    between atoms: C_25  and  C_26
REMARK                            x       y       z     vdW  Elec       q    Type
REMARK                         _______ _______ _______ _____ _____    ______ ____
ROOT
ATOM      1  N   UNL     1     -10.563  15.185  66.167  0.00  0.00    -0.215 NA
ATOM      2  C   UNL     1     -11.150  15.840  67.276  0.00  0.00    +0.157 A 
ATOM      3  C   UNL     1     -10.459  16.923  67.808  0.00  0.00    +0.110 A 
ATOM      4  C   UNL     1     -10.504  17.217  69.166  0.00  0.00    +0.109 A 
ATOM      5  N   UNL     1     -11.076  16.315  70.002  0.00  0.00    -0.212 NA
ATOM      6  C   UNL     1     -11.904  15.381  69.477  0.00  0.00    +0.221 A 
ATOM      7  N   UNL     1     -12.818  14.768  70.398  0.00  0.00    -0.277 N 
ATOM      8  C   UNL     1     -12.116  13.724  71.381  0.00  0.00    +0.108 C 
ATOM      9  C   UNL     1     -11.767  14.915  72.495  0.00  0.00    +0.024 C 
ATOM     10  C   UNL     1     -13.084  15.595  72.592  0.00  0.00    +0.023 C 
ATOM     11  C   UNL     1     -13.704  15.507  71.235  0.00  0.00    +0.094 C 
ATOM     12  N   UNL     1     -11.960  15.198  68.154  0.00  0.00    -0.197 NA
ENDROOT
BRANCH   3  13
ATOM     13  C   UNL     1      -9.311  17.464  67.068  0.00  0.00    +0.280 C 
ATOM     14  N   UNL     1      -8.170  16.910  67.353  0.00  0.00    -0.226 NA
ATOM     15  O   UNL     1      -9.530  17.719  65.711  0.00  0.00    -0.265 OA
BRANCH  14  16
ATOM     16  C   UNL     1      -6.990  17.569  66.804  0.00  0.00    +0.194 C 
BRANCH  16  17
ATOM     17  C   UNL     1      -6.824  18.852  67.533  0.00  0.00    +0.164 A 
ATOM     18  N   UNL     1      -6.559  19.959  66.796  0.00  0.00    -0.227 NA
ATOM     19  C   UNL     1      -5.993  21.052  67.342  0.00  0.00    +0.102 A 
ATOM     20  C   UNL     1      -5.564  20.991  68.661  0.00  0.00    +0.041 A 
ATOM     21  C   UNL     1      -5.985  19.946  69.460  0.00  0.00    +0.102 A 
ATOM     22  N   UNL     1      -6.573  18.908  68.858  0.00  0.00    -0.227 NA
ENDBRANCH  16  17
ENDBRANCH  14  16
ENDBRANCH   3  13
BRANCH   8  23
ATOM     23  C   UNL     1     -13.556  13.341  72.134  0.00  0.00    +0.202 C 
ATOM     24  O   UNL     1     -13.535  11.942  72.146  0.00  0.00    -0.219 OA
ENDBRANCH   8  23
BRANCH   1  25
ATOM     25  C   UNL     1     -11.260  14.700  65.015  0.00  0.00    +0.140 C 
BRANCH  25  30
ATOM     26  C   UNL     1     -10.186  10.748  65.586  0.00  0.00    +0.149 A 
ATOM     27  C   UNL     1     -10.170  11.215  64.279  0.00  0.00    +0.091 A 
ATOM     28 CL   UNL     1      -9.640  10.202  62.940  0.00  0.00    -0.079 Cl
ATOM     29  C   UNL     1     -10.680  12.478  64.001  0.00  0.00    +0.012 A 
ATOM     30  C   UNL     1     -11.363  13.220  64.959  0.00  0.00    +0.000 A 
ATOM     31  C   UNL     1     -11.722  12.505  66.095  0.00  0.00    +0.001 A 
ATOM     32  C   UNL     1     -11.116  11.298  66.423  0.00  0.00    +0.038 A 
BRANCH  26  34
ATOM     33  C   UNL     1      -9.901   8.588  66.554  0.00  0.00    +0.253 C 
ATOM     34  O   UNL     1      -9.347   9.707  65.888  0.00  0.00    -0.471 OA
ENDBRANCH  26  34
ENDBRANCH  25  30
ENDBRANCH   1  25
TORSDOF 7
ENDMDL
MODEL 8
REMARK VINA RESULT:      -7.3      3.152      4.342
REMARK  Name = 
REMARK  7 active torsions:
REMARK  status: ('A' for Active; 'I' for Inactive)
REMARK    1  A    between atoms: O_2  and  C_3
REMARK    2  A    between atoms: C_6  and  C_7
REMARK    3  A    between atoms: C_7  and  N_8
REMARK    4  A    between atoms: C_16  and  C_17
REMARK    5  A    between atoms: C_21  and  C_22
REMARK    6  A    between atoms: N_24  and  C_25
REMARK    7  A    between atoms: C_25  and  C_26
REMARK                            x       y       z     vdW  Elec       q    Type
REMARK                         _______ _______ _______ _____ _____    ______ ____
ROOT
ATOM      1  N   UNL     1      -8.337  15.356  67.206  0.00  0.00    -0.215 NA
ATOM      2  C   UNL     1      -7.839  16.468  67.925  0.00  0.00    +0.157 A 
ATOM      3  C   UNL     1      -8.773  17.369  68.424  0.00  0.00    +0.110 A 
ATOM      4  C   UNL     1      -8.491  18.726  68.526  0.00  0.00    +0.109 A 
ATOM      5  N   UNL     1      -7.356  19.194  67.950  0.00  0.00    -0.212 NA
ATOM      6  C   UNL     1      -6.373  18.312  67.647  0.00  0.00    +0.221 A 
ATOM      7  N   UNL     1      -5.062  18.871  67.481  0.00  0.00    -0.277 N 
ATOM      8  C   UNL     1      -4.889  19.673  66.110  0.00  0.00    +0.108 C 
ATOM      9  C   UNL     1      -5.423  21.092  66.803  0.00  0.00    +0.024 C 
ATOM     10  C   UNL     1      -4.608  21.117  68.045  0.00  0.00    +0.023 C 
ATOM     11  C   UNL     1      -4.428  19.693  68.458  0.00  0.00    +0.094 C 
ATOM     12  N   UNL     1      -6.613  16.997  67.685  0.00  0.00    -0.197 NA
ENDROOT
BRANCH   3  13
ATOM     13  C   UNL     1     -10.196  17.007  68.386  0.00  0.00    +0.280 C 
ATOM     14  N   UNL     1     -10.631  16.397  69.449  0.00  0.00    -0.226 NA
ATOM     15  O   UNL     1     -11.055  17.976  67.861  0.00  0.00    -0.265 OA
BRANCH  14  16
ATOM     16  C   UNL     1     -11.972  15.831  69.353  0.00  0.00    +0.194 C 
BRANCH  16  17
ATOM     17  C   UNL     1     -12.388  15.450  70.726  0.00  0.00    +0.164 A 
ATOM     18  N   UNL     1     -13.715  15.455  71.000  0.00  0.00    -0.227 NA
ATOM     19  C   UNL     1     -14.175  15.539  72.263  0.00  0.00    +0.102 A 
ATOM     20  C   UNL     1     -13.265  15.745  73.291  0.00  0.00    +0.041 A 
ATOM     21  C   UNL     1     -11.918  15.564  73.046  0.00  0.00    +0.102 A 
ATOM     22  N   UNL     1     -11.533  15.452  71.771  0.00  0.00    -0.227 NA
ENDBRANCH  16  17
ENDBRANCH  14  16
ENDBRANCH   3  13
BRANCH   8  23
ATOM     23  C   UNL     1      -3.290  20.034  66.430  0.00  0.00    +0.202 C 
ATOM     24  O   UNL     1      -2.747  20.185  65.150  0.00  0.00    -0.219 OA
ENDBRANCH   8  23
BRANCH   1  25
ATOM     25  C   UNL     1      -7.850  14.013  67.297  0.00  0.00    +0.140 C 
BRANCH  25  30
ATOM     26  C   UNL     1     -10.146  11.421  65.034  0.00  0.00    +0.149 A 
ATOM     27  C   UNL     1     -10.799  12.517  65.581  0.00  0.00    +0.091 A 
ATOM     28 CL   UNL     1     -12.501  12.834  65.262  0.00  0.00    -0.079 Cl
ATOM     29  C   UNL     1     -10.126  13.330  66.487  0.00  0.00    +0.012 A 
ATOM     30  C   UNL     1      -8.878  12.984  66.994  0.00  0.00    +0.000 A 
ATOM     31  C   UNL     1      -8.495  11.672  66.743  0.00  0.00    +0.001 A 
ATOM     32  C   UNL     1      -9.100  10.910  65.751  0.00  0.00    +0.038 A 
BRANCH  26  34
ATOM     33  C   UNL     1      -9.767  10.427  62.902  0.00  0.00    +0.253 C 
ATOM     34  O   UNL     1     -10.672  10.888  63.887  0.00  0.00    -0.471 OA
ENDBRANCH  26  34
ENDBRANCH  25  30
ENDBRANCH   1  25
TORSDOF 7
ENDMDL
MODEL 9
REMARK VINA RESULT:      -7.3      3.053      6.139
REMARK  Name = 
REMARK  7 active torsions:
REMARK  status: ('A' for Active; 'I' for Inactive)
REMARK    1  A    between atoms: O_2  and  C_3
REMARK    2  A    between atoms: C_6  and  C_7
REMARK    3  A    between atoms: C_7  and  N_8
REMARK    4  A    between atoms: C_16  and  C_17
REMARK    5  A    between atoms: C_21  and  C_22
REMARK    6  A    between atoms: N_24  and  C_25
REMARK    7  A    between atoms: C_25  and  C_26
REMARK                            x       y       z     vdW  Elec       q    Type
REMARK                         _______ _______ _______ _____ _____    ______ ____
ROOT
ATOM      1  N   UNL     1      -9.838  13.399  67.176  0.00  0.00    -0.215 NA
ATOM      2  C   UNL     1     -10.049  14.795  67.080  0.00  0.00    +0.157 A 
ATOM      3  C   UNL     1     -10.752  15.255  65.972  0.00  0.00    +0.110 A 
ATOM      4  C   UNL     1     -10.479  16.492  65.400  0.00  0.00    +0.109 A 
ATOM      5  N   UNL     1      -9.380  17.167  65.820  0.00  0.00    -0.212 NA
ATOM      6  C   UNL     1      -8.823  16.824  67.006  0.00  0.00    +0.221 A 
ATOM      7  N   UNL     1      -7.988  17.820  67.615  0.00  0.00    -0.277 N 
ATOM      8  C   UNL     1      -6.572  17.979  66.894  0.00  0.00    +0.108 C 
ATOM      9  C   UNL     1      -7.173  19.113  65.830  0.00  0.00    +0.024 C 
ATOM     10  C   UNL     1      -7.887  20.019  66.766  0.00  0.00    +0.023 C 
ATOM     11  C   UNL     1      -8.413  19.157  67.867  0.00  0.00    +0.094 C 
ATOM     12  N   UNL     1      -9.193  15.697  67.623  0.00  0.00    -0.197 NA
ENDROOT
BRANCH   3  13
ATOM     13  C   UNL     1     -11.426  14.278  65.106  0.00  0.00    +0.280 C 
ATOM     14  N   UNL     1     -10.641  13.388  64.576  0.00  0.00    -0.226 NA
ATOM     15  O   UNL     1     -12.648  13.792  65.577  0.00  0.00    -0.265 OA
BRANCH  14  16
ATOM     16  C   UNL     1     -11.239  12.548  63.544  0.00  0.00    +0.194 C 
BRANCH  16  17
ATOM     17  C   UNL     1     -10.659  11.189  63.692  0.00  0.00    +0.164 A 
ATOM     18  N   UNL     1     -10.548  10.691  64.948  0.00  0.00    -0.227 NA
ATOM     19  C   UNL     1      -9.689   9.695  65.239  0.00  0.00    +0.102 A 
ATOM     20  C   UNL     1      -8.817   9.258  64.251  0.00  0.00    +0.041 A 
ATOM     21  C   UNL     1      -9.042   9.629  62.940  0.00  0.00    +0.102 A 
ATOM     22  N   UNL     1      -9.934  10.599  62.718  0.00  0.00    -0.227 NA
ENDBRANCH  16  17
ENDBRANCH  14  16
ENDBRANCH   3  13
BRANCH   8  23
ATOM     23  C   UNL     1      -6.066  19.152  67.970  0.00  0.00    +0.202 C 
ATOM     24  O   UNL     1      -4.714  18.840  68.152  0.00  0.00    -0.219 OA
ENDBRANCH   8  23
BRANCH   1  25
ATOM     25  C   UNL     1      -9.930  12.617  68.370  0.00  0.00    +0.140 C 
BRANCH  25  30
ATOM     26  C   UNL     1     -12.791  13.209  71.297  0.00  0.00    +0.149 A 
ATOM     27  C   UNL     1     -12.523  11.893  70.945  0.00  0.00    +0.091 A 
ATOM     28 CL   UNL     1     -13.300  10.540  71.759  0.00  0.00    -0.079 Cl
ATOM     29  C   UNL     1     -11.699  11.634  69.855  0.00  0.00    +0.012 A 
ATOM     30  C   UNL     1     -11.274  12.646  69.001  0.00  0.00    +0.000 A 
ATOM     31  C   UNL     1     -11.941  13.855  69.160  0.00  0.00    +0.001 A 
ATOM     32  C   UNL     1     -12.664  14.146  70.310  0.00  0.00    +0.038 A 
BRANCH  26  34
ATOM     33  C   UNL     1     -13.097  14.731  73.105  0.00  0.00    +0.253 C 
ATOM     34  O   UNL     1     -13.260  13.433  72.565  0.00  0.00    -0.471 OA
ENDBRANCH  26  34
ENDBRANCH  25  30
ENDBRANCH   1  25
TORSDOF 7
ENDMDL
