MODEL 1
REMARK VINA RESULT:      -3.0      0.000      0.000
REMARK  Name = 
REMARK  1 active torsions:
REMARK  status: ('A' for Active; 'I' for Inactive)
REMARK    1  A    between atoms: C_2  and  C_3
REMARK                            x       y       z     vdW  Elec       q    Type
REMARK                         _______ _______ _______ _____ _____    ______ ____
ROOT
ATOM      1  C   UNL     1     -13.382  14.778  72.687  0.00  0.00    +0.161 C 
ATOM      2  O   UNL     1     -14.498  15.845  72.126  0.00  0.00    -0.350 OA
ATOM      3  C   UNL     1     -13.434  15.178  71.066  0.00  0.00    +0.173 C 
ENDROOT
BRANCH   1   5
ATOM      4 CL   UNL     1     -12.419  15.754  74.847  0.00  0.00    -0.111 Cl
ATOM      5  C   UNL     1     -12.288  16.064  73.071  0.00  0.00    +0.127 C 
ENDBRANCH   1   5
TORSDOF 1
ENDMDL
MODEL 2
REMARK VINA RESULT:      -2.8      2.575      2.889
REMARK  Name = 
REMARK  1 active torsions:
REMARK  status: ('A' for Active; 'I' for Inactive)
REMARK    1  A    between atoms: C_2  and  C_3
REMARK                            x       y       z     vdW  Elec       q    Type
REMARK                         _______ _______ _______ _____ _____    ______ ____
ROOT
ATOM      1  C   UNL     1     -13.486  15.791  73.052  0.00  0.00    +0.161 C 
ATOM      2  O   UNL     1     -12.364  15.036  73.984  0.00  0.00    -0.350 OA
ATOM      3  C   UNL     1     -11.897  15.683  72.548  0.00  0.00    +0.173 C 
ENDROOT
BRANCH   1   5
ATOM      4 CL   UNL     1     -15.284  15.059  71.385  0.00  0.00    -0.111 Cl
ATOM      5  C   UNL     1     -13.929  14.293  72.304  0.00  0.00    +0.127 C 
ENDBRANCH   1   5
TORSDOF 1
ENDMDL
MODEL 3
REMARK VINA RESULT:      -2.8      2.311      2.777
REMARK  Name = 
REMARK  1 active torsions:
REMARK  status: ('A' for Active; 'I' for Inactive)
REMARK    1  A    between atoms: C_2  and  C_3
REMARK                            x       y       z     vdW  Elec       q    Type
REMARK                         _______ _______ _______ _____ _____    ______ ____
ROOT
ATOM      1  C   UNL     1     -13.239  15.097  71.612  0.00  0.00    +0.161 C 
ATOM      2  O   UNL     1     -14.604  15.873  72.092  0.00  0.00    -0.350 OA
ATOM      3  C   UNL     1     -13.308  15.848  73.102  0.00  0.00    +0.173 C 
ENDROOT
BRANCH   1   5
ATOM      4 CL   UNL     1     -12.737  12.628  71.162  0.00  0.00    -0.111 Cl
ATOM      5  C   UNL     1     -13.830  13.592  72.232  0.00  0.00    +0.127 C 
ENDBRANCH   1   5
TORSDOF 1
ENDMDL
MODEL 4
REMARK VINA RESULT:      -2.7      8.675      9.359
REMARK  Name = 
REMARK  1 active torsions:
REMARK  status: ('A' for Active; 'I' for Inactive)
REMARK    1  A    between atoms: C_2  and  C_3
REMARK                            x       y       z     vdW  Elec       q    Type
REMARK                         _______ _______ _______ _____ _____    ______ ____
ROOT
ATOM      1  C   UNL     1     -11.413  13.527  64.363  0.00  0.00    +0.161 C 
ATOM      2  O   UNL     1     -12.591  14.600  63.966  0.00  0.00    -0.350 OA
ATOM      3  C   UNL     1     -12.662  13.847  65.425  0.00  0.00    +0.173 C 
ENDROOT
BRANCH   1   5
ATOM      4 CL   UNL     1     -10.790  11.210  63.473  0.00  0.00    -0.111 Cl
ATOM      5  C   UNL     1     -12.272  12.239  63.587  0.00  0.00    +0.127 C 
ENDBRANCH   1   5
TORSDOF 1
ENDMDL
MODEL 5
REMARK VINA RESULT:      -2.7      2.536      2.863
REMARK  Name = 
REMARK  1 active torsions:
REMARK  status: ('A' for Active; 'I' for Inactive)
REMARK    1  A    between atoms: C_2  and  C_3
REMARK                            x       y       z     vdW  Elec       q    Type
REMARK                         _______ _______ _______ _____ _____    ______ ____
ROOT
ATOM      1  C   UNL     1     -13.075  15.811  72.611  0.00  0.00    +0.161 C 
ATOM      2  O   UNL     1     -13.323  14.291  73.182  0.00  0.00    -0.350 OA
ATOM      3  C   UNL     1     -12.460  15.351  74.094  0.00  0.00    +0.173 C 
ENDROOT
BRANCH   1   5
ATOM      4 CL   UNL     1     -12.373  15.734  70.151  0.00  0.00    -0.111 Cl
ATOM      5  C   UNL     1     -11.659  15.300  71.755  0.00  0.00    +0.127 C 
ENDBRANCH   1   5
TORSDOF 1
ENDMDL
MODEL 6
REMARK VINA RESULT:      -2.7      7.642      8.170
REMARK  Name = 
REMARK  1 active torsions:
REMARK  status: ('A' for Active; 'I' for Inactive)
REMARK    1  A    between atoms: C_2  and  C_3
REMARK                            x       y       z     vdW  Elec       q    Type
REMARK                         _______ _______ _______ _____ _____    ______ ____
ROOT
ATOM      1  C   UNL     1     -12.080  12.452  65.158  0.00  0.00    +0.161 C 
ATOM      2  O   UNL     1     -13.275  12.219  64.055  0.00  0.00    -0.350 OA
ATOM      3  C   UNL     1     -11.796  12.706  63.532  0.00  0.00    +0.173 C 
ENDROOT
BRANCH   1   5
ATOM      4 CL   UNL     1     -12.070  14.051  67.156  0.00  0.00    -0.111 Cl
ATOM      5  C   UNL     1     -12.592  14.085  65.425  0.00  0.00    +0.127 C 
ENDBRANCH   1   5
TORSDOF 1
ENDMDL
MODEL 7
REMARK VINA RESULT:      -2.6      8.423      8.697
REMARK  Name = 
REMARK  1 active torsions:
REMARK  status: ('A' for Active; 'I' for Inactive)
REMARK    1  A    between atoms: C_2  and  C_3
REMARK                            x       y       z     vdW  Elec       q    Type
REMARK                         _______ _______ _______ _____ _____    ______ ____
ROOT
ATOM      1  C   UNL     1     -11.755  12.907  64.949  0.00  0.00    +0.161 C 
ATOM      2  O   UNL     1     -13.291  12.433  64.616  0.00  0.00    -0.350 OA
ATOM      3  C   UNL     1     -12.159  12.348  63.428  0.00  0.00    +0.173 C 
ENDROOT
BRANCH   1   5
ATOM      4 CL   UNL     1     -10.501  15.136  65.060  0.00  0.00    -0.111 Cl
ATOM      5  C   UNL     1     -12.135  14.550  64.555  0.00  0.00    +0.127 C 
ENDBRANCH   1   5
TORSDOF 1
ENDMDL
MODEL 8
REMARK VINA RESULT:      -2.6      1.955      2.286
REMARK  Name = 
REMARK  1 active torsions:
REMARK  status: ('A' for Active; 'I' for Inactive)
REMARK    1  A    between atoms: C_2  and  C_3
REMARK                            x       y       z     vdW  Elec       q    Type
REMARK                         _______ _______ _______ _____ _____    ______ ____
ROOT
ATOM      1  C   UNL     1     -13.251  14.425  72.745  0.00  0.00    +0.161 C 
ATOM      2  O   UNL     1     -14.703  13.752  72.377  0.00  0.00    -0.350 OA
ATOM      3  C   UNL     1     -13.331  12.913  72.039  0.00  0.00    +0.173 C 
ENDROOT
BRANCH   1   5
ATOM      4 CL   UNL     1     -11.774  16.241  71.711  0.00  0.00    -0.111 Cl
ATOM      5  C   UNL     1     -13.199  15.243  71.220  0.00  0.00    +0.127 C 
ENDBRANCH   1   5
TORSDOF 1
ENDMDL
MODEL 9
REMARK VINA RESULT:      -2.6      8.329      8.629
REMARK  Name = 
REMARK  1 active torsions:
REMARK  status: ('A' for Active; 'I' for Inactive)
REMARK    1  A    between atoms: C_2  and  C_3
REMARK                            x       y       z     vdW  Elec       q    Type
REMARK                         _______ _______ _______ _____ _____    ______ ____
ROOT
ATOM      1  C   UNL     1     -12.301  13.143  64.880  0.00  0.00    +0.161 C 
ATOM      2  O   UNL     1     -12.639  13.753  63.393  0.00  0.00    -0.350 OA
ATOM      3  C   UNL     1     -12.183  12.180  63.520  0.00  0.00    +0.173 C 
ENDROOT
BRANCH   1   5
ATOM      4 CL   UNL     1     -10.837  14.794  66.176  0.00  0.00    -0.111 Cl
ATOM      5  C   UNL     1     -10.657  13.675  64.767  0.00  0.00    +0.127 C 
ENDBRANCH   1   5
TORSDOF 1
ENDMDL
