MODEL 1
REMARK VINA RESULT:      -5.4      0.000      0.000
REMARK  Name = 
REMARK  4 active torsions:
REMARK  status: ('A' for Active; 'I' for Inactive)
REMARK    1  A    between atoms: O_2  and  C_3
REMARK    2  A    between atoms: C_3  and  C_5
REMARK    3  A    between atoms: C_5  and  C_6
REMARK    4  A    between atoms: C_5  and  C_12
REMARK                            x       y       z     vdW  Elec       q    Type
REMARK                         _______ _______ _______ _____ _____    ______ ____
ROOT
ATOM      1  C   UNL     1     -11.774  13.652  66.867  0.00  0.00    +0.137 C 
ENDROOT
BRANCH   1   2
ATOM      2  C   UNL     1     -10.141  14.227  66.965  0.00  0.00    +0.087 C 
ATOM      3  N   UNL     1     -10.607  15.470  67.819  0.00  0.00    -0.219 NA
ATOM      4  C   UNL     1      -9.360  16.238  67.800  0.00  0.00    +0.089 C 
ATOM      5  C   UNL     1      -9.471  17.100  66.546  0.00  0.00    +0.019 C 
ATOM      6  C   UNL     1     -10.478  16.403  65.639  0.00  0.00    +0.003 C 
ATOM      7  C   UNL     1     -10.227  14.985  65.514  0.00  0.00    +0.018 C 
ENDBRANCH   1   2
BRANCH   1   8
ATOM      8  C   UNL     1     -11.483  12.655  65.642  0.00  0.00    -0.011 A 
ATOM      9  C   UNL     1     -10.654  11.610  65.824  0.00  0.00    -0.004 A 
ATOM     10  C   UNL     1     -10.332  10.875  64.686  0.00  0.00    -0.000 A 
ATOM     11  C   UNL     1     -10.869  11.262  63.462  0.00  0.00    -0.000 A 
ATOM     12  C   UNL     1     -12.091  11.925  63.516  0.00  0.00    -0.000 A 
ATOM     13  C   UNL     1     -12.454  12.588  64.683  0.00  0.00    -0.004 A 
ENDBRANCH   1   8
BRANCH   1  14
ATOM     14  C   UNL     1     -11.491  12.495  67.955  0.00  0.00    +0.322 C 
ATOM     15  O   UNL     1     -12.207  11.481  67.848  0.00  0.00    -0.250 OA
BRANCH  14  17
ATOM     16  C   UNL     1     -12.107  13.145  70.201  0.00  0.00    +0.256 C 
ATOM     17  O   UNL     1     -11.158  12.983  69.208  0.00  0.00    -0.444 OA
ENDBRANCH  14  17
ENDBRANCH   1  14
TORSDOF 4
ENDMDL
MODEL 2
REMARK VINA RESULT:      -5.2      2.197      3.960
REMARK  Name = 
REMARK  4 active torsions:
REMARK  status: ('A' for Active; 'I' for Inactive)
REMARK    1  A    between atoms: O_2  and  C_3
REMARK    2  A    between atoms: C_3  and  C_5
REMARK    3  A    between atoms: C_5  and  C_6
REMARK    4  A    between atoms: C_5  and  C_12
REMARK                            x       y       z     vdW  Elec       q    Type
REMARK                         _______ _______ _______ _____ _____    ______ ____
ROOT
ATOM      1  C   UNL     1     -10.128  14.845  67.392  0.00  0.00    +0.137 C 
ENDROOT
BRANCH   1   2
ATOM      2  C   UNL     1     -11.659  15.256  68.095  0.00  0.00    +0.087 C 
ATOM      3  N   UNL     1     -10.965  15.565  69.479  0.00  0.00    -0.219 NA
ATOM      4  C   UNL     1     -12.164  15.703  70.307  0.00  0.00    +0.089 C 
ATOM      5  C   UNL     1     -12.444  14.286  70.801  0.00  0.00    +0.019 C 
ATOM      6  C   UNL     1     -11.754  13.350  69.816  0.00  0.00    +0.003 C 
ATOM      7  C   UNL     1     -12.020  13.695  68.438  0.00  0.00    +0.018 C 
ENDBRANCH   1   2
BRANCH   1   8
ATOM      8  C   UNL     1     -10.769  14.098  66.123  0.00  0.00    -0.011 A 
ATOM      9  C   UNL     1     -11.474  14.809  65.225  0.00  0.00    -0.004 A 
ATOM     10  C   UNL     1     -12.123  14.077  64.233  0.00  0.00    -0.000 A 
ATOM     11  C   UNL     1     -12.009  12.691  64.238  0.00  0.00    -0.000 A 
ATOM     12  C   UNL     1     -10.847  12.178  64.807  0.00  0.00    -0.000 A 
ATOM     13  C   UNL     1     -10.150  12.943  65.734  0.00  0.00    -0.004 A 
ENDBRANCH   1   8
BRANCH   1  14
ATOM     14  C   UNL     1     -10.050  16.249  66.602  0.00  0.00    +0.322 C 
ATOM     15  O   UNL     1      -9.175  16.311  65.716  0.00  0.00    -0.250 OA
BRANCH  14  17
ATOM     16  C   UNL     1     -10.439  18.620  66.870  0.00  0.00    +0.256 C 
ATOM     17  O   UNL     1     -10.310  17.350  67.401  0.00  0.00    -0.444 OA
ENDBRANCH  14  17
ENDBRANCH   1  14
TORSDOF 4
ENDMDL
MODEL 3
REMARK VINA RESULT:      -5.2      3.148      6.134
REMARK  Name = 
REMARK  4 active torsions:
REMARK  status: ('A' for Active; 'I' for Inactive)
REMARK    1  A    between atoms: O_2  and  C_3
REMARK    2  A    between atoms: C_3  and  C_5
REMARK    3  A    between atoms: C_5  and  C_6
REMARK    4  A    between atoms: C_5  and  C_12
REMARK                            x       y       z     vdW  Elec       q    Type
REMARK                         _______ _______ _______ _____ _____    ______ ____
ROOT
ATOM      1  C   UNL     1     -11.945  15.155  69.024  0.00  0.00    +0.137 C 
ENDROOT
BRANCH   1   2
ATOM      2  C   UNL     1     -10.696  14.011  69.391  0.00  0.00    +0.087 C 
ATOM      3  N   UNL     1     -10.455  13.748  67.853  0.00  0.00    -0.219 NA
ATOM      4  C   UNL     1      -9.567  12.589  67.958  0.00  0.00    +0.089 C 
ATOM      5  C   UNL     1     -10.515  11.392  67.980  0.00  0.00    +0.019 C 
ATOM      6  C   UNL     1     -11.865  11.930  68.440  0.00  0.00    +0.003 C 
ATOM      7  C   UNL     1     -11.760  12.783  69.601  0.00  0.00    +0.018 C 
ENDBRANCH   1   2
BRANCH   1   8
ATOM      8  C   UNL     1     -12.397  15.345  70.554  0.00  0.00    -0.011 A 
ATOM      9  C   UNL     1     -11.665  16.130  71.365  0.00  0.00    -0.004 A 
ATOM     10  C   UNL     1     -12.027  16.131  72.710  0.00  0.00    -0.000 A 
ATOM     11  C   UNL     1     -13.092  15.335  73.120  0.00  0.00    -0.000 A 
ATOM     12  C   UNL     1     -14.063  15.076  72.158  0.00  0.00    -0.000 A 
ATOM     13  C   UNL     1     -13.726  15.159  70.812  0.00  0.00    -0.004 A 
ENDBRANCH   1   8
BRANCH   1  14
ATOM     14  C   UNL     1     -10.916  16.394  69.111  0.00  0.00    +0.322 C 
ATOM     15  O   UNL     1     -11.211  17.380  68.409  0.00  0.00    -0.250 OA
BRANCH  14  17
ATOM     16  C   UNL     1      -8.557  16.762  68.726  0.00  0.00    +0.256 C 
ATOM     17  O   UNL     1      -9.593  16.005  69.244  0.00  0.00    -0.444 OA
ENDBRANCH  14  17
ENDBRANCH   1  14
TORSDOF 4
ENDMDL
MODEL 4
REMARK VINA RESULT:      -5.2      2.457      5.841
REMARK  Name = 
REMARK  4 active torsions:
REMARK  status: ('A' for Active; 'I' for Inactive)
REMARK    1  A    between atoms: O_2  and  C_3
REMARK    2  A    between atoms: C_3  and  C_5
REMARK    3  A    between atoms: C_5  and  C_6
REMARK    4  A    between atoms: C_5  and  C_12
REMARK                            x       y       z     vdW  Elec       q    Type
REMARK                         _______ _______ _______ _____ _____    ______ ____
ROOT
ATOM      1  C   UNL     1     -11.113  16.324  67.375  0.00  0.00    +0.137 C 
ENDROOT
BRANCH   1   2
ATOM      2  C   UNL     1     -10.551  15.184  68.554  0.00  0.00    +0.087 C 
ATOM      3  N   UNL     1     -11.860  14.320  68.373  0.00  0.00    -0.219 NA
ATOM      4  C   UNL     1     -11.682  13.402  69.499  0.00  0.00    +0.089 C 
ATOM      5  C   UNL     1     -12.354  14.113  70.671  0.00  0.00    +0.019 C 
ATOM      6  C   UNL     1     -12.385  15.593  70.307  0.00  0.00    +0.003 C 
ATOM      7  C   UNL     1     -11.115  16.072  69.810  0.00  0.00    +0.018 C 
ENDBRANCH   1   2
BRANCH   1   8
ATOM      8  C   UNL     1     -10.023  17.442  67.751  0.00  0.00    -0.011 A 
ATOM      9  C   UNL     1      -8.714  17.148  67.653  0.00  0.00    -0.004 A 
ATOM     10  C   UNL     1      -7.829  18.109  68.134  0.00  0.00    -0.000 A 
ATOM     11  C   UNL     1      -8.342  19.281  68.680  0.00  0.00    -0.000 A 
ATOM     12  C   UNL     1      -9.582  19.686  68.196  0.00  0.00    -0.000 A 
ATOM     13  C   UNL     1     -10.433  18.741  67.635  0.00  0.00    -0.004 A 
ENDBRANCH   1   8
BRANCH   1  14
ATOM     14  C   UNL     1     -10.163  15.697  66.232  0.00  0.00    +0.322 C 
ATOM     15  O   UNL     1     -10.042  16.391  65.204  0.00  0.00    -0.250 OA
BRANCH  14  17
ATOM     16  C   UNL     1     -10.496  13.688  64.928  0.00  0.00    +0.256 C 
ATOM     17  O   UNL     1     -10.250  14.319  66.135  0.00  0.00    -0.444 OA
ENDBRANCH  14  17
ENDBRANCH   1  14
TORSDOF 4
ENDMDL
MODEL 5
REMARK VINA RESULT:      -5.2      2.103      5.033
REMARK  Name = 
REMARK  4 active torsions:
REMARK  status: ('A' for Active; 'I' for Inactive)
REMARK    1  A    between atoms: O_2  and  C_3
REMARK    2  A    between atoms: C_3  and  C_5
REMARK    3  A    between atoms: C_5  and  C_6
REMARK    4  A    between atoms: C_5  and  C_12
REMARK                            x       y       z     vdW  Elec       q    Type
REMARK                         _______ _______ _______ _____ _____    ______ ____
ROOT
ATOM      1  C   UNL     1     -11.919  13.945  66.722  0.00  0.00    +0.137 C 
ENDROOT
BRANCH   1   2
ATOM      2  C   UNL     1     -10.792  12.645  66.934  0.00  0.00    +0.087 C 
ATOM      3  N   UNL     1     -11.977  11.620  67.128  0.00  0.00    -0.219 NA
ATOM      4  C   UNL     1     -11.203  10.461  67.575  0.00  0.00    +0.089 C 
ATOM      5  C   UNL     1     -11.136  10.619  69.092  0.00  0.00    +0.019 C 
ATOM      6  C   UNL     1     -11.377  12.097  69.376  0.00  0.00    +0.003 C 
ATOM      7  C   UNL     1     -10.589  12.963  68.529  0.00  0.00    +0.018 C 
ENDBRANCH   1   2
BRANCH   1   8
ATOM      8  C   UNL     1     -10.808  15.098  66.854  0.00  0.00    -0.011 A 
ATOM      9  C   UNL     1      -9.931  15.287  65.851  0.00  0.00    -0.004 A 
ATOM     10  C   UNL     1      -8.908  16.200  66.093  0.00  0.00    -0.000 A 
ATOM     11  C   UNL     1      -8.853  16.837  67.328  0.00  0.00    -0.000 A 
ATOM     12  C   UNL     1     -10.070  16.995  67.985  0.00  0.00    -0.000 A 
ATOM     13  C   UNL     1     -11.122  16.139  67.682  0.00  0.00    -0.004 A 
ENDBRANCH   1   8
BRANCH   1  14
ATOM     14  C   UNL     1     -11.763  13.894  65.118  0.00  0.00    +0.322 C 
ATOM     15  O   UNL     1     -12.532  14.644  64.486  0.00  0.00    -0.250 OA
BRANCH  14  17
ATOM     16  C   UNL     1     -12.119  12.105  63.531  0.00  0.00    +0.256 C 
ATOM     17  O   UNL     1     -11.466  12.633  64.630  0.00  0.00    -0.444 OA
ENDBRANCH  14  17
ENDBRANCH   1  14
TORSDOF 4
ENDMDL
MODEL 6
REMARK VINA RESULT:      -5.2      1.984      5.150
REMARK  Name = 
REMARK  4 active torsions:
REMARK  status: ('A' for Active; 'I' for Inactive)
REMARK    1  A    between atoms: O_2  and  C_3
REMARK    2  A    between atoms: C_3  and  C_5
REMARK    3  A    between atoms: C_5  and  C_6
REMARK    4  A    between atoms: C_5  and  C_12
REMARK                            x       y       z     vdW  Elec       q    Type
REMARK                         _______ _______ _______ _____ _____    ______ ____
ROOT
ATOM      1  C   UNL     1     -10.205  15.423  67.538  0.00  0.00    +0.137 C 
ENDROOT
BRANCH   1   2
ATOM      2  C   UNL     1     -11.382  15.335  66.268  0.00  0.00    +0.087 C 
ATOM      3  N   UNL     1     -11.779  13.872  66.707  0.00  0.00    -0.219 NA
ATOM      4  C   UNL     1     -12.624  13.515  65.566  0.00  0.00    +0.089 C 
ATOM      5  C   UNL     1     -11.652  12.912  64.556  0.00  0.00    +0.019 C 
ATOM      6  C   UNL     1     -10.273  13.449  64.921  0.00  0.00    +0.003 C 
ATOM      7  C   UNL     1     -10.273  14.875  65.152  0.00  0.00    +0.018 C 
ENDBRANCH   1   2
BRANCH   1   8
ATOM      8  C   UNL     1     -10.135  17.028  67.535  0.00  0.00    -0.011 A 
ATOM      9  C   UNL     1      -9.529  17.664  68.553  0.00  0.00    -0.004 A 
ATOM     10  C   UNL     1      -9.634  19.053  68.561  0.00  0.00    -0.000 A 
ATOM     11  C   UNL     1     -10.348  19.678  67.544  0.00  0.00    -0.000 A 
ATOM     12  C   UNL     1     -10.393  19.003  66.328  0.00  0.00    -0.000 A 
ATOM     13  C   UNL     1     -10.202  17.626  66.308  0.00  0.00    -0.004 A 
ENDBRANCH   1   8
BRANCH   1  14
ATOM     14  C   UNL     1     -11.349  15.415  68.675  0.00  0.00    +0.322 C 
ATOM     15  O   UNL     1     -12.034  16.454  68.745  0.00  0.00    -0.250 OA
BRANCH  14  17
ATOM     16  C   UNL     1     -11.372  15.186  71.082  0.00  0.00    +0.256 C 
ATOM     17  O   UNL     1     -10.977  14.749  69.831  0.00  0.00    -0.444 OA
ENDBRANCH  14  17
ENDBRANCH   1  14
TORSDOF 4
ENDMDL
MODEL 7
REMARK VINA RESULT:      -5.2      2.347      5.543
REMARK  Name = 
REMARK  4 active torsions:
REMARK  status: ('A' for Active; 'I' for Inactive)
REMARK    1  A    between atoms: O_2  and  C_3
REMARK    2  A    between atoms: C_3  and  C_5
REMARK    3  A    between atoms: C_5  and  C_6
REMARK    4  A    between atoms: C_5  and  C_12
REMARK                            x       y       z     vdW  Elec       q    Type
REMARK                         _______ _______ _______ _____ _____    ______ ____
ROOT
ATOM      1  C   UNL     1     -11.009  14.329  70.005  0.00  0.00    +0.137 C 
ENDROOT
BRANCH   1   2
ATOM      2  C   UNL     1     -11.645  15.321  68.733  0.00  0.00    +0.087 C 
ATOM      3  N   UNL     1     -10.423  14.952  67.804  0.00  0.00    -0.219 NA
ATOM      4  C   UNL     1     -10.658  15.915  66.728  0.00  0.00    +0.089 C 
ATOM      5  C   UNL     1      -9.901  17.164  67.171  0.00  0.00    +0.019 C 
ATOM      6  C   UNL     1      -9.746  17.052  68.683  0.00  0.00    +0.003 C 
ATOM      7  C   UNL     1     -10.978  16.687  69.344  0.00  0.00    +0.018 C 
ENDBRANCH   1   2
BRANCH   1   8
ATOM      8  C   UNL     1     -12.086  14.814  71.093  0.00  0.00    -0.011 A 
ATOM      9  C   UNL     1     -13.376  14.460  70.949  0.00  0.00    -0.004 A 
ATOM     10  C   UNL     1     -14.275  15.035  71.843  0.00  0.00    -0.000 A 
ATOM     11  C   UNL     1     -13.796  15.923  72.801  0.00  0.00    -0.000 A 
ATOM     12  C   UNL     1     -12.475  15.736  73.196  0.00  0.00    -0.000 A 
ATOM     13  C   UNL     1     -11.595  15.084  72.340  0.00  0.00    -0.004 A 
ENDBRANCH   1   8
BRANCH   1  14
ATOM     14  C   UNL     1     -11.927  13.078  69.565  0.00  0.00    +0.322 C 
ATOM     15  O   UNL     1     -12.056  12.187  70.427  0.00  0.00    -0.250 OA
BRANCH  14  17
ATOM     16  C   UNL     1     -11.478  11.454  67.831  0.00  0.00    +0.256 C 
ATOM     17  O   UNL     1     -11.799  12.740  68.229  0.00  0.00    -0.444 OA
ENDBRANCH  14  17
ENDBRANCH   1  14
TORSDOF 4
ENDMDL
MODEL 8
REMARK VINA RESULT:      -5.0      1.792      2.481
REMARK  Name = 
REMARK  4 active torsions:
REMARK  status: ('A' for Active; 'I' for Inactive)
REMARK    1  A    between atoms: O_2  and  C_3
REMARK    2  A    between atoms: C_3  and  C_5
REMARK    3  A    between atoms: C_5  and  C_6
REMARK    4  A    between atoms: C_5  and  C_12
REMARK                            x       y       z     vdW  Elec       q    Type
REMARK                         _______ _______ _______ _____ _____    ______ ____
ROOT
ATOM      1  C   UNL     1     -11.621  15.684  68.049  0.00  0.00    +0.137 C 
ENDROOT
BRANCH   1   2
ATOM      2  C   UNL     1     -10.001  16.303  68.052  0.00  0.00    +0.087 C 
ATOM      3  N   UNL     1     -10.509  17.692  68.605  0.00  0.00    -0.219 NA
ATOM      4  C   UNL     1      -9.276  18.464  68.444  0.00  0.00    +0.089 C 
ATOM      5  C   UNL     1      -9.371  19.030  67.030  0.00  0.00    +0.019 C 
ATOM      6  C   UNL     1     -10.343  18.129  66.277  0.00  0.00    +0.003 C 
ATOM      7  C   UNL     1     -10.065  16.724  66.470  0.00  0.00    +0.018 C 
ENDBRANCH   1   2
BRANCH   1   8
ATOM      8  C   UNL     1     -11.257  14.382  67.182  0.00  0.00    -0.011 A 
ATOM      9  C   UNL     1     -10.330  13.521  67.641  0.00  0.00    -0.004 A 
ATOM     10  C   UNL     1      -9.959  12.498  66.773  0.00  0.00    -0.000 A 
ATOM     11  C   UNL     1     -10.550  12.435  65.515  0.00  0.00    -0.000 A 
ATOM     12  C   UNL     1     -11.829  12.976  65.416  0.00  0.00    -0.000 A 
ATOM     13  C   UNL     1     -12.233  13.936  66.335  0.00  0.00    -0.004 A 
ENDBRANCH   1   8
BRANCH   1  14
ATOM     14  C   UNL     1     -11.384  14.899  69.438  0.00  0.00    +0.322 C 
ATOM     15  O   UNL     1     -12.169  13.956  69.655  0.00  0.00    -0.250 OA
BRANCH  14  17
ATOM     16  C   UNL     1     -11.817  16.016  71.539  0.00  0.00    +0.256 C 
ATOM     17  O   UNL     1     -10.980  15.721  70.477  0.00  0.00    -0.444 OA
ENDBRANCH  14  17
ENDBRANCH   1  14
TORSDOF 4
ENDMDL
MODEL 9
REMARK VINA RESULT:      -5.0      2.233      5.104
REMARK  Name = 
REMARK  4 active torsions:
REMARK  status: ('A' for Active; 'I' for Inactive)
REMARK    1  A    between atoms: O_2  and  C_3
REMARK    2  A    between atoms: C_3  and  C_5
REMARK    3  A    between atoms: C_5  and  C_6
REMARK    4  A    between atoms: C_5  and  C_12
REMARK                            x       y       z     vdW  Elec       q    Type
REMARK                         _______ _______ _______ _____ _____    ______ ____
ROOT
ATOM      1  C   UNL     1     -11.011  15.087  66.130  0.00  0.00    +0.137 C 
ENDROOT
BRANCH   1   2
ATOM      2  C   UNL     1     -10.899  13.361  66.018  0.00  0.00    +0.087 C 
ATOM      3  N   UNL     1     -10.196  13.476  64.609  0.00  0.00    -0.219 NA
ATOM      4  C   UNL     1     -10.237  12.066  64.220  0.00  0.00    +0.089 C 
ATOM      5  C   UNL     1     -11.575  11.913  63.503  0.00  0.00    +0.019 C 
ATOM      6  C   UNL     1     -12.452  13.060  63.993  0.00  0.00    +0.003 C 
ATOM      7  C   UNL     1     -12.421  13.211  65.430  0.00  0.00    +0.018 C 
ENDBRANCH   1   2
BRANCH   1   8
ATOM      8  C   UNL     1     -11.220  15.097  67.723  0.00  0.00    -0.011 A 
ATOM      9  C   UNL     1     -11.163  16.265  68.388  0.00  0.00    -0.004 A 
ATOM     10  C   UNL     1     -11.204  16.183  69.778  0.00  0.00    -0.000 A 
ATOM     11  C   UNL     1     -11.292  14.930  70.375  0.00  0.00    -0.000 A 
ATOM     12  C   UNL     1     -11.912  13.939  69.620  0.00  0.00    -0.000 A 
ATOM     13  C   UNL     1     -11.948  14.061  68.237  0.00  0.00    -0.004 A 
ENDBRANCH   1   8
BRANCH   1  14
ATOM     14  C   UNL     1      -9.413  15.239  66.278  0.00  0.00    +0.322 C 
ATOM     15  O   UNL     1      -8.936  14.812  67.348  0.00  0.00    -0.250 OA
BRANCH  14  17
ATOM     16  C   UNL     1      -7.930  17.149  66.328  0.00  0.00    +0.256 C 
ATOM     17  O   UNL     1      -8.911  16.396  65.707  0.00  0.00    -0.444 OA
ENDBRANCH  14  17
ENDBRANCH   1  14
TORSDOF 4
ENDMDL
