MODEL 1
REMARK VINA RESULT:      -6.0      0.000      0.000
REMARK  Name = 
REMARK  6 active torsions:
REMARK  status: ('A' for Active; 'I' for Inactive)
REMARK    1  A    between atoms: O_2  and  C_3
REMARK    2  A    between atoms: C_3  and  C_5
REMARK    3  A    between atoms: C_11  and  C_12
REMARK    4  A    between atoms: C_12  and  O_14
REMARK    5  A    between atoms: C_16  and  C_17
REMARK    6  A    between atoms: C_22  and  N_23
REMARK                            x       y       z     vdW  Elec       q    Type
REMARK                         _______ _______ _______ _____ _____    ______ ____
ROOT
ATOM      1  C   UNL     1     -11.233  13.111  68.447  0.00  0.00    +0.073 C 
ATOM      2  C   UNL     1     -11.008  13.883  67.218  0.00  0.00    +0.087 C 
ATOM      3  C   UNL     1     -10.211  15.096  67.451  0.00  0.00    +0.073 C 
ATOM      4  C   UNL     1      -9.970  15.492  68.702  0.00  0.00    +0.051 C 
ATOM      5  C   UNL     1      -8.767  16.336  68.941  0.00  0.00    +0.049 C 
ATOM      6  N   UNL     1     -10.787  15.037  69.786  0.00  0.00    -0.221 NA
ATOM      7  C   UNL     1     -11.470  13.798  69.562  0.00  0.00    +0.051 C 
ATOM      8  C   UNL     1     -12.328  13.202  70.635  0.00  0.00    +0.049 C 
ENDROOT
BRANCH   2   9
ATOM      9  C   UNL     1     -10.558  13.076  66.073  0.00  0.00    +0.055 A 
ATOM     10  C   UNL     1     -11.542  12.672  65.176  0.00  0.00    +0.287 A 
ATOM     11  C   UNL     1     -11.389  11.503  64.442  0.00  0.00    +0.075 A 
ATOM     12  C   UNL     1     -10.348  10.632  64.751  0.00  0.00    +0.006 A 
ATOM     13  C   UNL     1      -9.233  11.233  65.321  0.00  0.00    +0.000 A 
ATOM     14  C   UNL     1      -9.329  12.431  66.018  0.00  0.00    +0.002 A 
BRANCH  10  15
ATOM     15  N   UNL     1     -12.451  13.682  64.721  0.00  0.00    +0.081 N 
ATOM     16  O   UNL     1     -13.518  14.104  65.463  0.00  0.00    -0.576 OA
ATOM     17  O   UNL     1     -12.388  13.951  63.495  0.00  0.00    +0.041 OA
ENDBRANCH  10  15
ENDBRANCH   2   9
BRANCH   1  18
ATOM     18  C   UNL     1     -11.259  11.644  68.500  0.00  0.00    +0.339 C 
ATOM     19  O   UNL     1     -12.411  11.126  68.388  0.00  0.00    -0.245 OA
BRANCH  18  21
ATOM     20  C   UNL     1     -10.841   9.882  70.180  0.00  0.00    +0.256 C 
ATOM     21  O   UNL     1     -10.410  10.997  69.404  0.00  0.00    -0.442 OA
ENDBRANCH  18  21
ENDBRANCH   1  18
BRANCH   3  22
ATOM     22  C   UNL     1      -9.950  16.019  66.360  0.00  0.00    +0.339 C 
ATOM     23  O   UNL     1      -9.002  15.824  65.542  0.00  0.00    -0.245 OA
BRANCH  22  24
ATOM     24  O   UNL     1     -10.795  17.082  66.040  0.00  0.00    -0.442 OA
ATOM     25  C   UNL     1     -10.374  18.434  66.215  0.00  0.00    +0.256 C 
ENDBRANCH  22  24
ENDBRANCH   3  22
TORSDOF 6
ENDMDL
MODEL 2
REMARK VINA RESULT:      -5.7      3.666      7.485
REMARK  Name = 
REMARK  6 active torsions:
REMARK  status: ('A' for Active; 'I' for Inactive)
REMARK    1  A    between atoms: O_2  and  C_3
REMARK    2  A    between atoms: C_3  and  C_5
REMARK    3  A    between atoms: C_11  and  C_12
REMARK    4  A    between atoms: C_12  and  O_14
REMARK    5  A    between atoms: C_16  and  C_17
REMARK    6  A    between atoms: C_22  and  N_23
REMARK                            x       y       z     vdW  Elec       q    Type
REMARK                         _______ _______ _______ _____ _____    ______ ____
ROOT
ATOM      1  C   UNL     1     -11.288  10.573  69.887  0.00  0.00    +0.073 C 
ATOM      2  C   UNL     1     -10.792   9.358  70.546  0.00  0.00    +0.087 C 
ATOM      3  C   UNL     1     -11.810   8.716  71.390  0.00  0.00    +0.073 C 
ATOM      4  C   UNL     1     -12.945   9.364  71.655  0.00  0.00    +0.051 C 
ATOM      5  C   UNL     1     -14.140   8.550  72.009  0.00  0.00    +0.049 C 
ATOM      6  N   UNL     1     -13.030  10.786  71.507  0.00  0.00    -0.221 NA
ATOM      7  C   UNL     1     -12.088  11.366  70.598  0.00  0.00    +0.051 C 
ATOM      8  C   UNL     1     -12.101  12.840  70.333  0.00  0.00    +0.049 C 
ENDROOT
BRANCH   2   9
ATOM      9  C   UNL     1     -10.082   8.434  69.648  0.00  0.00    +0.055 A 
ATOM     10  C   UNL     1      -8.694   8.522  69.640  0.00  0.00    +0.287 A 
ATOM     11  C   UNL     1      -7.972   8.174  68.506  0.00  0.00    +0.075 A 
ATOM     12  C   UNL     1      -8.646   7.931  67.313  0.00  0.00    +0.006 A 
ATOM     13  C   UNL     1      -9.949   7.474  67.461  0.00  0.00    +0.000 A 
ATOM     14  C   UNL     1     -10.692   7.752  68.602  0.00  0.00    +0.002 A 
BRANCH  10  15
ATOM     15  N   UNL     1      -8.044   8.541  70.917  0.00  0.00    +0.081 N 
ATOM     16  O   UNL     1      -7.261   9.581  71.333  0.00  0.00    -0.576 OA
ATOM     17  O   UNL     1      -7.995   7.435  71.513  0.00  0.00    +0.041 OA
ENDBRANCH  10  15
ENDBRANCH   2   9
BRANCH   1  18
ATOM     18  C   UNL     1     -10.917  10.979  68.526  0.00  0.00    +0.339 C 
ATOM     19  O   UNL     1      -9.870  11.690  68.448  0.00  0.00    -0.245 OA
BRANCH  18  21
ATOM     20  C   UNL     1     -11.724  12.265  66.578  0.00  0.00    +0.256 C 
ATOM     21  O   UNL     1     -11.936  11.336  67.638  0.00  0.00    -0.442 OA
ENDBRANCH  18  21
ENDBRANCH   1  18
BRANCH   3  22
ATOM     22  C   UNL     1     -11.473   7.541  72.173  0.00  0.00    +0.339 C 
ATOM     23  O   UNL     1     -11.678   6.370  71.732  0.00  0.00    -0.245 OA
BRANCH  22  24
ATOM     24  O   UNL     1     -10.772   7.601  73.379  0.00  0.00    -0.442 OA
ATOM     25  C   UNL     1     -10.301   6.414  74.014  0.00  0.00    +0.256 C 
ENDBRANCH  22  24
ENDBRANCH   3  22
TORSDOF 6
ENDMDL
MODEL 3
REMARK VINA RESULT:      -5.5      1.759      5.805
REMARK  Name = 
REMARK  6 active torsions:
REMARK  status: ('A' for Active; 'I' for Inactive)
REMARK    1  A    between atoms: O_2  and  C_3
REMARK    2  A    between atoms: C_3  and  C_5
REMARK    3  A    between atoms: C_11  and  C_12
REMARK    4  A    between atoms: C_12  and  O_14
REMARK    5  A    between atoms: C_16  and  C_17
REMARK    6  A    between atoms: C_22  and  N_23
REMARK                            x       y       z     vdW  Elec       q    Type
REMARK                         _______ _______ _______ _____ _____    ______ ____
ROOT
ATOM      1  C   UNL     1     -11.318  12.594  65.637  0.00  0.00    +0.073 C 
ATOM      2  C   UNL     1     -10.819  12.085  66.921  0.00  0.00    +0.087 C 
ATOM      3  C   UNL     1      -9.626  11.240  66.768  0.00  0.00    +0.073 C 
ATOM      4  C   UNL     1      -9.256  10.842  65.550  0.00  0.00    +0.051 C 
ATOM      5  C   UNL     1      -7.825  10.488  65.343  0.00  0.00    +0.049 C 
ATOM      6  N   UNL     1     -10.185  10.853  64.460  0.00  0.00    -0.221 NA
ATOM      7  C   UNL     1     -11.282  11.764  64.597  0.00  0.00    +0.051 C 
ATOM      8  C   UNL     1     -12.301  11.890  63.508  0.00  0.00    +0.049 C 
ENDROOT
BRANCH   2   9
ATOM      9  C   UNL     1     -10.704  13.109  67.971  0.00  0.00    +0.055 A 
ATOM     10  C   UNL     1     -11.710  13.127  68.930  0.00  0.00    +0.287 A 
ATOM     11  C   UNL     1     -12.044  14.310  69.579  0.00  0.00    +0.075 A 
ATOM     12  C   UNL     1     -11.512  15.513  69.126  0.00  0.00    +0.006 A 
ATOM     13  C   UNL     1     -10.281  15.405  68.490  0.00  0.00    +0.000 A 
ATOM     14  C   UNL     1      -9.882  14.225  67.874  0.00  0.00    +0.002 A 
BRANCH  10  15
ATOM     15  N   UNL     1     -12.055  11.870  69.525  0.00  0.00    +0.081 N 
ATOM     16  O   UNL     1     -12.561  10.825  68.804  0.00  0.00    -0.576 OA
ATOM     17  O   UNL     1     -12.140  11.872  70.779  0.00  0.00    +0.041 OA
ENDBRANCH  10  15
ENDBRANCH   2   9
BRANCH   1  18
ATOM     18  C   UNL     1     -11.891  13.933  65.452  0.00  0.00    +0.339 C 
ATOM     19  O   UNL     1     -13.159  13.976  65.450  0.00  0.00    -0.245 OA
BRANCH  18  21
ATOM     20  C   UNL     1     -10.943  16.145  64.891  0.00  0.00    +0.256 C 
ATOM     21  O   UNL     1     -11.274  14.802  64.546  0.00  0.00    -0.442 OA
ENDBRANCH  18  21
ENDBRANCH   1  18
BRANCH   3  22
ATOM     22  C   UNL     1      -9.039  10.592  67.927  0.00  0.00    +0.339 C 
ATOM     23  O   UNL     1      -8.113  11.143  68.595  0.00  0.00    -0.245 OA
BRANCH  22  24
ATOM     24  O   UNL     1      -9.538   9.410  68.477  0.00  0.00    -0.442 OA
ATOM     25  C   UNL     1      -9.585   9.221  69.890  0.00  0.00    +0.256 C 
ENDBRANCH  22  24
ENDBRANCH   3  22
TORSDOF 6
ENDMDL
MODEL 4
REMARK VINA RESULT:      -5.5      3.231      4.924
REMARK  Name = 
REMARK  6 active torsions:
REMARK  status: ('A' for Active; 'I' for Inactive)
REMARK    1  A    between atoms: O_2  and  C_3
REMARK    2  A    between atoms: C_3  and  C_5
REMARK    3  A    between atoms: C_11  and  C_12
REMARK    4  A    between atoms: C_12  and  O_14
REMARK    5  A    between atoms: C_16  and  C_17
REMARK    6  A    between atoms: C_22  and  N_23
REMARK                            x       y       z     vdW  Elec       q    Type
REMARK                         _______ _______ _______ _____ _____    ______ ____
ROOT
ATOM      1  C   UNL     1     -10.970   9.445  70.565  0.00  0.00    +0.073 C 
ATOM      2  C   UNL     1     -10.792  10.048  69.238  0.00  0.00    +0.087 C 
ATOM      3  C   UNL     1     -11.302  11.425  69.171  0.00  0.00    +0.073 C 
ATOM      4  C   UNL     1     -12.038  11.902  70.175  0.00  0.00    +0.051 C 
ATOM      5  C   UNL     1     -12.074  13.377  70.367  0.00  0.00    +0.049 C 
ATOM      6  N   UNL     1     -12.689  11.016  71.092  0.00  0.00    -0.221 NA
ATOM      7  C   UNL     1     -12.104   9.713  71.209  0.00  0.00    +0.051 C 
ATOM      8  C   UNL     1     -12.675   8.710  72.162  0.00  0.00    +0.049 C 
ENDROOT
BRANCH   2   9
ATOM      9  C   UNL     1      -9.445   9.873  68.673  0.00  0.00    +0.055 A 
ATOM     10  C   UNL     1      -9.246   8.745  67.885  0.00  0.00    +0.287 A 
ATOM     11  C   UNL     1      -7.986   8.168  67.787  0.00  0.00    +0.075 A 
ATOM     12  C   UNL     1      -6.969   8.596  68.634  0.00  0.00    +0.006 A 
ATOM     13  C   UNL     1      -7.087   9.909  69.072  0.00  0.00    +0.000 A 
ATOM     14  C   UNL     1      -8.321  10.546  69.136  0.00  0.00    +0.002 A 
BRANCH  10  15
ATOM     15  N   UNL     1     -10.226   8.487  66.872  0.00  0.00    +0.081 N 
ATOM     16  O   UNL     1     -10.963   7.337  66.833  0.00  0.00    -0.576 OA
ATOM     17  O   UNL     1     -10.169   9.236  65.864  0.00  0.00    +0.041 OA
ENDBRANCH  10  15
ENDBRANCH   2   9
BRANCH   1  18
ATOM     18  C   UNL     1     -10.001   8.536  71.190  0.00  0.00    +0.339 C 
ATOM     19  O   UNL     1     -10.229   7.302  71.004  0.00  0.00    -0.245 OA
BRANCH  18  21
ATOM     20  C   UNL     1      -9.133   7.854  73.400  0.00  0.00    +0.256 C 
ATOM     21  O   UNL     1      -9.512   8.856  72.461  0.00  0.00    -0.442 OA
ENDBRANCH  18  21
ENDBRANCH   1  18
BRANCH   3  22
ATOM     22  C   UNL     1     -11.273  12.152  67.914  0.00  0.00    +0.339 C 
ATOM     23  O   UNL     1     -10.409  13.052  67.690  0.00  0.00    -0.245 OA
BRANCH  22  24
ATOM     24  O   UNL     1     -12.076  11.822  66.821  0.00  0.00    -0.442 OA
ATOM     25  C   UNL     1     -12.007  12.568  65.607  0.00  0.00    +0.256 C 
ENDBRANCH  22  24
ENDBRANCH   3  22
TORSDOF 6
ENDMDL
MODEL 5
REMARK VINA RESULT:      -5.4      3.828      7.156
REMARK  Name = 
REMARK  6 active torsions:
REMARK  status: ('A' for Active; 'I' for Inactive)
REMARK    1  A    between atoms: O_2  and  C_3
REMARK    2  A    between atoms: C_3  and  C_5
REMARK    3  A    between atoms: C_11  and  C_12
REMARK    4  A    between atoms: C_12  and  O_14
REMARK    5  A    between atoms: C_16  and  C_17
REMARK    6  A    between atoms: C_22  and  N_23
REMARK                            x       y       z     vdW  Elec       q    Type
REMARK                         _______ _______ _______ _____ _____    ______ ____
ROOT
ATOM      1  C   UNL     1      -6.685  18.152  66.232  0.00  0.00    +0.073 C 
ATOM      2  C   UNL     1      -7.690  17.235  66.785  0.00  0.00    +0.087 C 
ATOM      3  C   UNL     1      -7.094  16.180  67.618  0.00  0.00    +0.073 C 
ATOM      4  C   UNL     1      -5.772  16.012  67.617  0.00  0.00    +0.051 C 
ATOM      5  C   UNL     1      -5.155  15.370  68.810  0.00  0.00    +0.049 C 
ATOM      6  N   UNL     1      -4.968  16.523  66.548  0.00  0.00    -0.221 NA
ATOM      7  C   UNL     1      -5.536  17.619  65.822  0.00  0.00    +0.051 C 
ATOM      8  C   UNL     1      -4.775  18.261  64.703  0.00  0.00    +0.049 C 
ENDROOT
BRANCH   2   9
ATOM      9  C   UNL     1      -8.846  17.907  67.398  0.00  0.00    +0.055 A 
ATOM     10  C   UNL     1      -9.937  18.142  66.568  0.00  0.00    +0.287 A 
ATOM     11  C   UNL     1     -10.790  19.212  66.810  0.00  0.00    +0.075 A 
ATOM     12  C   UNL     1     -10.438  20.165  67.759  0.00  0.00    +0.006 A 
ATOM     13  C   UNL     1      -9.618  19.700  68.780  0.00  0.00    +0.000 A 
ATOM     14  C   UNL     1      -8.788  18.600  68.601  0.00  0.00    +0.002 A 
BRANCH  10  15
ATOM     15  N   UNL     1     -10.391  17.037  65.776  0.00  0.00    +0.081 N 
ATOM     16  O   UNL     1     -11.017  17.199  64.572  0.00  0.00    -0.576 OA
ATOM     17  O   UNL     1     -10.446  15.932  66.373  0.00  0.00    +0.041 OA
ENDBRANCH  10  15
ENDBRANCH   2   9
BRANCH   1  18
ATOM     18  C   UNL     1      -6.895  19.595  66.065  0.00  0.00    +0.339 C 
ATOM     19  O   UNL     1      -7.337  19.942  64.928  0.00  0.00    -0.245 OA
BRANCH  18  21
ATOM     20  C   UNL     1      -6.008  20.860  67.993  0.00  0.00    +0.256 C 
ATOM     21  O   UNL     1      -5.959  20.472  66.623  0.00  0.00    -0.442 OA
ENDBRANCH  18  21
ENDBRANCH   1  18
BRANCH   3  22
ATOM     22  C   UNL     1      -7.934  15.141  68.189  0.00  0.00    +0.339 C 
ATOM     23  O   UNL     1      -8.103  14.030  67.602  0.00  0.00    -0.245 OA
BRANCH  22  24
ATOM     24  O   UNL     1      -8.484  15.221  69.469  0.00  0.00    -0.442 OA
ATOM     25  C   UNL     1      -9.897  15.250  69.661  0.00  0.00    +0.256 C 
ENDBRANCH  22  24
ENDBRANCH   3  22
TORSDOF 6
ENDMDL
MODEL 6
REMARK VINA RESULT:      -5.3      3.054      4.955
REMARK  Name = 
REMARK  6 active torsions:
REMARK  status: ('A' for Active; 'I' for Inactive)
REMARK    1  A    between atoms: O_2  and  C_3
REMARK    2  A    between atoms: C_3  and  C_5
REMARK    3  A    between atoms: C_11  and  C_12
REMARK    4  A    between atoms: C_12  and  O_14
REMARK    5  A    between atoms: C_16  and  C_17
REMARK    6  A    between atoms: C_22  and  N_23
REMARK                            x       y       z     vdW  Elec       q    Type
REMARK                         _______ _______ _______ _____ _____    ______ ____
ROOT
ATOM      1  C   UNL     1      -7.198  16.174  68.886  0.00  0.00    +0.073 C 
ATOM      2  C   UNL     1      -8.560  16.684  68.678  0.00  0.00    +0.087 C 
ATOM      3  C   UNL     1      -8.577  18.090  68.251  0.00  0.00    +0.073 C 
ATOM      4  C   UNL     1      -7.454  18.807  68.307  0.00  0.00    +0.051 C 
ATOM      5  C   UNL     1      -7.337  19.982  67.401  0.00  0.00    +0.049 C 
ATOM      6  N   UNL     1      -6.363  18.397  69.138  0.00  0.00    -0.221 NA
ATOM      7  C   UNL     1      -6.319  17.000  69.451  0.00  0.00    +0.051 C 
ATOM      8  C   UNL     1      -5.207  16.445  70.285  0.00  0.00    +0.049 C 
ENDROOT
BRANCH   2   9
ATOM      9  C   UNL     1      -9.418  15.798  67.876  0.00  0.00    +0.055 A 
ATOM     10  C   UNL     1     -10.304  14.990  68.580  0.00  0.00    +0.287 A 
ATOM     11  C   UNL     1     -10.716  13.772  68.056  0.00  0.00    +0.075 A 
ATOM     12  C   UNL     1     -10.087  13.267  66.923  0.00  0.00    +0.006 A 
ATOM     13  C   UNL     1      -9.546  14.227  66.077  0.00  0.00    +0.000 A 
ATOM     14  C   UNL     1      -9.170  15.480  66.546  0.00  0.00    +0.002 A 
BRANCH  10  15
ATOM     15  N   UNL     1     -11.091  15.630  69.592  0.00  0.00    +0.081 N 
ATOM     16  O   UNL     1     -10.995  15.309  70.917  0.00  0.00    -0.576 OA
ATOM     17  O   UNL     1     -12.075  16.292  69.172  0.00  0.00    +0.041 OA
ENDBRANCH  10  15
ENDBRANCH   2   9
BRANCH   1  18
ATOM     18  C   UNL     1      -6.774  14.808  68.555  0.00  0.00    +0.339 C 
ATOM     19  O   UNL     1      -6.796  13.992  69.526  0.00  0.00    -0.245 OA
BRANCH  18  21
ATOM     20  C   UNL     1      -4.677  13.677  67.901  0.00  0.00    +0.256 C 
ATOM     21  O   UNL     1      -5.701  14.641  67.673  0.00  0.00    -0.442 OA
ENDBRANCH  18  21
ENDBRANCH   1  18
BRANCH   3  22
ATOM     22  C   UNL     1      -9.842  18.780  68.067  0.00  0.00    +0.339 C 
ATOM     23  O   UNL     1     -10.274  19.610  68.923  0.00  0.00    -0.245 OA
BRANCH  22  24
ATOM     24  O   UNL     1     -10.590  18.705  66.891  0.00  0.00    -0.442 OA
ATOM     25  C   UNL     1     -10.558  19.759  65.931  0.00  0.00    +0.256 C 
ENDBRANCH  22  24
ENDBRANCH   3  22
TORSDOF 6
ENDMDL
MODEL 7
REMARK VINA RESULT:      -5.2      2.648      5.912
REMARK  Name = 
REMARK  6 active torsions:
REMARK  status: ('A' for Active; 'I' for Inactive)
REMARK    1  A    between atoms: O_2  and  C_3
REMARK    2  A    between atoms: C_3  and  C_5
REMARK    3  A    between atoms: C_11  and  C_12
REMARK    4  A    between atoms: C_12  and  O_14
REMARK    5  A    between atoms: C_16  and  C_17
REMARK    6  A    between atoms: C_22  and  N_23
REMARK                            x       y       z     vdW  Elec       q    Type
REMARK                         _______ _______ _______ _____ _____    ______ ____
ROOT
ATOM      1  C   UNL     1     -11.012  12.478  68.660  0.00  0.00    +0.073 C 
ATOM      2  C   UNL     1     -10.321  11.233  69.021  0.00  0.00    +0.087 C 
ATOM      3  C   UNL     1     -11.099  10.405  69.955  0.00  0.00    +0.073 C 
ATOM      4  C   UNL     1     -12.184  10.917  70.537  0.00  0.00    +0.051 C 
ATOM      5  C   UNL     1     -13.230   9.968  71.007  0.00  0.00    +0.049 C 
ATOM      6  N   UNL     1     -12.376  12.334  70.615  0.00  0.00    -0.221 NA
ATOM      7  C   UNL     1     -11.683  13.103  69.625  0.00  0.00    +0.051 C 
ATOM      8  C   UNL     1     -11.832  14.592  69.583  0.00  0.00    +0.049 C 
ENDROOT
BRANCH   2   9
ATOM      9  C   UNL     1      -9.771  10.495  67.874  0.00  0.00    +0.055 A 
ATOM     10  C   UNL     1      -8.416  10.671  67.617  0.00  0.00    +0.287 A 
ATOM     11  C   UNL     1      -7.920  10.537  66.326  0.00  0.00    +0.075 A 
ATOM     12  C   UNL     1      -8.807  10.426  65.260  0.00  0.00    +0.006 A 
ATOM     13  C   UNL     1     -10.039   9.870  65.581  0.00  0.00    +0.000 A 
ATOM     14  C   UNL     1     -10.552   9.933  66.871  0.00  0.00    +0.002 A 
BRANCH  10  15
ATOM     15  N   UNL     1      -7.528  10.547  68.734  0.00  0.00    +0.081 N 
ATOM     16  O   UNL     1      -6.753  11.581  69.181  0.00  0.00    -0.576 OA
ATOM     17  O   UNL     1      -7.283   9.370  69.100  0.00  0.00    +0.041 OA
ENDBRANCH  10  15
ENDBRANCH   2   9
BRANCH   1  18
ATOM     18  C   UNL     1     -10.964  13.085  67.325  0.00  0.00    +0.339 C 
ATOM     19  O   UNL     1     -10.080  13.984  67.179  0.00  0.00    -0.245 OA
BRANCH  18  21
ATOM     20  C   UNL     1     -12.407  12.900  65.328  0.00  0.00    +0.256 C 
ATOM     21  O   UNL     1     -12.171  13.337  66.664  0.00  0.00    -0.442 OA
ENDBRANCH  18  21
ENDBRANCH   1  18
BRANCH   3  22
ATOM     22  C   UNL     1     -10.538   9.171  70.475  0.00  0.00    +0.339 C 
ATOM     23  O   UNL     1      -9.912   9.142  71.577  0.00  0.00    -0.245 OA
BRANCH  22  24
ATOM     24  O   UNL     1     -10.771   7.922  69.897  0.00  0.00    -0.442 OA
ATOM     25  C   UNL     1     -11.236   6.825  70.681  0.00  0.00    +0.256 C 
ENDBRANCH  22  24
ENDBRANCH   3  22
TORSDOF 6
ENDMDL
MODEL 8
REMARK VINA RESULT:      -5.2      4.943      7.467
REMARK  Name = 
REMARK  6 active torsions:
REMARK  status: ('A' for Active; 'I' for Inactive)
REMARK    1  A    between atoms: O_2  and  C_3
REMARK    2  A    between atoms: C_3  and  C_5
REMARK    3  A    between atoms: C_11  and  C_12
REMARK    4  A    between atoms: C_12  and  O_14
REMARK    5  A    between atoms: C_16  and  C_17
REMARK    6  A    between atoms: C_22  and  N_23
REMARK                            x       y       z     vdW  Elec       q    Type
REMARK                         _______ _______ _______ _____ _____    ______ ____
ROOT
ATOM      1  C   UNL     1      -6.185  16.962  69.081  0.00  0.00    +0.073 C 
ATOM      2  C   UNL     1      -6.726  17.594  67.871  0.00  0.00    +0.087 C 
ATOM      3  C   UNL     1      -8.193  17.516  67.800  0.00  0.00    +0.073 C 
ATOM      4  C   UNL     1      -8.850  16.735  68.657  0.00  0.00    +0.051 C 
ATOM      5  C   UNL     1     -10.272  17.068  68.947  0.00  0.00    +0.049 C 
ATOM      6  N   UNL     1      -8.179  15.674  69.346  0.00  0.00    -0.221 NA
ATOM      7  C   UNL     1      -6.762  15.832  69.487  0.00  0.00    +0.051 C 
ATOM      8  C   UNL     1      -5.955  14.806  70.218  0.00  0.00    +0.049 C 
ENDROOT
BRANCH   2   9
ATOM      9  C   UNL     1      -6.178  18.931  67.593  0.00  0.00    +0.055 A 
ATOM     10  C   UNL     1      -5.107  18.989  66.708  0.00  0.00    +0.287 A 
ATOM     11  C   UNL     1      -4.171  20.011  66.801  0.00  0.00    +0.075 A 
ATOM     12  C   UNL     1      -4.190  20.859  67.904  0.00  0.00    +0.006 A 
ATOM     13  C   UNL     1      -5.436  21.017  68.498  0.00  0.00    +0.000 A 
ATOM     14  C   UNL     1      -6.423  20.046  68.386  0.00  0.00    +0.002 A 
BRANCH  10  15
ATOM     15  N   UNL     1      -5.250  18.267  65.478  0.00  0.00    +0.081 N 
ATOM     16  O   UNL     1      -6.242  18.533  64.576  0.00  0.00    -0.576 OA
ATOM     17  O   UNL     1      -4.600  17.194  65.405  0.00  0.00    +0.041 OA
ENDBRANCH  10  15
ENDBRANCH   2   9
BRANCH   1  18
ATOM     18  C   UNL     1      -5.030  17.474  69.827  0.00  0.00    +0.339 C 
ATOM     19  O   UNL     1      -3.917  16.949  69.516  0.00  0.00    -0.245 OA
BRANCH  18  21
ATOM     20  C   UNL     1      -5.266  19.082  71.688  0.00  0.00    +0.256 C 
ATOM     21  O   UNL     1      -5.187  17.749  71.190  0.00  0.00    -0.442 OA
ENDBRANCH  18  21
ENDBRANCH   1  18
BRANCH   3  22
ATOM     22  C   UNL     1      -8.894  18.028  66.636  0.00  0.00    +0.339 C 
ATOM     23  O   UNL     1      -9.235  17.267  65.681  0.00  0.00    -0.245 OA
BRANCH  22  24
ATOM     24  O   UNL     1      -9.374  19.336  66.546  0.00  0.00    -0.442 OA
ATOM     25  C   UNL     1     -10.604  19.623  65.883  0.00  0.00    +0.256 C 
ENDBRANCH  22  24
ENDBRANCH   3  22
TORSDOF 6
ENDMDL
MODEL 9
REMARK VINA RESULT:      -5.2      2.670      3.725
REMARK  Name = 
REMARK  6 active torsions:
REMARK  status: ('A' for Active; 'I' for Inactive)
REMARK    1  A    between atoms: O_2  and  C_3
REMARK    2  A    between atoms: C_3  and  C_5
REMARK    3  A    between atoms: C_11  and  C_12
REMARK    4  A    between atoms: C_12  and  O_14
REMARK    5  A    between atoms: C_16  and  C_17
REMARK    6  A    between atoms: C_22  and  N_23
REMARK                            x       y       z     vdW  Elec       q    Type
REMARK                         _______ _______ _______ _____ _____    ______ ____
ROOT
ATOM      1  C   UNL     1      -8.164  13.811  67.667  0.00  0.00    +0.073 C 
ATOM      2  C   UNL     1      -8.966  15.039  67.584  0.00  0.00    +0.087 C 
ATOM      3  C   UNL     1      -8.156  16.222  67.256  0.00  0.00    +0.073 C 
ATOM      4  C   UNL     1      -6.826  16.134  67.288  0.00  0.00    +0.051 C 
ATOM      5  C   UNL     1      -6.050  17.097  66.460  0.00  0.00    +0.049 C 
ATOM      6  N   UNL     1      -6.176  15.087  68.017  0.00  0.00    -0.221 NA
ATOM      7  C   UNL     1      -6.961  13.908  68.230  0.00  0.00    +0.051 C 
ATOM      8  C   UNL     1      -6.380  12.731  68.949  0.00  0.00    +0.049 C 
ENDROOT
BRANCH   2   9
ATOM      9  C   UNL     1     -10.191  14.905  66.780  0.00  0.00    +0.055 A 
ATOM     10  C   UNL     1     -11.332  14.486  67.455  0.00  0.00    +0.287 A 
ATOM     11  C   UNL     1     -12.330  13.787  66.787  0.00  0.00    +0.075 A 
ATOM     12  C   UNL     1     -12.098  13.331  65.494  0.00  0.00    +0.006 A 
ATOM     13  C   UNL     1     -11.183  14.080  64.765  0.00  0.00    +0.000 A 
ATOM     14  C   UNL     1     -10.200  14.837  65.392  0.00  0.00    +0.002 A 
BRANCH  10  15
ATOM     15  N   UNL     1     -11.637  15.161  68.681  0.00  0.00    +0.081 N 
ATOM     16  O   UNL     1     -11.711  16.522  68.777  0.00  0.00    -0.576 OA
ATOM     17  O   UNL     1     -11.550  14.459  69.720  0.00  0.00    +0.041 OA
ENDBRANCH  10  15
ENDBRANCH   2   9
BRANCH   1  18
ATOM     18  C   UNL     1      -8.631  12.495  67.216  0.00  0.00    +0.339 C 
ATOM     19  O   UNL     1      -9.268  11.827  68.087  0.00  0.00    -0.245 OA
BRANCH  18  21
ATOM     20  C   UNL     1      -7.875  10.315  66.331  0.00  0.00    +0.256 C 
ATOM     21  O   UNL     1      -7.789  11.736  66.396  0.00  0.00    -0.442 OA
ENDBRANCH  18  21
ENDBRANCH   1  18
BRANCH   3  22
ATOM     22  C   UNL     1      -8.773  17.535  67.202  0.00  0.00    +0.339 C 
ATOM     23  O   UNL     1      -8.777  18.306  68.209  0.00  0.00    -0.245 OA
BRANCH  22  24
ATOM     24  O   UNL     1      -9.262  18.103  66.024  0.00  0.00    -0.442 OA
ATOM     25  C   UNL     1     -10.419  18.936  66.036  0.00  0.00    +0.256 C 
ENDBRANCH  22  24
ENDBRANCH   3  22
TORSDOF 6
ENDMDL
