MODEL 1
REMARK VINA RESULT:      -7.6      0.000      0.000
REMARK  Name = 
REMARK  11 active torsions:
REMARK  status: ('A' for Active; 'I' for Inactive)
REMARK    1  A    between atoms: C_2  and  C_3
REMARK    2  A    between atoms: C_3  and  N_5
REMARK    3  A    between atoms: N_8  and  C_9
REMARK    4  A    between atoms: C_12  and  N_13
REMARK    5  A    between atoms: N_16  and  C_17
REMARK    6  A    between atoms: C_20  and  O_21
REMARK    7  A    between atoms: O_21  and  C_22
REMARK    8  A    between atoms: C_22  and  C_23
REMARK    9  A    between atoms: C_26  and  C_27
REMARK   10  A    between atoms: C_26  and  C_33
REMARK   11  A    between atoms: C_27  and  N_28
REMARK                            x       y       z     vdW  Elec       q    Type
REMARK                         _______ _______ _______ _____ _____    ______ ____
ROOT
ATOM      1  C   UNL     1     -11.175  12.161  66.536  0.00  0.00    +0.048 A 
ATOM      2  C   UNL     1     -12.074  13.206  66.715  0.00  0.00    +0.018 A 
ATOM      3  C   UNL     1     -12.203  14.251  65.820  0.00  0.00    +0.038 A 
ATOM      4  C   UNL     1     -11.138  14.491  64.979  0.00  0.00    +0.139 A 
ATOM      5  C   UNL     1     -10.410  13.385  64.588  0.00  0.00    +0.038 A 
ATOM      6  C   UNL     1     -10.465  12.222  65.341  0.00  0.00    +0.018 A 
ENDROOT
BRANCH   1  10
ATOM      7  N   UNL     1      -9.858  11.139  69.422  0.00  0.00    -0.304 N 
ATOM      8  C   UNL     1     -11.044  11.995  69.278  0.00  0.00    +0.112 C 
ATOM      9  C   UNL     1     -11.998  11.060  68.524  0.00  0.00    +0.112 C 
ATOM     10  N   UNL     1     -11.327  10.908  67.226  0.00  0.00    -0.304 N 
ATOM     11  C   UNL     1     -10.088  10.131  67.336  0.00  0.00    +0.112 C 
ATOM     12  C   UNL     1      -9.151  11.041  68.137  0.00  0.00    +0.112 C 
BRANCH   7  16
ATOM     13  C   UNL     1     -10.107   8.157  72.146  0.00  0.00    +0.070 A 
ATOM     14  C   UNL     1     -11.307   8.717  71.817  0.00  0.00    +0.019 A 
ATOM     15  C   UNL     1     -11.290   9.633  70.769  0.00  0.00    +0.016 A 
ATOM     16  C   UNL     1     -10.149   9.859  70.007  0.00  0.00    +0.048 A 
ATOM     17  C   UNL     1      -9.203   8.849  70.091  0.00  0.00    +0.016 A 
ATOM     18  C   UNL     1      -9.243   7.889  71.094  0.00  0.00    +0.019 A 
BRANCH  13  22
ATOM     19  N   UNL     1      -8.281   6.858  74.794  0.00  0.00    -0.202 N 
ATOM     20  C   UNL     1      -8.471   7.753  73.841  0.00  0.00    +0.352 A 
ATOM     21  O   UNL     1      -7.871   8.867  73.947  0.00  0.00    -0.244 OA
ATOM     22  N   UNL     1      -9.772   7.678  73.456  0.00  0.00    -0.240 N 
ATOM     23  C   UNL     1     -10.288   6.591  74.080  0.00  0.00    +0.207 A 
ATOM     24  N   UNL     1      -9.318   6.020  74.836  0.00  0.00    -0.144 NA
BRANCH  19  25
ATOM     25  C   UNL     1      -6.854   6.319  75.214  0.00  0.00    +0.110 C 
ATOM     26  C   UNL     1      -7.350   4.742  75.316  0.00  0.00    +0.027 C 
BRANCH  25  28
ATOM     27  C   UNL     1      -6.352   7.862  77.000  0.00  0.00    +0.002 C 
ATOM     28  C   UNL     1      -7.106   6.565  76.836  0.00  0.00    +0.025 C 
ENDBRANCH  25  28
ENDBRANCH  19  25
ENDBRANCH  13  22
ENDBRANCH   7  16
ENDBRANCH   1  10
BRANCH   4  29
ATOM     29  O   UNL     1     -10.602  15.766  64.778  0.00  0.00    -0.473 OA
BRANCH  29  30
ATOM     30  C   UNL     1      -9.612  16.266  65.635  0.00  0.00    +0.237 C 
BRANCH  30  31
ATOM     31  C   UNL     1     -10.337  17.558  66.401  0.00  0.00    +0.191 C 
ATOM     32  O   UNL     1      -9.003  18.248  66.691  0.00  0.00    -0.325 OA
ATOM     33  C   UNL     1      -8.301  17.354  67.385  0.00  0.00    +0.231 C 
ATOM     34  O   UNL     1      -9.052  16.327  67.870  0.00  0.00    -0.327 OA
ATOM     35  C   UNL     1     -10.330  16.806  67.889  0.00  0.00    +0.178 C 
BRANCH  33  36
ATOM     36  C   UNL     1      -7.567  17.896  68.575  0.00  0.00    +0.041 A 
ATOM     37  C   UNL     1      -6.591  17.117  69.189  0.00  0.00    +0.059 A 
ATOM     38 CL   UNL     1      -7.206  15.525  69.625  0.00  0.00    -0.082 Cl
ATOM     39  C   UNL     1      -5.522  17.713  69.847  0.00  0.00    +0.023 A 
ATOM     40  C   UNL     1      -5.265  19.048  69.550  0.00  0.00    +0.058 A 
ATOM     41 CL   UNL     1      -3.659  19.743  69.659  0.00  0.00    -0.082 Cl
ATOM     42  C   UNL     1      -6.379  19.858  69.365  0.00  0.00    +0.011 A 
ATOM     43  C   UNL     1      -7.524  19.247  68.870  0.00  0.00    +0.002 A 
ENDBRANCH  33  36
BRANCH  33  44
ATOM     44  C   UNL     1      -7.188  16.748  66.531  0.00  0.00    +0.190 C 
BRANCH  44  45
ATOM     45  N   UNL     1      -6.356  17.791  65.965  0.00  0.00    -0.225 N 
ATOM     46  N   UNL     1      -6.707  18.608  64.969  0.00  0.00    -0.145 NA
ATOM     47  C   UNL     1      -5.948  19.711  65.191  0.00  0.00    +0.221 A 
ATOM     48  N   UNL     1      -4.770  19.190  65.614  0.00  0.00    -0.201 NA
ATOM     49  C   UNL     1      -5.005  17.911  65.988  0.00  0.00    +0.197 A 
ENDBRANCH  44  45
ENDBRANCH  33  44
ENDBRANCH  30  31
ENDBRANCH  29  30
ENDBRANCH   4  29
TORSDOF 11
ENDMDL
MODEL 2
REMARK VINA RESULT:      -7.5      3.789     12.564
REMARK  Name = 
REMARK  11 active torsions:
REMARK  status: ('A' for Active; 'I' for Inactive)
REMARK    1  A    between atoms: C_2  and  C_3
REMARK    2  A    between atoms: C_3  and  N_5
REMARK    3  A    between atoms: N_8  and  C_9
REMARK    4  A    between atoms: C_12  and  N_13
REMARK    5  A    between atoms: N_16  and  C_17
REMARK    6  A    between atoms: C_20  and  O_21
REMARK    7  A    between atoms: O_21  and  C_22
REMARK    8  A    between atoms: C_22  and  C_23
REMARK    9  A    between atoms: C_26  and  C_27
REMARK   10  A    between atoms: C_26  and  C_33
REMARK   11  A    between atoms: C_27  and  N_28
REMARK                            x       y       z     vdW  Elec       q    Type
REMARK                         _______ _______ _______ _____ _____    ______ ____
ROOT
ATOM      1  C   UNL     1     -11.162  13.182  68.720  0.00  0.00    +0.048 A 
ATOM      2  C   UNL     1     -10.858  11.899  68.281  0.00  0.00    +0.018 A 
ATOM      3  C   UNL     1     -11.304  10.758  68.921  0.00  0.00    +0.038 A 
ATOM      4  C   UNL     1     -11.680  10.885  70.239  0.00  0.00    +0.139 A 
ATOM      5  C   UNL     1     -12.241  12.094  70.599  0.00  0.00    +0.038 A 
ATOM      6  C   UNL     1     -12.014  13.219  69.820  0.00  0.00    +0.018 A 
ENDROOT
BRANCH   1  10
ATOM      7  N   UNL     1      -9.076  15.778  68.864  0.00  0.00    -0.304 N 
ATOM      8  C   UNL     1      -8.758  14.454  68.307  0.00  0.00    +0.112 C 
ATOM      9  C   UNL     1      -9.760  14.369  67.149  0.00  0.00    +0.112 C 
ATOM     10  N   UNL     1     -11.049  14.324  67.852  0.00  0.00    -0.304 N 
ATOM     11  C   UNL     1     -11.368  15.601  68.498  0.00  0.00    +0.112 C 
ATOM     12  C   UNL     1     -10.333  15.715  69.622  0.00  0.00    +0.112 C 
BRANCH   7  16
ATOM     13  C   UNL     1      -7.941  19.093  66.841  0.00  0.00    +0.070 A 
ATOM     14  C   UNL     1      -7.724  17.924  66.169  0.00  0.00    +0.019 A 
ATOM     15  C   UNL     1      -8.245  16.775  66.755  0.00  0.00    +0.016 A 
ATOM     16  C   UNL     1      -9.059  16.826  67.880  0.00  0.00    +0.048 A 
ATOM     17  C   UNL     1      -9.631  18.067  68.111  0.00  0.00    +0.016 A 
ATOM     18  C   UNL     1      -9.164  19.216  67.484  0.00  0.00    +0.019 A 
BRANCH  13  22
ATOM     19  N   UNL     1      -5.258  21.129  66.007  0.00  0.00    -0.202 N 
ATOM     20  C   UNL     1      -6.278  20.356  65.677  0.00  0.00    +0.352 A 
ATOM     21  O   UNL     1      -6.762  20.480  64.510  0.00  0.00    -0.244 OA
ATOM     22  N   UNL     1      -7.077  20.236  66.770  0.00  0.00    -0.240 N 
ATOM     23  C   UNL     1      -6.400  20.808  67.796  0.00  0.00    +0.207 A 
ATOM     24  N   UNL     1      -5.215  21.273  67.332  0.00  0.00    -0.144 NA
BRANCH  19  25
ATOM     25  C   UNL     1      -3.903  21.180  65.193  0.00  0.00    +0.110 C 
ATOM     26  C   UNL     1      -3.438  19.655  65.644  0.00  0.00    +0.027 C 
BRANCH  25  28
ATOM     27  C   UNL     1      -2.447  23.040  65.687  0.00  0.00    +0.002 C 
ATOM     28  C   UNL     1      -3.046  21.873  66.433  0.00  0.00    +0.025 C 
ENDBRANCH  25  28
ENDBRANCH  19  25
ENDBRANCH  13  22
ENDBRANCH   7  16
ENDBRANCH   1  10
BRANCH   4  29
ATOM     29  O   UNL     1     -11.247  10.011  71.240  0.00  0.00    -0.473 OA
BRANCH  29  30
ATOM     30  C   UNL     1     -11.325   8.624  71.058  0.00  0.00    +0.237 C 
BRANCH  30  31
ATOM     31  C   UNL     1     -12.190   8.078  72.376  0.00  0.00    +0.191 C 
ATOM     32  O   UNL     1     -10.965   7.429  73.023  0.00  0.00    -0.325 OA
ATOM     33  C   UNL     1     -10.509   6.575  72.109  0.00  0.00    +0.231 C 
ATOM     34  O   UNL     1     -11.398   6.321  71.108  0.00  0.00    -0.327 OA
ATOM     35  C   UNL     1     -12.615   6.649  71.629  0.00  0.00    +0.178 C 
BRANCH  33  36
ATOM     36  C   UNL     1     -10.112   5.227  72.630  0.00  0.00    +0.041 A 
ATOM     37  C   UNL     1     -10.505   4.845  73.909  0.00  0.00    +0.059 A 
ATOM     38 CL   UNL     1     -10.038   6.038  75.117  0.00  0.00    -0.082 Cl
ATOM     39  C   UNL     1     -10.703   3.504  74.217  0.00  0.00    +0.023 A 
ATOM     40  C   UNL     1     -10.865   2.630  73.146  0.00  0.00    +0.058 A 
ATOM     41 CL   UNL     1     -11.803   1.154  73.272  0.00  0.00    -0.082 Cl
ATOM     42  C   UNL     1     -10.073   2.876  72.031  0.00  0.00    +0.011 A 
ATOM     43  C   UNL     1      -9.712   4.196  71.797  0.00  0.00    +0.002 A 
ENDBRANCH  33  36
BRANCH  33  44
ATOM     44  C   UNL     1      -9.225   7.095  71.464  0.00  0.00    +0.190 C 
BRANCH  44  45
ATOM     45  N   UNL     1      -8.245   7.429  72.478  0.00  0.00    -0.225 N 
ATOM     46  N   UNL     1      -8.096   8.629  73.046  0.00  0.00    -0.145 NA
ATOM     47  C   UNL     1      -7.557   8.334  74.256  0.00  0.00    +0.221 A 
ATOM     48  N   UNL     1      -6.714   7.312  73.972  0.00  0.00    -0.201 NA
ATOM     49  C   UNL     1      -7.072   6.815  72.766  0.00  0.00    +0.197 A 
ENDBRANCH  44  45
ENDBRANCH  33  44
ENDBRANCH  30  31
ENDBRANCH  29  30
ENDBRANCH   4  29
TORSDOF 11
ENDMDL
MODEL 3
REMARK VINA RESULT:      -7.4      3.916     11.905
REMARK  Name = 
REMARK  11 active torsions:
REMARK  status: ('A' for Active; 'I' for Inactive)
REMARK    1  A    between atoms: C_2  and  C_3
REMARK    2  A    between atoms: C_3  and  N_5
REMARK    3  A    between atoms: N_8  and  C_9
REMARK    4  A    between atoms: C_12  and  N_13
REMARK    5  A    between atoms: N_16  and  C_17
REMARK    6  A    between atoms: C_20  and  O_21
REMARK    7  A    between atoms: O_21  and  C_22
REMARK    8  A    between atoms: C_22  and  C_23
REMARK    9  A    between atoms: C_26  and  C_27
REMARK   10  A    between atoms: C_26  and  C_33
REMARK   11  A    between atoms: C_27  and  N_28
REMARK                            x       y       z     vdW  Elec       q    Type
REMARK                         _______ _______ _______ _____ _____    ______ ____
ROOT
ATOM      1  C   UNL     1     -11.681  13.488  68.998  0.00  0.00    +0.048 A 
ATOM      2  C   UNL     1     -11.569  12.215  68.452  0.00  0.00    +0.018 A 
ATOM      3  C   UNL     1     -12.045  11.081  69.081  0.00  0.00    +0.038 A 
ATOM      4  C   UNL     1     -12.235  11.152  70.443  0.00  0.00    +0.139 A 
ATOM      5  C   UNL     1     -12.619  12.382  70.941  0.00  0.00    +0.038 A 
ATOM      6  C   UNL     1     -12.378  13.530  70.202  0.00  0.00    +0.018 A 
ENDROOT
BRANCH   1  10
ATOM      7  N   UNL     1      -9.317  15.838  68.978  0.00  0.00    -0.304 N 
ATOM      8  C   UNL     1      -9.231  14.531  68.308  0.00  0.00    +0.112 C 
ATOM      9  C   UNL     1     -10.388  14.632  67.306  0.00  0.00    +0.112 C 
ATOM     10  N   UNL     1     -11.563  14.671  68.187  0.00  0.00    -0.304 N 
ATOM     11  C   UNL     1     -11.643  15.926  68.943  0.00  0.00    +0.112 C 
ATOM     12  C   UNL     1     -10.455  15.852  69.907  0.00  0.00    +0.112 C 
BRANCH   7  16
ATOM     13  C   UNL     1      -8.139  19.189  67.040  0.00  0.00    +0.070 A 
ATOM     14  C   UNL     1      -8.089  18.056  66.281  0.00  0.00    +0.019 A 
ATOM     15  C   UNL     1      -8.636  16.911  66.852  0.00  0.00    +0.016 A 
ATOM     16  C   UNL     1      -9.320  16.945  68.062  0.00  0.00    +0.048 A 
ATOM     17  C   UNL     1      -9.763  18.207  68.426  0.00  0.00    +0.016 A 
ATOM     18  C   UNL     1      -9.274  19.358  67.821  0.00  0.00    +0.019 A 
BRANCH  13  22
ATOM     19  N   UNL     1      -5.339  21.026  66.134  0.00  0.00    -0.202 N 
ATOM     20  C   UNL     1      -6.417  20.325  65.832  0.00  0.00    +0.352 A 
ATOM     21  O   UNL     1      -6.916  20.474  64.674  0.00  0.00    -0.244 OA
ATOM     22  N   UNL     1      -7.199  20.269  66.942  0.00  0.00    -0.240 N 
ATOM     23  C   UNL     1      -6.462  20.797  67.949  0.00  0.00    +0.207 A 
ATOM     24  N   UNL     1      -5.257  21.175  67.456  0.00  0.00    -0.144 NA
BRANCH  19  25
ATOM     25  C   UNL     1      -4.001  20.976  65.292  0.00  0.00    +0.110 C 
ATOM     26  C   UNL     1      -3.576  19.470  65.836  0.00  0.00    +0.027 C 
BRANCH  25  28
ATOM     27  C   UNL     1      -2.648  22.934  65.684  0.00  0.00    +0.002 C 
ATOM     28  C   UNL     1      -3.094  21.722  66.464  0.00  0.00    +0.025 C 
ENDBRANCH  25  28
ENDBRANCH  19  25
ENDBRANCH  13  22
ENDBRANCH   7  16
ENDBRANCH   1  10
BRANCH   4  29
ATOM     29  O   UNL     1     -11.770  10.175  71.328  0.00  0.00    -0.473 OA
BRANCH  29  30
ATOM     30  C   UNL     1     -11.983   8.815  71.063  0.00  0.00    +0.237 C 
BRANCH  30  31
ATOM     31  C   UNL     1     -11.383   8.030  72.408  0.00  0.00    +0.191 C 
ATOM     32  O   UNL     1     -10.046   7.716  71.736  0.00  0.00    -0.325 OA
ATOM     33  C   UNL     1     -10.367   7.034  70.639  0.00  0.00    +0.231 C 
ATOM     34  O   UNL     1     -11.650   6.575  70.637  0.00  0.00    -0.327 OA
ATOM     35  C   UNL     1     -12.017   6.557  71.951  0.00  0.00    +0.178 C 
BRANCH  33  36
ATOM     36  C   UNL     1      -9.522   5.827  70.360  0.00  0.00    +0.041 A 
ATOM     37  C   UNL     1      -8.702   5.320  71.363  0.00  0.00    +0.059 A 
ATOM     38 CL   UNL     1      -7.648   6.561  72.034  0.00  0.00    -0.082 Cl
ATOM     39  C   UNL     1      -8.384   3.968  71.399  0.00  0.00    +0.023 A 
ATOM     40  C   UNL     1      -9.192   3.111  70.658  0.00  0.00    +0.058 A 
ATOM     41 CL   UNL     1      -9.444   1.435  71.106  0.00  0.00    -0.082 Cl
ATOM     42  C   UNL     1      -9.623   3.590  69.426  0.00  0.00    +0.011 A 
ATOM     43  C   UNL     1      -9.781   4.965  69.308  0.00  0.00    +0.002 A 
ENDBRANCH  33  36
BRANCH  33  44
ATOM     44  C   UNL     1     -10.182   7.890  69.386  0.00  0.00    +0.190 C 
BRANCH  44  45
ATOM     45  N   UNL     1      -8.892   8.549  69.407  0.00  0.00    -0.225 N 
ATOM     46  N   UNL     1      -8.672   9.812  69.781  0.00  0.00    -0.145 NA
ATOM     47  C   UNL     1      -7.384   9.789  70.206  0.00  0.00    +0.221 A 
ATOM     48  N   UNL     1      -6.787   8.947  69.328  0.00  0.00    -0.201 NA
ATOM     49  C   UNL     1      -7.767   8.242  68.715  0.00  0.00    +0.197 A 
ENDBRANCH  44  45
ENDBRANCH  33  44
ENDBRANCH  30  31
ENDBRANCH  29  30
ENDBRANCH   4  29
TORSDOF 11
ENDMDL
MODEL 4
REMARK VINA RESULT:      -7.4      3.000      4.964
REMARK  Name = 
REMARK  11 active torsions:
REMARK  status: ('A' for Active; 'I' for Inactive)
REMARK    1  A    between atoms: C_2  and  C_3
REMARK    2  A    between atoms: C_3  and  N_5
REMARK    3  A    between atoms: N_8  and  C_9
REMARK    4  A    between atoms: C_12  and  N_13
REMARK    5  A    between atoms: N_16  and  C_17
REMARK    6  A    between atoms: C_20  and  O_21
REMARK    7  A    between atoms: O_21  and  C_22
REMARK    8  A    between atoms: C_22  and  C_23
REMARK    9  A    between atoms: C_26  and  C_27
REMARK   10  A    between atoms: C_26  and  C_33
REMARK   11  A    between atoms: C_27  and  N_28
REMARK                            x       y       z     vdW  Elec       q    Type
REMARK                         _______ _______ _______ _____ _____    ______ ____
ROOT
ATOM      1  C   UNL     1     -10.553  17.394  67.643  0.00  0.00    +0.048 A 
ATOM      2  C   UNL     1     -10.150  18.262  68.651  0.00  0.00    +0.018 A 
ATOM      3  C   UNL     1      -9.597  19.503  68.399  0.00  0.00    +0.038 A 
ATOM      4  C   UNL     1      -9.039  19.701  67.156  0.00  0.00    +0.139 A 
ATOM      5  C   UNL     1      -9.635  19.030  66.107  0.00  0.00    +0.038 A 
ATOM      6  C   UNL     1     -10.417  17.913  66.359  0.00  0.00    +0.018 A 
ENDROOT
BRANCH   1  10
ATOM      7  N   UNL     1      -9.987  14.330  68.826  0.00  0.00    -0.304 N 
ATOM      8  C   UNL     1     -10.113  15.551  69.636  0.00  0.00    +0.112 C 
ATOM      9  C   UNL     1     -11.553  15.972  69.322  0.00  0.00    +0.112 C 
ATOM     10  N   UNL     1     -11.475  16.319  67.896  0.00  0.00    -0.304 N 
ATOM     11  C   UNL     1     -11.263  15.137  67.053  0.00  0.00    +0.112 C 
ATOM     12  C   UNL     1      -9.843  14.682  67.406  0.00  0.00    +0.112 C 
BRANCH   7  16
ATOM     13  C   UNL     1     -11.987  11.169  70.369  0.00  0.00    +0.070 A 
ATOM     14  C   UNL     1     -12.463  12.383  70.771  0.00  0.00    +0.019 A 
ATOM     15  C   UNL     1     -11.912  13.496  70.142  0.00  0.00    +0.016 A 
ATOM     16  C   UNL     1     -11.036  13.377  69.070  0.00  0.00    +0.048 A 
ATOM     17  C   UNL     1     -11.082  12.146  68.434  0.00  0.00    +0.016 A 
ATOM     18  C   UNL     1     -11.684  11.041  69.021  0.00  0.00    +0.019 A 
BRANCH  13  22
ATOM     19  N   UNL     1     -11.260   7.971  71.503  0.00  0.00    -0.202 N 
ATOM     20  C   UNL     1     -10.890   9.164  71.072  0.00  0.00    +0.352 A 
ATOM     21  O   UNL     1      -9.708   9.548  71.333  0.00  0.00    -0.244 OA
ATOM     22  N   UNL     1     -11.955   9.999  71.200  0.00  0.00    -0.240 N 
ATOM     23  C   UNL     1     -13.008   9.218  71.543  0.00  0.00    +0.207 A 
ATOM     24  N   UNL     1     -12.587   7.932  71.629  0.00  0.00    -0.144 NA
BRANCH  19  25
ATOM     25  C   UNL     1     -10.493   6.636  71.142  0.00  0.00    +0.110 C 
ATOM     26  C   UNL     1     -11.464   6.289  69.846  0.00  0.00    +0.027 C 
BRANCH  25  28
ATOM     27  C   UNL     1     -10.300   5.077  72.973  0.00  0.00    +0.002 C 
ATOM     28  C   UNL     1     -11.408   5.694  72.156  0.00  0.00    +0.025 C 
ENDBRANCH  25  28
ENDBRANCH  19  25
ENDBRANCH  13  22
ENDBRANCH   7  16
ENDBRANCH   1  10
BRANCH   4  29
ATOM     29  O   UNL     1      -7.772  20.263  66.973  0.00  0.00    -0.473 OA
BRANCH  29  30
ATOM     30  C   UNL     1      -6.645  19.692  67.579  0.00  0.00    +0.237 C 
BRANCH  30  31
ATOM     31  C   UNL     1      -6.097  18.571  66.470  0.00  0.00    +0.191 C 
ATOM     32  O   UNL     1      -6.215  17.408  67.456  0.00  0.00    -0.325 OA
ATOM     33  C   UNL     1      -5.458  17.762  68.493  0.00  0.00    +0.231 C 
ATOM     34  O   UNL     1      -4.620  18.803  68.227  0.00  0.00    -0.327 OA
ATOM     35  C   UNL     1      -4.497  18.815  66.869  0.00  0.00    +0.178 C 
BRANCH  33  36
ATOM     36  C   UNL     1      -4.577  16.683  69.045  0.00  0.00    +0.041 A 
ATOM     37  C   UNL     1      -5.047  15.374  69.095  0.00  0.00    +0.059 A 
ATOM     38 CL   UNL     1      -6.596  15.270  69.927  0.00  0.00    -0.082 Cl
ATOM     39  C   UNL     1      -4.166  14.303  69.016  0.00  0.00    +0.023 A 
ATOM     40  C   UNL     1      -2.895  14.569  68.516  0.00  0.00    +0.058 A 
ATOM     41 CL   UNL     1      -1.941  13.359  67.679  0.00  0.00    -0.082 Cl
ATOM     42  C   UNL     1      -2.329  15.780  68.898  0.00  0.00    +0.011 A 
ATOM     43  C   UNL     1      -3.204  16.827  69.156  0.00  0.00    +0.002 A 
ENDBRANCH  33  36
BRANCH  33  44
ATOM     44  C   UNL     1      -6.320  18.159  69.691  0.00  0.00    +0.190 C 
BRANCH  44  45
ATOM     45  N   UNL     1      -5.645  19.158  70.495  0.00  0.00    -0.225 N 
ATOM     46  N   UNL     1      -4.921  18.912  71.589  0.00  0.00    -0.145 NA
ATOM     47  C   UNL     1      -4.050  19.951  71.626  0.00  0.00    +0.221 A 
ATOM     48  N   UNL     1      -4.807  20.996  71.210  0.00  0.00    -0.201 NA
ATOM     49  C   UNL     1      -5.901  20.485  70.599  0.00  0.00    +0.197 A 
ENDBRANCH  44  45
ENDBRANCH  33  44
ENDBRANCH  30  31
ENDBRANCH  29  30
ENDBRANCH   4  29
TORSDOF 11
ENDMDL
MODEL 5
REMARK VINA RESULT:      -7.3      1.081      1.506
REMARK  Name = 
REMARK  11 active torsions:
REMARK  status: ('A' for Active; 'I' for Inactive)
REMARK    1  A    between atoms: C_2  and  C_3
REMARK    2  A    between atoms: C_3  and  N_5
REMARK    3  A    between atoms: N_8  and  C_9
REMARK    4  A    between atoms: C_12  and  N_13
REMARK    5  A    between atoms: N_16  and  C_17
REMARK    6  A    between atoms: C_20  and  O_21
REMARK    7  A    between atoms: O_21  and  C_22
REMARK    8  A    between atoms: C_22  and  C_23
REMARK    9  A    between atoms: C_26  and  C_27
REMARK   10  A    between atoms: C_26  and  C_33
REMARK   11  A    between atoms: C_27  and  N_28
REMARK                            x       y       z     vdW  Elec       q    Type
REMARK                         _______ _______ _______ _____ _____    ______ ____
ROOT
ATOM      1  C   UNL     1     -11.165  12.256  66.463  0.00  0.00    +0.048 A 
ATOM      2  C   UNL     1     -12.089  13.276  66.656  0.00  0.00    +0.018 A 
ATOM      3  C   UNL     1     -12.212  14.354  65.800  0.00  0.00    +0.038 A 
ATOM      4  C   UNL     1     -11.130  14.647  65.000  0.00  0.00    +0.139 A 
ATOM      5  C   UNL     1     -10.369  13.571  64.587  0.00  0.00    +0.038 A 
ATOM      6  C   UNL     1     -10.422  12.378  65.292  0.00  0.00    +0.018 A 
ENDROOT
BRANCH   1  10
ATOM      7  N   UNL     1      -9.639  11.022  69.157  0.00  0.00    -0.304 N 
ATOM      8  C   UNL     1     -10.793  11.933  69.168  0.00  0.00    +0.112 C 
ATOM      9  C   UNL     1     -11.854  11.082  68.459  0.00  0.00    +0.112 C 
ATOM     10  N   UNL     1     -11.311  10.974  67.098  0.00  0.00    -0.304 N 
ATOM     11  C   UNL     1     -10.104  10.141  67.052  0.00  0.00    +0.112 C 
ATOM     12  C   UNL     1      -9.057  10.966  67.808  0.00  0.00    +0.112 C 
BRANCH   7  16
ATOM     13  C   UNL     1      -9.553   7.800  71.603  0.00  0.00    +0.070 A 
ATOM     14  C   UNL     1     -10.709   8.522  71.668  0.00  0.00    +0.019 A 
ATOM     15  C   UNL     1     -10.849   9.542  70.731  0.00  0.00    +0.016 A 
ATOM     16  C   UNL     1      -9.935   9.724  69.700  0.00  0.00    +0.048 A 
ATOM     17  C   UNL     1      -9.149   8.613  69.436  0.00  0.00    +0.016 A 
ATOM     18  C   UNL     1      -9.049   7.557  70.333  0.00  0.00    +0.019 A 
BRANCH  13  22
ATOM     19  N   UNL     1      -9.178   5.869  74.461  0.00  0.00    -0.202 N 
ATOM     20  C   UNL     1      -9.554   6.025  73.204  0.00  0.00    +0.352 A 
ATOM     21  O   UNL     1      -9.685   4.982  72.492  0.00  0.00    -0.244 OA
ATOM     22  N   UNL     1      -8.947   7.143  72.726  0.00  0.00    -0.240 N 
ATOM     23  C   UNL     1      -8.355   7.736  73.791  0.00  0.00    +0.207 A 
ATOM     24  N   UNL     1      -8.592   6.986  74.895  0.00  0.00    -0.144 NA
BRANCH  19  25
ATOM     25  C   UNL     1      -9.958   4.969  75.501  0.00  0.00    +0.110 C 
ATOM     26  C   UNL     1      -9.423   5.820  76.818  0.00  0.00    +0.027 C 
BRANCH  25  28
ATOM     27  C   UNL     1      -9.509   2.604  75.341  0.00  0.00    +0.002 C 
ATOM     28  C   UNL     1      -8.731   3.861  75.644  0.00  0.00    +0.025 C 
ENDBRANCH  25  28
ENDBRANCH  19  25
ENDBRANCH  13  22
ENDBRANCH   7  16
ENDBRANCH   1  10
BRANCH   4  29
ATOM     29  O   UNL     1     -10.613  15.938  64.865  0.00  0.00    -0.473 OA
BRANCH  29  30
ATOM     30  C   UNL     1      -9.611  16.399  65.729  0.00  0.00    +0.237 C 
BRANCH  30  31
ATOM     31  C   UNL     1     -10.273  17.746  66.457  0.00  0.00    +0.191 C 
ATOM     32  O   UNL     1      -8.914  18.420  66.647  0.00  0.00    -0.325 OA
ATOM     33  C   UNL     1      -8.198  17.550  67.355  0.00  0.00    +0.231 C 
ATOM     34  O   UNL     1      -8.946  16.566  67.929  0.00  0.00    -0.327 OA
ATOM     35  C   UNL     1     -10.211  17.074  67.981  0.00  0.00    +0.178 C 
BRANCH  33  36
ATOM     36  C   UNL     1      -7.398  18.137  68.479  0.00  0.00    +0.041 A 
ATOM     37  C   UNL     1      -6.414  17.369  69.093  0.00  0.00    +0.059 A 
ATOM     38 CL   UNL     1      -7.045  15.820  69.645  0.00  0.00    -0.082 Cl
ATOM     39  C   UNL     1      -5.302  17.973  69.668  0.00  0.00    +0.023 A 
ATOM     40  C   UNL     1      -5.029  19.282  69.285  0.00  0.00    +0.058 A 
ATOM     41 CL   UNL     1      -3.403  19.940  69.284  0.00  0.00    -0.082 Cl
ATOM     42  C   UNL     1      -6.130  20.109  69.104  0.00  0.00    +0.011 A 
ATOM     43  C   UNL     1      -7.311  19.502  68.696  0.00  0.00    +0.002 A 
ENDBRANCH  33  36
BRANCH  33  44
ATOM     44  C   UNL     1      -7.138  16.874  66.485  0.00  0.00    +0.190 C 
BRANCH  44  45
ATOM     45  N   UNL     1      -6.263  17.864  65.890  0.00  0.00    -0.225 N 
ATOM     46  N   UNL     1      -6.604  18.719  64.922  0.00  0.00    -0.145 NA
ATOM     47  C   UNL     1      -5.759  19.761  65.117  0.00  0.00    +0.221 A 
ATOM     48  N   UNL     1      -4.602  19.153  65.474  0.00  0.00    -0.201 NA
ATOM     49  C   UNL     1      -4.908  17.888  65.844  0.00  0.00    +0.197 A 
ENDBRANCH  44  45
ENDBRANCH  33  44
ENDBRANCH  30  31
ENDBRANCH  29  30
ENDBRANCH   4  29
TORSDOF 11
ENDMDL
MODEL 6
REMARK VINA RESULT:      -7.3      2.326      3.318
REMARK  Name = 
REMARK  11 active torsions:
REMARK  status: ('A' for Active; 'I' for Inactive)
REMARK    1  A    between atoms: C_2  and  C_3
REMARK    2  A    between atoms: C_3  and  N_5
REMARK    3  A    between atoms: N_8  and  C_9
REMARK    4  A    between atoms: C_12  and  N_13
REMARK    5  A    between atoms: N_16  and  C_17
REMARK    6  A    between atoms: C_20  and  O_21
REMARK    7  A    between atoms: O_21  and  C_22
REMARK    8  A    between atoms: C_22  and  C_23
REMARK    9  A    between atoms: C_26  and  C_27
REMARK   10  A    between atoms: C_26  and  C_33
REMARK   11  A    between atoms: C_27  and  N_28
REMARK                            x       y       z     vdW  Elec       q    Type
REMARK                         _______ _______ _______ _____ _____    ______ ____
ROOT
ATOM      1  C   UNL     1     -10.529  13.503  66.715  0.00  0.00    +0.048 A 
ATOM      2  C   UNL     1     -10.549  14.521  67.661  0.00  0.00    +0.018 A 
ATOM      3  C   UNL     1     -10.849  15.834  67.349  0.00  0.00    +0.038 A 
ATOM      4  C   UNL     1     -10.697  16.216  66.035  0.00  0.00    +0.139 A 
ATOM      5  C   UNL     1     -10.952  15.247  65.085  0.00  0.00    +0.038 A 
ATOM      6  C   UNL     1     -10.908  13.907  65.438  0.00  0.00    +0.018 A 
ENDROOT
BRANCH   1  10
ATOM      7  N   UNL     1      -8.478  10.964  66.043  0.00  0.00    -0.304 N 
ATOM      8  C   UNL     1      -8.288  11.959  67.109  0.00  0.00    +0.112 C 
ATOM      9  C   UNL     1      -9.524  11.705  67.980  0.00  0.00    +0.112 C 
ATOM     10  N   UNL     1     -10.622  12.118  67.094  0.00  0.00    -0.304 N 
ATOM     11  C   UNL     1     -10.793  11.198  65.964  0.00  0.00    +0.112 C 
ATOM     12  C   UNL     1      -9.531  11.410  65.121  0.00  0.00    +0.112 C 
BRANCH   7  16
ATOM     13  C   UNL     1     -10.019   7.887  68.172  0.00  0.00    +0.070 A 
ATOM     14  C   UNL     1     -10.326   7.858  66.842  0.00  0.00    +0.019 A 
ATOM     15  C   UNL     1      -9.687   8.802  66.045  0.00  0.00    +0.016 A 
ATOM     16  C   UNL     1      -8.689   9.632  66.542  0.00  0.00    +0.048 A 
ATOM     17  C   UNL     1      -8.111   9.181  67.719  0.00  0.00    +0.016 A 
ATOM     18  C   UNL     1      -8.705   8.192  68.494  0.00  0.00    +0.019 A 
BRANCH  13  22
ATOM     19  N   UNL     1     -11.385   7.409  71.325  0.00  0.00    -0.202 N 
ATOM     20  C   UNL     1     -10.941   8.190  70.357  0.00  0.00    +0.352 A 
ATOM     21  O   UNL     1     -11.316   9.403  70.355  0.00  0.00    -0.244 OA
ATOM     22  N   UNL     1     -10.905   7.454  69.214  0.00  0.00    -0.240 N 
ATOM     23  C   UNL     1     -11.164   6.176  69.582  0.00  0.00    +0.207 A 
ATOM     24  N   UNL     1     -11.360   6.138  70.923  0.00  0.00    -0.144 NA
BRANCH  19  25
ATOM     25  C   UNL     1     -11.181   7.722  72.862  0.00  0.00    +0.110 C 
ATOM     26  C   UNL     1      -9.566   8.056  72.700  0.00  0.00    +0.027 C 
BRANCH  25  28
ATOM     27  C   UNL     1      -9.763   6.361  74.262  0.00  0.00    +0.002 C 
ATOM     28  C   UNL     1     -10.875   6.142  73.266  0.00  0.00    +0.025 C 
ENDBRANCH  25  28
ENDBRANCH  19  25
ENDBRANCH  13  22
ENDBRANCH   7  16
ENDBRANCH   1  10
BRANCH   4  29
ATOM     29  O   UNL     1     -10.023  17.381  65.655  0.00  0.00    -0.473 OA
BRANCH  29  30
ATOM     30  C   UNL     1      -8.762  17.680  66.190  0.00  0.00    +0.237 C 
BRANCH  30  31
ATOM     31  C   UNL     1      -8.965  19.160  66.933  0.00  0.00    +0.191 C 
ATOM     32  O   UNL     1      -7.534  19.607  66.629  0.00  0.00    -0.325 OA
ATOM     33  C   UNL     1      -6.761  18.673  67.178  0.00  0.00    +0.231 C 
ATOM     34  O   UNL     1      -7.420  17.864  68.055  0.00  0.00    -0.327 OA
ATOM     35  C   UNL     1      -8.520  18.579  68.431  0.00  0.00    +0.178 C 
BRANCH  33  36
ATOM     36  C   UNL     1      -5.574  19.184  67.937  0.00  0.00    +0.041 A 
ATOM     37  C   UNL     1      -5.496  20.536  68.256  0.00  0.00    +0.059 A 
ATOM     38 CL   UNL     1      -5.693  21.554  66.833  0.00  0.00    -0.082 Cl
ATOM     39  C   UNL     1      -4.810  20.957  69.389  0.00  0.00    +0.023 A 
ATOM     40  C   UNL     1      -4.546  19.994  70.359  0.00  0.00    +0.058 A 
ATOM     41 CL   UNL     1      -4.386  20.393  72.059  0.00  0.00    -0.082 Cl
ATOM     42  C   UNL     1      -4.206  18.731  69.890  0.00  0.00    +0.011 A 
ATOM     43  C   UNL     1      -4.743  18.351  68.666  0.00  0.00    +0.002 A 
ENDBRANCH  33  36
BRANCH  33  44
ATOM     44  C   UNL     1      -6.136  17.779  66.107  0.00  0.00    +0.190 C 
BRANCH  44  45
ATOM     45  N   UNL     1      -5.506  18.582  65.080  0.00  0.00    -0.225 N 
ATOM     46  N   UNL     1      -6.071  18.951  63.928  0.00  0.00    -0.145 NA
ATOM     47  C   UNL     1      -5.417  20.097  63.614  0.00  0.00    +0.221 A 
ATOM     48  N   UNL     1      -4.144  19.837  64.000  0.00  0.00    -0.201 NA
ATOM     49  C   UNL     1      -4.185  18.776  64.839  0.00  0.00    +0.197 A 
ENDBRANCH  44  45
ENDBRANCH  33  44
ENDBRANCH  30  31
ENDBRANCH  29  30
ENDBRANCH   4  29
TORSDOF 11
ENDMDL
MODEL 7
REMARK VINA RESULT:      -7.2      2.415      3.613
REMARK  Name = 
REMARK  11 active torsions:
REMARK  status: ('A' for Active; 'I' for Inactive)
REMARK    1  A    between atoms: C_2  and  C_3
REMARK    2  A    between atoms: C_3  and  N_5
REMARK    3  A    between atoms: N_8  and  C_9
REMARK    4  A    between atoms: C_12  and  N_13
REMARK    5  A    between atoms: N_16  and  C_17
REMARK    6  A    between atoms: C_20  and  O_21
REMARK    7  A    between atoms: O_21  and  C_22
REMARK    8  A    between atoms: C_22  and  C_23
REMARK    9  A    between atoms: C_26  and  C_27
REMARK   10  A    between atoms: C_26  and  C_33
REMARK   11  A    between atoms: C_27  and  N_28
REMARK                            x       y       z     vdW  Elec       q    Type
REMARK                         _______ _______ _______ _____ _____    ______ ____
ROOT
ATOM      1  C   UNL     1     -11.048  15.026  66.803  0.00  0.00    +0.048 A 
ATOM      2  C   UNL     1     -10.874  16.040  67.737  0.00  0.00    +0.018 A 
ATOM      3  C   UNL     1     -10.668  17.361  67.385  0.00  0.00    +0.038 A 
ATOM      4  C   UNL     1     -10.194  17.605  66.115  0.00  0.00    +0.139 A 
ATOM      5  C   UNL     1     -10.607  16.727  65.132  0.00  0.00    +0.038 A 
ATOM      6  C   UNL     1     -11.067  15.466  65.483  0.00  0.00    +0.018 A 
ENDROOT
BRANCH   1  10
ATOM      7  N   UNL     1      -9.647  12.221  67.935  0.00  0.00    -0.304 N 
ATOM      8  C   UNL     1      -9.980  13.401  68.747  0.00  0.00    +0.112 C 
ATOM      9  C   UNL     1     -11.504  13.457  68.584  0.00  0.00    +0.112 C 
ATOM     10  N   UNL     1     -11.655  13.770  67.156  0.00  0.00    -0.304 N 
ATOM     11  C   UNL     1     -11.251  12.648  66.302  0.00  0.00    +0.112 C 
ATOM     12  C   UNL     1      -9.735  12.555  66.506  0.00  0.00    +0.112 C 
BRANCH   7  16
ATOM     13  C   UNL     1     -10.580   8.608  69.498  0.00  0.00    +0.070 A 
ATOM     14  C   UNL     1     -11.164   9.663  70.137  0.00  0.00    +0.019 A 
ATOM     15  C   UNL     1     -11.002  10.908  69.539  0.00  0.00    +0.016 A 
ATOM     16  C   UNL     1     -10.406  11.054  68.291  0.00  0.00    +0.048 A 
ATOM     17  C   UNL     1     -10.372   9.890  67.540  0.00  0.00    +0.016 A 
ATOM     18  C   UNL     1     -10.595   8.643  68.111  0.00  0.00    +0.019 A 
BRANCH  13  22
ATOM     19  N   UNL     1     -10.324   6.035  71.812  0.00  0.00    -0.202 N 
ATOM     20  C   UNL     1     -11.015   6.756  70.947  0.00  0.00    +0.352 A 
ATOM     21  O   UNL     1     -12.081   6.254  70.474  0.00  0.00    -0.244 OA
ATOM     22  N   UNL     1     -10.127   7.416  70.156  0.00  0.00    -0.240 N 
ATOM     23  C   UNL     1      -8.905   7.204  70.703  0.00  0.00    +0.207 A 
ATOM     24  N   UNL     1      -9.049   6.423  71.802  0.00  0.00    -0.144 NA
BRANCH  19  25
ATOM     25  C   UNL     1     -10.933   5.467  73.157  0.00  0.00    +0.110 C 
ATOM     26  C   UNL     1     -10.184   6.595  74.111  0.00  0.00    +0.027 C 
BRANCH  25  28
ATOM     27  C   UNL     1     -10.444   3.109  73.009  0.00  0.00    +0.002 C 
ATOM     28  C   UNL     1      -9.709   4.371  73.388  0.00  0.00    +0.025 C 
ENDBRANCH  25  28
ENDBRANCH  19  25
ENDBRANCH  13  22
ENDBRANCH   7  16
ENDBRANCH   1  10
BRANCH   4  29
ATOM     29  O   UNL     1      -9.120  18.461  65.856  0.00  0.00    -0.473 OA
BRANCH  29  30
ATOM     30  C   UNL     1      -8.457  19.110  66.906  0.00  0.00    +0.237 C 
BRANCH  30  31
ATOM     31  C   UNL     1      -6.965  19.508  66.275  0.00  0.00    +0.191 C 
ATOM     32  O   UNL     1      -6.237  18.439  67.091  0.00  0.00    -0.325 OA
ATOM     33  C   UNL     1      -6.533  18.718  68.359  0.00  0.00    +0.231 C 
ATOM     34  O   UNL     1      -7.066  19.960  68.535  0.00  0.00    -0.327 OA
ATOM     35  C   UNL     1      -6.674  20.668  67.437  0.00  0.00    +0.178 C 
BRANCH  33  36
ATOM     36  C   UNL     1      -5.384  18.647  69.319  0.00  0.00    +0.041 A 
ATOM     37  C   UNL     1      -4.085  18.571  68.827  0.00  0.00    +0.059 A 
ATOM     38 CL   UNL     1      -3.899  17.248  67.680  0.00  0.00    -0.082 Cl
ATOM     39  C   UNL     1      -3.021  19.083  69.560  0.00  0.00    +0.023 A 
ATOM     40  C   UNL     1      -3.331  19.980  70.577  0.00  0.00    +0.058 A 
ATOM     41 CL   UNL     1      -2.220  21.235  71.095  0.00  0.00    -0.082 Cl
ATOM     42  C   UNL     1      -4.480  19.703  71.308  0.00  0.00    +0.011 A 
ATOM     43  C   UNL     1      -5.499  19.030  70.644  0.00  0.00    +0.002 A 
ENDBRANCH  33  36
BRANCH  33  44
ATOM     44  C   UNL     1      -7.528  17.705  68.925  0.00  0.00    +0.190 C 
BRANCH  44  45
ATOM     45  N   UNL     1      -7.050  16.353  68.719  0.00  0.00    -0.225 N 
ATOM     46  N   UNL     1      -7.383  15.560  67.698  0.00  0.00    -0.145 NA
ATOM     47  C   UNL     1      -6.316  14.729  67.590  0.00  0.00    +0.221 A 
ATOM     48  N   UNL     1      -5.969  14.510  68.881  0.00  0.00    -0.201 NA
ATOM     49  C   UNL     1      -6.551  15.478  69.626  0.00  0.00    +0.197 A 
ENDBRANCH  44  45
ENDBRANCH  33  44
ENDBRANCH  30  31
ENDBRANCH  29  30
ENDBRANCH   4  29
TORSDOF 11
ENDMDL
MODEL 8
REMARK VINA RESULT:      -7.1      2.901      4.726
REMARK  Name = 
REMARK  11 active torsions:
REMARK  status: ('A' for Active; 'I' for Inactive)
REMARK    1  A    between atoms: C_2  and  C_3
REMARK    2  A    between atoms: C_3  and  N_5
REMARK    3  A    between atoms: N_8  and  C_9
REMARK    4  A    between atoms: C_12  and  N_13
REMARK    5  A    between atoms: N_16  and  C_17
REMARK    6  A    between atoms: C_20  and  O_21
REMARK    7  A    between atoms: O_21  and  C_22
REMARK    8  A    between atoms: C_22  and  C_23
REMARK    9  A    between atoms: C_26  and  C_27
REMARK   10  A    between atoms: C_26  and  C_33
REMARK   11  A    between atoms: C_27  and  N_28
REMARK                            x       y       z     vdW  Elec       q    Type
REMARK                         _______ _______ _______ _____ _____    ______ ____
ROOT
ATOM      1  C   UNL     1     -10.532  17.424  67.651  0.00  0.00    +0.048 A 
ATOM      2  C   UNL     1     -10.154  18.260  68.694  0.00  0.00    +0.018 A 
ATOM      3  C   UNL     1      -9.632  19.524  68.496  0.00  0.00    +0.038 A 
ATOM      4  C   UNL     1      -9.076  19.787  67.264  0.00  0.00    +0.139 A 
ATOM      5  C   UNL     1      -9.652  19.145  66.186  0.00  0.00    +0.038 A 
ATOM      6  C   UNL     1     -10.406  17.998  66.389  0.00  0.00    +0.018 A 
ENDROOT
BRANCH   1  10
ATOM      7  N   UNL     1      -9.921  14.384  68.873  0.00  0.00    -0.304 N 
ATOM      8  C   UNL     1     -10.134  15.600  69.671  0.00  0.00    +0.112 C 
ATOM      9  C   UNL     1     -11.570  15.968  69.277  0.00  0.00    +0.112 C 
ATOM     10  N   UNL     1     -11.427  16.316  67.857  0.00  0.00    -0.304 N 
ATOM     11  C   UNL     1     -11.126  15.142  67.031  0.00  0.00    +0.112 C 
ATOM     12  C   UNL     1      -9.712  14.739  67.462  0.00  0.00    +0.112 C 
BRANCH   7  16
ATOM     13  C   UNL     1     -11.873  11.137  70.293  0.00  0.00    +0.070 A 
ATOM     14  C   UNL     1     -12.405  12.329  70.692  0.00  0.00    +0.019 A 
ATOM     15  C   UNL     1     -11.867  13.468  70.100  0.00  0.00    +0.016 A 
ATOM     16  C   UNL     1     -10.946  13.394  69.062  0.00  0.00    +0.048 A 
ATOM     17  C   UNL     1     -10.925  12.172  68.409  0.00  0.00    +0.016 A 
ATOM     18  C   UNL     1     -11.514  11.039  68.957  0.00  0.00    +0.019 A 
BRANCH  13  22
ATOM     19  N   UNL     1     -11.127   7.930  71.387  0.00  0.00    -0.202 N 
ATOM     20  C   UNL     1     -10.765   9.131  70.972  0.00  0.00    +0.352 A 
ATOM     21  O   UNL     1      -9.586   9.519  71.241  0.00  0.00    -0.244 OA
ATOM     22  N   UNL     1     -11.835   9.957  71.109  0.00  0.00    -0.240 N 
ATOM     23  C   UNL     1     -12.883   9.165  71.440  0.00  0.00    +0.207 A 
ATOM     24  N   UNL     1     -12.454   7.880  71.510  0.00  0.00    -0.144 NA
BRANCH  19  25
ATOM     25  C   UNL     1     -10.351   6.605  71.011  0.00  0.00    +0.110 C 
ATOM     26  C   UNL     1     -11.373   6.219  69.766  0.00  0.00    +0.027 C 
BRANCH  25  28
ATOM     27  C   UNL     1     -10.235   4.507  72.197  0.00  0.00    +0.002 C 
ATOM     28  C   UNL     1     -11.200   5.661  72.080  0.00  0.00    +0.025 C 
ENDBRANCH  25  28
ENDBRANCH  19  25
ENDBRANCH  13  22
ENDBRANCH   7  16
ENDBRANCH   1  10
BRANCH   4  29
ATOM     29  O   UNL     1      -7.824  20.388  67.108  0.00  0.00    -0.473 OA
BRANCH  29  30
ATOM     30  C   UNL     1      -6.672  19.604  66.951  0.00  0.00    +0.237 C 
BRANCH  30  31
ATOM     31  C   UNL     1      -5.712  20.008  68.255  0.00  0.00    +0.191 C 
ATOM     32  O   UNL     1      -4.499  19.253  67.707  0.00  0.00    -0.325 OA
ATOM     33  C   UNL     1      -4.924  18.003  67.538  0.00  0.00    +0.231 C 
ATOM     34  O   UNL     1      -6.100  17.735  68.171  0.00  0.00    -0.327 OA
ATOM     35  C   UNL     1      -6.197  18.684  69.146  0.00  0.00    +0.178 C 
BRANCH  33  36
ATOM     36  C   UNL     1      -3.979  16.935  68.001  0.00  0.00    +0.041 A 
ATOM     37  C   UNL     1      -2.921  17.274  68.838  0.00  0.00    +0.059 A 
ATOM     38 CL   UNL     1      -1.952  18.582  68.167  0.00  0.00    -0.082 Cl
ATOM     39  C   UNL     1      -2.409  16.348  69.740  0.00  0.00    +0.023 A 
ATOM     40  C   UNL     1      -3.208  15.249  70.035  0.00  0.00    +0.058 A 
ATOM     41 CL   UNL     1      -3.125  14.413  71.575  0.00  0.00    -0.082 Cl
ATOM     42  C   UNL     1      -3.927  14.712  68.974  0.00  0.00    +0.011 A 
ATOM     43  C   UNL     1      -4.303  15.589  67.964  0.00  0.00    +0.002 A 
ENDBRANCH  33  36
BRANCH  33  44
ATOM     44  C   UNL     1      -5.115  17.684  66.055  0.00  0.00    +0.190 C 
BRANCH  44  45
ATOM     45  N   UNL     1      -3.960  18.108  65.291  0.00  0.00    -0.225 N 
ATOM     46  N   UNL     1      -3.817  19.296  64.697  0.00  0.00    -0.145 NA
ATOM     47  C   UNL     1      -2.471  19.462  64.657  0.00  0.00    +0.221 A 
ATOM     48  N   UNL     1      -2.017  18.213  64.391  0.00  0.00    -0.201 NA
ATOM     49  C   UNL     1      -3.022  17.350  64.672  0.00  0.00    +0.197 A 
ENDBRANCH  44  45
ENDBRANCH  33  44
ENDBRANCH  30  31
ENDBRANCH  29  30
ENDBRANCH   4  29
TORSDOF 11
ENDMDL
MODEL 9
REMARK VINA RESULT:      -7.0      3.629     11.484
REMARK  Name = 
REMARK  11 active torsions:
REMARK  status: ('A' for Active; 'I' for Inactive)
REMARK    1  A    between atoms: C_2  and  C_3
REMARK    2  A    between atoms: C_3  and  N_5
REMARK    3  A    between atoms: N_8  and  C_9
REMARK    4  A    between atoms: C_12  and  N_13
REMARK    5  A    between atoms: N_16  and  C_17
REMARK    6  A    between atoms: C_20  and  O_21
REMARK    7  A    between atoms: O_21  and  C_22
REMARK    8  A    between atoms: C_22  and  C_23
REMARK    9  A    between atoms: C_26  and  C_27
REMARK   10  A    between atoms: C_26  and  C_33
REMARK   11  A    between atoms: C_27  and  N_28
REMARK                            x       y       z     vdW  Elec       q    Type
REMARK                         _______ _______ _______ _____ _____    ______ ____
ROOT
ATOM      1  C   UNL     1      -9.367  10.959  66.950  0.00  0.00    +0.048 A 
ATOM      2  C   UNL     1      -8.578  10.312  67.895  0.00  0.00    +0.018 A 
ATOM      3  C   UNL     1      -8.325   8.954  67.862  0.00  0.00    +0.038 A 
ATOM      4  C   UNL     1      -9.207   8.168  67.154  0.00  0.00    +0.139 A 
ATOM      5  C   UNL     1      -9.783   8.749  66.042  0.00  0.00    +0.038 A 
ATOM      6  C   UNL     1      -9.822  10.131  65.928  0.00  0.00    +0.018 A 
ENDROOT
BRANCH   1  10
ATOM      7  N   UNL     1     -11.723  13.288  67.312  0.00  0.00    -0.304 N 
ATOM      8  C   UNL     1     -10.926  12.701  68.399  0.00  0.00    +0.112 C 
ATOM      9  C   UNL     1      -9.510  13.132  67.997  0.00  0.00    +0.112 C 
ATOM     10  N   UNL     1      -9.295  12.382  66.752  0.00  0.00    -0.304 N 
ATOM     11  C   UNL     1     -10.137  12.878  65.658  0.00  0.00    +0.112 C 
ATOM     12  C   UNL     1     -11.558  12.497  66.085  0.00  0.00    +0.112 C 
BRANCH   7  16
ATOM     13  C   UNL     1      -9.737  16.785  66.866  0.00  0.00    +0.070 A 
ATOM     14  C   UNL     1     -10.346  16.337  65.729  0.00  0.00    +0.019 A 
ATOM     15  C   UNL     1     -11.172  15.227  65.873  0.00  0.00    +0.016 A 
ATOM     16  C   UNL     1     -11.476  14.691  67.119  0.00  0.00    +0.048 A 
ATOM     17  C   UNL     1     -11.250  15.556  68.178  0.00  0.00    +0.016 A 
ATOM     18  C   UNL     1     -10.480  16.703  68.035  0.00  0.00    +0.019 A 
BRANCH  13  22
ATOM     19  N   UNL     1      -7.163  18.933  65.976  0.00  0.00    -0.202 N 
ATOM     20  C   UNL     1      -8.425  18.697  66.285  0.00  0.00    +0.352 A 
ATOM     21  O   UNL     1      -9.129  19.674  66.687  0.00  0.00    -0.244 OA
ATOM     22  N   UNL     1      -8.483  17.481  66.889  0.00  0.00    -0.240 N 
ATOM     23  C   UNL     1      -7.249  16.936  66.758  0.00  0.00    +0.207 A 
ATOM     24  N   UNL     1      -6.455  17.809  66.091  0.00  0.00    -0.144 NA
BRANCH  19  25
ATOM     25  C   UNL     1      -6.712  20.006  64.904  0.00  0.00    +0.110 C 
ATOM     26  C   UNL     1      -5.431  19.104  64.367  0.00  0.00    +0.027 C 
BRANCH  25  28
ATOM     27  C   UNL     1      -4.514  20.976  65.119  0.00  0.00    +0.002 C 
ATOM     28  C   UNL     1      -5.753  20.843  65.969  0.00  0.00    +0.025 C 
ENDBRANCH  25  28
ENDBRANCH  19  25
ENDBRANCH  13  22
ENDBRANCH   7  16
ENDBRANCH   1  10
BRANCH   4  29
ATOM     29  O   UNL     1      -9.756   6.990  67.668  0.00  0.00    -0.473 OA
BRANCH  29  30
ATOM     30  C   UNL     1     -10.664   7.034  68.735  0.00  0.00    +0.237 C 
BRANCH  30  31
ATOM     31  C   UNL     1     -10.582   5.512  69.416  0.00  0.00    +0.191 C 
ATOM     32  O   UNL     1     -11.292   5.952  70.698  0.00  0.00    -0.325 OA
ATOM     33  C   UNL     1     -10.550   6.949  71.173  0.00  0.00    +0.231 C 
ATOM     34  O   UNL     1      -9.315   7.031  70.604  0.00  0.00    -0.327 OA
ATOM     35  C   UNL     1      -9.082   5.789  70.091  0.00  0.00    +0.178 C 
BRANCH  33  36
ATOM     36  C   UNL     1     -10.295   6.914  72.651  0.00  0.00    +0.041 A 
ATOM     37  C   UNL     1     -10.386   5.704  73.331  0.00  0.00    +0.059 A 
ATOM     38 CL   UNL     1     -11.929   4.907  73.041  0.00  0.00    -0.082 Cl
ATOM     39  C   UNL     1      -9.630   5.478  74.475  0.00  0.00    +0.023 A 
ATOM     40  C   UNL     1      -8.540   6.317  74.685  0.00  0.00    +0.058 A 
ATOM     41 CL   UNL     1      -7.114   5.803  75.567  0.00  0.00    -0.082 Cl
ATOM     42  C   UNL     1      -8.721   7.652  74.343  0.00  0.00    +0.011 A 
ATOM     43  C   UNL     1      -9.611   7.920  73.311  0.00  0.00    +0.002 A 
ENDBRANCH  33  36
BRANCH  33  44
ATOM     44  C   UNL     1     -11.243   8.296  70.968  0.00  0.00    +0.190 C 
BRANCH  44  45
ATOM     45  N   UNL     1     -12.616   8.236  71.427  0.00  0.00    -0.225 N 
ATOM     46  N   UNL     1     -13.590   7.514  70.866  0.00  0.00    -0.145 NA
ATOM     47  C   UNL     1     -14.441   7.288  71.898  0.00  0.00    +0.221 A 
ATOM     48  N   UNL     1     -14.407   8.457  72.583  0.00  0.00    -0.201 NA
ATOM     49  C   UNL     1     -13.303   9.128  72.182  0.00  0.00    +0.197 A 
ENDBRANCH  44  45
ENDBRANCH  33  44
ENDBRANCH  30  31
ENDBRANCH  29  30
ENDBRANCH   4  29
TORSDOF 11
ENDMDL
