MODEL 1
REMARK VINA RESULT:      -6.9      0.000      0.000
REMARK  Name = 
REMARK  9 active torsions:
REMARK  status: ('A' for Active; 'I' for Inactive)
REMARK    1  A    between atoms: O_2  and  C_3
REMARK    2  A    between atoms: C_3  and  N_4
REMARK    3  A    between atoms: C_5  and  C_7
REMARK    4  A    between atoms: C_10  and  C_11
REMARK    5  A    between atoms: C_10  and  C_14
REMARK    6  A    between atoms: C_21  and  C_22
REMARK    7  A    between atoms: C_25  and  C_26
REMARK    8  A    between atoms: C_26  and  S_27
REMARK    9  A    between atoms: S_27  and  C_28
REMARK                            x       y       z     vdW  Elec       q    Type
REMARK                         _______ _______ _______ _____ _____    ______ ____
ROOT
ATOM      1  C   UNL     1     -11.366  13.693  67.920  0.00  0.00    +0.268 C 
ATOM      2  C   UNL     1     -11.097  12.195  67.477  0.00  0.00    +0.181 C 
ATOM      3  N   UNL     1     -11.754  11.781  68.795  0.00  0.00    -0.238 N 
ATOM      4  C   UNL     1     -11.507  10.437  69.225  0.00  0.00    +0.129 C 
ATOM      5  C   UNL     1     -10.594   9.660  68.636  0.00  0.00    -0.002 C 
ATOM      6  C   UNL     1      -9.233  10.186  68.282  0.00  0.00    +0.084 C 
ATOM      7  S   UNL     1      -9.317  12.009  68.177  0.00  0.00    -0.112 S 
ATOM      8  C   UNL     1     -11.744  13.149  69.235  0.00  0.00    +0.277 C 
ATOM      9  O   UNL     1     -12.535  13.668  70.084  0.00  0.00    -0.270 OA
ENDROOT
BRANCH   1  10
ATOM     10  N   UNL     1     -10.232  14.531  67.824  0.00  0.00    -0.170 NA
ATOM     11  C   UNL     1     -10.475  15.921  67.988  0.00  0.00    +0.264 C 
ATOM     12  O   UNL     1     -11.520  16.287  68.614  0.00  0.00    -0.271 OA
BRANCH  11  13
ATOM     13  C   UNL     1      -9.537  16.996  67.697  0.00  0.00    +0.182 C 
ATOM     14  S   UNL     1      -7.888  16.913  68.392  0.00  0.00    -0.087 S 
ATOM     15  C   UNL     1      -7.945  18.716  68.395  0.00  0.00    +0.064 C 
ATOM     16  C   UNL     1      -7.405  19.543  67.494  0.00  0.00    +0.148 C 
ATOM     17  S   UNL     1      -9.708  18.501  68.714  0.00  0.00    -0.087 S 
BRANCH  16  18
ATOM     18  C   UNL     1      -6.618  20.704  67.849  0.00  0.00    +0.292 C 
ATOM     19  O   UNL     1      -6.445  21.598  66.993  0.00  0.00    -0.266 OA
ATOM     20  N   UNL     1      -5.832  20.774  69.037  0.00  0.00    -0.083 NA
ENDBRANCH  16  18
BRANCH  16  21
ATOM     21  C   UNL     1      -7.763  19.362  66.082  0.00  0.00    +0.393 C 
ATOM     22  O   UNL     1      -6.972  18.454  65.373  0.00  0.00    -0.240 OA
ATOM     23  O   UNL     1      -8.860  19.700  65.596  0.00  0.00    -0.240 OA
ENDBRANCH  16  21
ENDBRANCH  11  13
ENDBRANCH   1  10
BRANCH   4  24
ATOM     24  C   UNL     1     -12.185  10.032  70.465  0.00  0.00    +0.401 C 
ATOM     25  O   UNL     1     -13.581   9.962  70.537  0.00  0.00    -0.239 OA
ATOM     26  O   UNL     1     -11.632  10.434  71.535  0.00  0.00    -0.239 OA
ENDBRANCH   4  24
BRANCH   1  28
ATOM     27  C   UNL     1     -12.196  13.659  65.912  0.00  0.00    +0.177 C 
ATOM     28  O   UNL     1     -12.427  14.130  67.121  0.00  0.00    -0.328 OA
ENDBRANCH   1  28
BRANCH   5  29
ATOM     29  C   UNL     1     -10.602   8.234  69.065  0.00  0.00    +0.089 C 
BRANCH  29  30
ATOM     30  S   UNL     1      -9.110   7.663  69.829  0.00  0.00    -0.070 S 
BRANCH  30  31
ATOM     31  C   UNL     1      -8.708   8.435  71.367  0.00  0.00    +0.211 A 
ATOM     32  N   UNL     1      -9.219   8.033  72.556  0.00  0.00    -0.206 N 
ATOM     33  C   UNL     1     -10.517   7.466  72.830  0.00  0.00    +0.158 C 
ATOM     34  N   UNL     1      -8.354   8.353  73.495  0.00  0.00    -0.042 NA
ATOM     35  N   UNL     1      -7.240   8.844  72.952  0.00  0.00    -0.022 NA
ATOM     36  N   UNL     1      -7.553   9.048  71.694  0.00  0.00    -0.101 NA
ENDBRANCH  30  31
ENDBRANCH  29  30
ENDBRANCH   5  29
TORSDOF 9
ENDMDL
MODEL 2
REMARK VINA RESULT:      -6.8      3.599      9.825
REMARK  Name = 
REMARK  9 active torsions:
REMARK  status: ('A' for Active; 'I' for Inactive)
REMARK    1  A    between atoms: O_2  and  C_3
REMARK    2  A    between atoms: C_3  and  N_4
REMARK    3  A    between atoms: C_5  and  C_7
REMARK    4  A    between atoms: C_10  and  C_11
REMARK    5  A    between atoms: C_10  and  C_14
REMARK    6  A    between atoms: C_21  and  C_22
REMARK    7  A    between atoms: C_25  and  C_26
REMARK    8  A    between atoms: C_26  and  S_27
REMARK    9  A    between atoms: S_27  and  C_28
REMARK                            x       y       z     vdW  Elec       q    Type
REMARK                         _______ _______ _______ _____ _____    ______ ____
ROOT
ATOM      1  C   UNL     1     -10.199  15.471  67.311  0.00  0.00    +0.268 C 
ATOM      2  C   UNL     1      -9.584  16.507  68.342  0.00  0.00    +0.181 C 
ATOM      3  N   UNL     1      -9.609  17.523  67.199  0.00  0.00    -0.238 N 
ATOM      4  C   UNL     1      -8.792  18.687  67.376  0.00  0.00    +0.129 C 
ATOM      5  C   UNL     1      -7.901  18.785  68.365  0.00  0.00    -0.002 C 
ATOM      6  C   UNL     1      -6.989  17.642  68.711  0.00  0.00    +0.084 C 
ATOM      7  S   UNL     1      -7.725  16.091  68.082  0.00  0.00    -0.112 S 
ATOM      8  C   UNL     1      -9.933  16.476  66.269  0.00  0.00    +0.277 C 
ATOM      9  O   UNL     1     -10.546  16.620  65.164  0.00  0.00    -0.270 OA
ENDROOT
BRANCH   1  10
ATOM     10  N   UNL     1      -9.515  14.235  67.263  0.00  0.00    -0.170 NA
ATOM     11  C   UNL     1     -10.159  13.201  66.534  0.00  0.00    +0.264 C 
ATOM     12  O   UNL     1     -11.015  13.520  65.649  0.00  0.00    -0.271 OA
BRANCH  11  13
ATOM     13  C   UNL     1      -9.792  11.791  66.537  0.00  0.00    +0.182 C 
ATOM     14  S   UNL     1     -10.163  10.800  65.092  0.00  0.00    -0.087 S 
ATOM     15  C   UNL     1     -10.326   9.423  66.245  0.00  0.00    +0.064 C 
ATOM     16  C   UNL     1      -9.413   8.485  66.518  0.00  0.00    +0.148 C 
ATOM     17  S   UNL     1     -10.944  10.668  67.396  0.00  0.00    -0.087 S 
BRANCH  16  18
ATOM     18  C   UNL     1      -9.712   7.071  66.563  0.00  0.00    +0.292 C 
ATOM     19  O   UNL     1      -8.942   6.275  65.985  0.00  0.00    -0.266 OA
ATOM     20  N   UNL     1     -10.960   6.556  67.024  0.00  0.00    -0.083 NA
ENDBRANCH  16  18
BRANCH  16  21
ATOM     21  C   UNL     1      -8.081   8.919  66.955  0.00  0.00    +0.393 C 
ATOM     22  O   UNL     1      -7.711   8.524  68.244  0.00  0.00    -0.240 OA
ATOM     23  O   UNL     1      -7.190   9.311  66.176  0.00  0.00    -0.240 OA
ENDBRANCH  16  21
ENDBRANCH  11  13
ENDBRANCH   1  10
BRANCH   4  24
ATOM     24  C   UNL     1      -8.862  19.682  66.295  0.00  0.00    +0.401 C 
ATOM     25  O   UNL     1     -10.092  20.092  65.770  0.00  0.00    -0.239 OA
ATOM     26  O   UNL     1      -7.932  19.608  65.435  0.00  0.00    -0.239 OA
ENDBRANCH   4  24
BRANCH   1  28
ATOM     27  C   UNL     1     -11.566  15.412  68.999  0.00  0.00    +0.177 C 
ATOM     28  O   UNL     1     -11.539  15.330  67.685  0.00  0.00    -0.328 OA
ENDBRANCH   1  28
BRANCH   5  29
ATOM     29  C   UNL     1      -7.281  20.129  68.532  0.00  0.00    +0.089 C 
BRANCH  29  30
ATOM     30  S   UNL     1      -5.544  20.126  68.875  0.00  0.00    -0.070 S 
BRANCH  30  31
ATOM     31  C   UNL     1      -5.102  20.567  70.528  0.00  0.00    +0.211 A 
ATOM     32  N   UNL     1      -4.761  19.658  71.474  0.00  0.00    -0.206 N 
ATOM     33  C   UNL     1      -5.243  18.309  71.638  0.00  0.00    +0.158 C 
ATOM     34  N   UNL     1      -3.962  20.254  72.335  0.00  0.00    -0.042 NA
ATOM     35  N   UNL     1      -3.673  21.487  71.923  0.00  0.00    -0.022 NA
ATOM     36  N   UNL     1      -4.510  21.707  70.937  0.00  0.00    -0.101 NA
ENDBRANCH  30  31
ENDBRANCH  29  30
ENDBRANCH   5  29
TORSDOF 9
ENDMDL
MODEL 3
REMARK VINA RESULT:      -6.7      2.632     10.071
REMARK  Name = 
REMARK  9 active torsions:
REMARK  status: ('A' for Active; 'I' for Inactive)
REMARK    1  A    between atoms: O_2  and  C_3
REMARK    2  A    between atoms: C_3  and  N_4
REMARK    3  A    between atoms: C_5  and  C_7
REMARK    4  A    between atoms: C_10  and  C_11
REMARK    5  A    between atoms: C_10  and  C_14
REMARK    6  A    between atoms: C_21  and  C_22
REMARK    7  A    between atoms: C_25  and  C_26
REMARK    8  A    between atoms: C_26  and  S_27
REMARK    9  A    between atoms: S_27  and  C_28
REMARK                            x       y       z     vdW  Elec       q    Type
REMARK                         _______ _______ _______ _____ _____    ______ ____
ROOT
ATOM      1  C   UNL     1     -10.166  15.637  68.200  0.00  0.00    +0.268 C 
ATOM      2  C   UNL     1      -9.395  16.741  69.036  0.00  0.00    +0.181 C 
ATOM      3  N   UNL     1      -9.337  17.553  67.741  0.00  0.00    -0.238 N 
ATOM      4  C   UNL     1      -8.380  18.620  67.710  0.00  0.00    +0.129 C 
ATOM      5  C   UNL     1      -7.449  18.765  68.656  0.00  0.00    -0.002 C 
ATOM      6  C   UNL     1      -6.670  17.589  69.172  0.00  0.00    +0.084 C 
ATOM      7  S   UNL     1      -7.610  16.061  68.819  0.00  0.00    -0.112 S 
ATOM      8  C   UNL     1      -9.819  16.419  67.001  0.00  0.00    +0.277 C 
ATOM      9  O   UNL     1     -10.448  16.457  65.897  0.00  0.00    -0.270 OA
ENDROOT
BRANCH   1  10
ATOM     10  N   UNL     1      -9.639  14.334  68.346  0.00  0.00    -0.170 NA
ATOM     11  C   UNL     1     -10.420  13.285  67.793  0.00  0.00    +0.264 C 
ATOM     12  O   UNL     1     -11.252  13.565  66.872  0.00  0.00    -0.271 OA
BRANCH  11  13
ATOM     13  C   UNL     1     -10.226  11.859  68.019  0.00  0.00    +0.182 C 
ATOM     14  S   UNL     1     -10.296  10.747  66.617  0.00  0.00    -0.087 S 
ATOM     15  C   UNL     1     -10.920   9.526  67.789  0.00  0.00    +0.064 C 
ATOM     16  C   UNL     1     -10.226   8.552  68.387  0.00  0.00    +0.148 C 
ATOM     17  S   UNL     1     -11.686  10.939  68.609  0.00  0.00    -0.087 S 
BRANCH  16  18
ATOM     18  C   UNL     1     -10.681   7.181  68.465  0.00  0.00    +0.292 C 
ATOM     19  O   UNL     1     -11.009   6.596  67.410  0.00  0.00    -0.266 OA
ATOM     20  N   UNL     1     -11.002   6.539  69.698  0.00  0.00    -0.083 NA
ENDBRANCH  16  18
BRANCH  16  21
ATOM     21  C   UNL     1      -9.024   8.920  69.144  0.00  0.00    +0.393 C 
ATOM     22  O   UNL     1      -9.241   9.307  70.470  0.00  0.00    -0.240 OA
ATOM     23  O   UNL     1      -7.866   8.612  68.798  0.00  0.00    -0.240 OA
ENDBRANCH  16  21
ENDBRANCH  11  13
ENDBRANCH   1  10
BRANCH   4  24
ATOM     24  C   UNL     1      -8.368  19.427  66.482  0.00  0.00    +0.401 C 
ATOM     25  O   UNL     1      -9.540  20.014  65.991  0.00  0.00    -0.239 OA
ATOM     26  O   UNL     1      -7.578  19.018  65.577  0.00  0.00    -0.239 OA
ENDBRANCH   4  24
BRANCH   1  28
ATOM     27  C   UNL     1     -11.470  15.978  69.905  0.00  0.00    +0.177 C 
ATOM     28  O   UNL     1     -11.499  15.727  68.612  0.00  0.00    -0.328 OA
ENDBRANCH   1  28
BRANCH   5  29
ATOM     29  C   UNL     1      -6.667  20.030  68.589  0.00  0.00    +0.089 C 
BRANCH  29  30
ATOM     30  S   UNL     1      -4.946  19.880  68.982  0.00  0.00    -0.070 S 
BRANCH  30  31
ATOM     31  C   UNL     1      -4.498  20.393  70.612  0.00  0.00    +0.211 A 
ATOM     32  N   UNL     1      -3.216  20.603  70.999  0.00  0.00    -0.206 N 
ATOM     33  C   UNL     1      -2.022  19.927  70.555  0.00  0.00    +0.158 C 
ATOM     34  N   UNL     1      -3.230  21.487  71.975  0.00  0.00    -0.042 NA
ATOM     35  N   UNL     1      -4.464  21.953  72.162  0.00  0.00    -0.022 NA
ATOM     36  N   UNL     1      -5.226  21.150  71.457  0.00  0.00    -0.101 NA
ENDBRANCH  30  31
ENDBRANCH  29  30
ENDBRANCH   5  29
TORSDOF 9
ENDMDL
MODEL 4
REMARK VINA RESULT:      -6.4      3.207      9.581
REMARK  Name = 
REMARK  9 active torsions:
REMARK  status: ('A' for Active; 'I' for Inactive)
REMARK    1  A    between atoms: O_2  and  C_3
REMARK    2  A    between atoms: C_3  and  N_4
REMARK    3  A    between atoms: C_5  and  C_7
REMARK    4  A    between atoms: C_10  and  C_11
REMARK    5  A    between atoms: C_10  and  C_14
REMARK    6  A    between atoms: C_21  and  C_22
REMARK    7  A    between atoms: C_25  and  C_26
REMARK    8  A    between atoms: C_26  and  S_27
REMARK    9  A    between atoms: S_27  and  C_28
REMARK                            x       y       z     vdW  Elec       q    Type
REMARK                         _______ _______ _______ _____ _____    ______ ____
ROOT
ATOM      1  C   UNL     1     -11.091  14.017  68.304  0.00  0.00    +0.268 C 
ATOM      2  C   UNL     1     -10.379  15.216  69.060  0.00  0.00    +0.181 C 
ATOM      3  N   UNL     1     -10.644  16.048  67.804  0.00  0.00    -0.238 N 
ATOM      4  C   UNL     1      -9.877  17.251  67.675  0.00  0.00    +0.129 C 
ATOM      5  C   UNL     1      -8.846  17.526  68.478  0.00  0.00    -0.002 C 
ATOM      6  C   UNL     1      -7.828  16.479  68.827  0.00  0.00    +0.084 C 
ATOM      7  S   UNL     1      -8.565  14.828  68.556  0.00  0.00    -0.112 S 
ATOM      8  C   UNL     1     -11.053  14.863  67.099  0.00  0.00    +0.277 C 
ATOM      9  O   UNL     1     -11.841  14.820  66.102  0.00  0.00    -0.270 OA
ENDROOT
BRANCH   1  10
ATOM     10  N   UNL     1     -10.354  12.811  68.319  0.00  0.00    -0.170 NA
ATOM     11  C   UNL     1     -11.030  11.669  67.816  0.00  0.00    +0.264 C 
ATOM     12  O   UNL     1     -12.007  11.839  67.020  0.00  0.00    -0.271 OA
BRANCH  11  13
ATOM     13  C   UNL     1     -10.590  10.286  67.946  0.00  0.00    +0.182 C 
ATOM     14  S   UNL     1      -9.360   9.884  69.184  0.00  0.00    -0.087 S 
ATOM     15  C   UNL     1      -8.842   8.580  68.052  0.00  0.00    +0.064 C 
ATOM     16  C   UNL     1      -9.164   7.284  68.110  0.00  0.00    +0.148 C 
ATOM     17  S   UNL     1      -9.325   9.735  66.753  0.00  0.00    -0.087 S 
BRANCH  16  18
ATOM     18  C   UNL     1      -8.198   6.215  67.974  0.00  0.00    +0.292 C 
ATOM     19  O   UNL     1      -7.895   5.547  68.985  0.00  0.00    -0.266 OA
ATOM     20  N   UNL     1      -7.398   6.037  66.806  0.00  0.00    -0.083 NA
ENDBRANCH  16  18
BRANCH  16  21
ATOM     21  C   UNL     1     -10.586   6.922  68.149  0.00  0.00    +0.393 C 
ATOM     22  O   UNL     1     -11.156   6.584  66.919  0.00  0.00    -0.240 OA
ATOM     23  O   UNL     1     -11.191   6.603  69.192  0.00  0.00    -0.240 OA
ENDBRANCH  16  21
ENDBRANCH  11  13
ENDBRANCH   1  10
BRANCH   4  24
ATOM     24  C   UNL     1     -10.175  18.070  66.491  0.00  0.00    +0.401 C 
ATOM     25  O   UNL     1     -10.989  19.205  66.583  0.00  0.00    -0.239 OA
ATOM     26  O   UNL     1     -10.316  17.421  65.409  0.00  0.00    -0.239 OA
ENDBRANCH   4  24
BRANCH   1  28
ATOM     27  C   UNL     1     -12.140  14.015  70.207  0.00  0.00    +0.177 C 
ATOM     28  O   UNL     1     -12.343  13.890  68.912  0.00  0.00    -0.328 OA
ENDBRANCH   1  28
BRANCH   5  29
ATOM     29  C   UNL     1      -8.286  18.899  68.346  0.00  0.00    +0.089 C 
BRANCH  29  30
ATOM     30  S   UNL     1      -6.536  19.031  68.589  0.00  0.00    -0.070 S 
BRANCH  30  31
ATOM     31  C   UNL     1      -6.026  19.298  70.260  0.00  0.00    +0.211 A 
ATOM     32  N   UNL     1      -4.941  18.701  70.810  0.00  0.00    -0.206 N 
ATOM     33  C   UNL     1      -4.398  17.394  70.532  0.00  0.00    +0.158 C 
ATOM     34  N   UNL     1      -4.492  19.485  71.768  0.00  0.00    -0.042 NA
ATOM     35  N   UNL     1      -5.173  20.630  71.787  0.00  0.00    -0.022 NA
ATOM     36  N   UNL     1      -6.197  20.415  70.995  0.00  0.00    -0.101 NA
ENDBRANCH  30  31
ENDBRANCH  29  30
ENDBRANCH   5  29
TORSDOF 9
ENDMDL
MODEL 5
REMARK VINA RESULT:      -6.3      4.402      5.446
REMARK  Name = 
REMARK  9 active torsions:
REMARK  status: ('A' for Active; 'I' for Inactive)
REMARK    1  A    between atoms: O_2  and  C_3
REMARK    2  A    between atoms: C_3  and  N_4
REMARK    3  A    between atoms: C_5  and  C_7
REMARK    4  A    between atoms: C_10  and  C_11
REMARK    5  A    between atoms: C_10  and  C_14
REMARK    6  A    between atoms: C_21  and  C_22
REMARK    7  A    between atoms: C_25  and  C_26
REMARK    8  A    between atoms: C_26  and  S_27
REMARK    9  A    between atoms: S_27  and  C_28
REMARK                            x       y       z     vdW  Elec       q    Type
REMARK                         _______ _______ _______ _____ _____    ______ ____
ROOT
ATOM      1  C   UNL     1     -10.963  11.839  66.071  0.00  0.00    +0.268 C 
ATOM      2  C   UNL     1     -10.237  10.753  65.173  0.00  0.00    +0.181 C 
ATOM      3  N   UNL     1     -10.600   9.741  66.260  0.00  0.00    -0.238 N 
ATOM      4  C   UNL     1      -9.874   8.505  66.236  0.00  0.00    +0.129 C 
ATOM      5  C   UNL     1      -8.803   8.327  65.459  0.00  0.00    -0.002 C 
ATOM      6  C   UNL     1      -7.738   9.379  65.344  0.00  0.00    +0.084 C 
ATOM      7  S   UNL     1      -8.448  10.991  65.836  0.00  0.00    -0.112 S 
ATOM      8  C   UNL     1     -11.022  10.810  67.123  0.00  0.00    +0.277 C 
ATOM      9  O   UNL     1     -11.869  10.721  68.067  0.00  0.00    -0.270 OA
ENDROOT
BRANCH   1  10
ATOM     10  N   UNL     1     -10.196  13.005  66.294  0.00  0.00    -0.170 NA
ATOM     11  C   UNL     1     -10.902  14.117  66.825  0.00  0.00    +0.264 C 
ATOM     12  O   UNL     1     -11.986  13.906  67.455  0.00  0.00    -0.271 OA
BRANCH  11  13
ATOM     13  C   UNL     1     -10.407  15.484  66.914  0.00  0.00    +0.182 C 
ATOM     14  S   UNL     1      -8.775  15.854  66.277  0.00  0.00    -0.087 S 
ATOM     15  C   UNL     1      -8.712  17.127  67.553  0.00  0.00    +0.064 C 
ATOM     16  C   UNL     1      -8.947  18.434  67.404  0.00  0.00    +0.148 C 
ATOM     17  S   UNL     1      -9.706  15.976  68.525  0.00  0.00    -0.087 S 
BRANCH  16  18
ATOM     18  C   UNL     1      -8.085  19.465  67.938  0.00  0.00    +0.292 C 
ATOM     19  O   UNL     1      -7.844  19.472  69.164  0.00  0.00    -0.266 OA
ATOM     20  N   UNL     1      -7.689  20.612  67.186  0.00  0.00    -0.083 NA
ENDBRANCH  16  18
BRANCH  16  21
ATOM     21  C   UNL     1     -10.225  18.847  66.811  0.00  0.00    +0.393 C 
ATOM     22  O   UNL     1     -11.097  19.522  67.670  0.00  0.00    -0.240 OA
ATOM     23  O   UNL     1     -10.429  18.918  65.583  0.00  0.00    -0.240 OA
ENDBRANCH  16  21
ENDBRANCH  11  13
ENDBRANCH   1  10
BRANCH   4  24
ATOM     24  C   UNL     1     -10.267   7.518  67.253  0.00  0.00    +0.401 C 
ATOM     25  O   UNL     1     -11.369   6.678  67.057  0.00  0.00    -0.239 OA
ATOM     26  O   UNL     1     -10.110   7.893  68.455  0.00  0.00    -0.239 OA
ENDBRANCH   4  24
BRANCH   1  28
ATOM     27  C   UNL     1     -11.899  12.141  64.133  0.00  0.00    +0.177 C 
ATOM     28  O   UNL     1     -12.172  12.106  65.421  0.00  0.00    -0.328 OA
ENDBRANCH   1  28
BRANCH   5  29
ATOM     29  C   UNL     1      -8.287   6.931  65.398  0.00  0.00    +0.089 C 
BRANCH  29  30
ATOM     30  S   UNL     1      -7.192   6.585  64.050  0.00  0.00    -0.070 S 
BRANCH  30  31
ATOM     31  C   UNL     1      -7.833   6.953  62.446  0.00  0.00    +0.211 A 
ATOM     32  N   UNL     1      -8.683   6.134  61.780  0.00  0.00    -0.206 N 
ATOM     33  C   UNL     1      -8.752   4.694  61.811  0.00  0.00    +0.158 C 
ATOM     34  N   UNL     1      -9.407   6.877  60.969  0.00  0.00    -0.042 NA
ATOM     35  N   UNL     1      -9.144   8.169  61.165  0.00  0.00    -0.022 NA
ATOM     36  N   UNL     1      -8.073   8.173  61.923  0.00  0.00    -0.101 NA
ENDBRANCH  30  31
ENDBRANCH  29  30
ENDBRANCH   5  29
TORSDOF 9
ENDMDL
MODEL 6
REMARK VINA RESULT:      -6.3      2.385      2.909
REMARK  Name = 
REMARK  9 active torsions:
REMARK  status: ('A' for Active; 'I' for Inactive)
REMARK    1  A    between atoms: O_2  and  C_3
REMARK    2  A    between atoms: C_3  and  N_4
REMARK    3  A    between atoms: C_5  and  C_7
REMARK    4  A    between atoms: C_10  and  C_11
REMARK    5  A    between atoms: C_10  and  C_14
REMARK    6  A    between atoms: C_21  and  C_22
REMARK    7  A    between atoms: C_25  and  C_26
REMARK    8  A    between atoms: C_26  and  S_27
REMARK    9  A    between atoms: S_27  and  C_28
REMARK                            x       y       z     vdW  Elec       q    Type
REMARK                         _______ _______ _______ _____ _____    ______ ____
ROOT
ATOM      1  C   UNL     1     -11.251  13.657  67.827  0.00  0.00    +0.268 C 
ATOM      2  C   UNL     1     -11.058  12.180  67.286  0.00  0.00    +0.181 C 
ATOM      3  N   UNL     1     -11.582  11.710  68.644  0.00  0.00    -0.238 N 
ATOM      4  C   UNL     1     -11.317  10.342  68.980  0.00  0.00    +0.129 C 
ATOM      5  C   UNL     1     -10.484   9.583  68.263  0.00  0.00    -0.002 C 
ATOM      6  C   UNL     1      -9.157  10.108  67.795  0.00  0.00    +0.084 C 
ATOM      7  S   UNL     1      -9.218  11.936  67.787  0.00  0.00    -0.112 S 
ATOM      8  C   UNL     1     -11.501  13.054  69.146  0.00  0.00    +0.277 C 
ATOM      9  O   UNL     1     -12.190  13.540  70.098  0.00  0.00    -0.270 OA
ENDROOT
BRANCH   1  10
ATOM     10  N   UNL     1     -10.118  14.484  67.654  0.00  0.00    -0.170 NA
ATOM     11  C   UNL     1     -10.288  15.848  68.011  0.00  0.00    +0.264 C 
ATOM     12  O   UNL     1     -11.213  16.153  68.828  0.00  0.00    -0.271 OA
BRANCH  11  13
ATOM     13  C   UNL     1      -9.370  16.936  67.704  0.00  0.00    +0.182 C 
ATOM     14  S   UNL     1      -7.750  16.940  68.469  0.00  0.00    -0.087 S 
ATOM     15  C   UNL     1      -7.859  18.738  68.377  0.00  0.00    +0.064 C 
ATOM     16  C   UNL     1      -7.306  19.535  67.458  0.00  0.00    +0.148 C 
ATOM     17  S   UNL     1      -9.627  18.484  68.634  0.00  0.00    -0.087 S 
BRANCH  16  18
ATOM     18  C   UNL     1      -6.569  20.736  67.784  0.00  0.00    +0.292 C 
ATOM     19  O   UNL     1      -6.500  21.649  66.934  0.00  0.00    -0.266 OA
ATOM     20  N   UNL     1      -5.718  20.838  68.925  0.00  0.00    -0.083 NA
ENDBRANCH  16  18
BRANCH  16  21
ATOM     21  C   UNL     1      -7.598  19.272  66.044  0.00  0.00    +0.393 C 
ATOM     22  O   UNL     1      -8.800  19.802  65.568  0.00  0.00    -0.240 OA
ATOM     23  O   UNL     1      -6.739  18.910  65.215  0.00  0.00    -0.240 OA
ENDBRANCH  16  21
ENDBRANCH  11  13
ENDBRANCH   1  10
BRANCH   4  24
ATOM     24  C   UNL     1     -11.869   9.885  70.264  0.00  0.00    +0.401 C 
ATOM     25  O   UNL     1     -13.187  10.183  70.631  0.00  0.00    -0.239 OA
ATOM     26  O   UNL     1     -11.050   9.888  71.233  0.00  0.00    -0.239 OA
ENDBRANCH   4  24
BRANCH   1  28
ATOM     27  C   UNL     1     -12.241  13.813  65.898  0.00  0.00    +0.177 C 
ATOM     28  O   UNL     1     -12.381  14.148  67.165  0.00  0.00    -0.328 OA
ENDBRANCH   1  28
BRANCH   5  29
ATOM     29  C   UNL     1     -10.474   8.138  68.621  0.00  0.00    +0.089 C 
BRANCH  29  30
ATOM     30  S   UNL     1     -10.499   7.017  67.250  0.00  0.00    -0.070 S 
BRANCH  30  31
ATOM     31  C   UNL     1     -10.368   5.306  67.673  0.00  0.00    +0.211 A 
ATOM     32  N   UNL     1      -9.983   4.350  66.793  0.00  0.00    -0.206 N 
ATOM     33  C   UNL     1     -10.214   4.294  65.370  0.00  0.00    +0.158 C 
ATOM     34  N   UNL     1      -9.431   3.370  67.478  0.00  0.00    -0.042 NA
ATOM     35  N   UNL     1      -9.334   3.702  68.765  0.00  0.00    -0.022 NA
ATOM     36  N   UNL     1     -10.064   4.786  68.879  0.00  0.00    -0.101 NA
ENDBRANCH  30  31
ENDBRANCH  29  30
ENDBRANCH   5  29
TORSDOF 9
ENDMDL
MODEL 7
REMARK VINA RESULT:      -6.3      2.813      3.349
REMARK  Name = 
REMARK  9 active torsions:
REMARK  status: ('A' for Active; 'I' for Inactive)
REMARK    1  A    between atoms: O_2  and  C_3
REMARK    2  A    between atoms: C_3  and  N_4
REMARK    3  A    between atoms: C_5  and  C_7
REMARK    4  A    between atoms: C_10  and  C_11
REMARK    5  A    between atoms: C_10  and  C_14
REMARK    6  A    between atoms: C_21  and  C_22
REMARK    7  A    between atoms: C_25  and  C_26
REMARK    8  A    between atoms: C_26  and  S_27
REMARK    9  A    between atoms: S_27  and  C_28
REMARK                            x       y       z     vdW  Elec       q    Type
REMARK                         _______ _______ _______ _____ _____    ______ ____
ROOT
ATOM      1  C   UNL     1     -11.008  11.972  66.171  0.00  0.00    +0.268 C 
ATOM      2  C   UNL     1     -10.276  10.884  65.280  0.00  0.00    +0.181 C 
ATOM      3  N   UNL     1     -10.669   9.870  66.355  0.00  0.00    -0.238 N 
ATOM      4  C   UNL     1      -9.954   8.627  66.337  0.00  0.00    +0.129 C 
ATOM      5  C   UNL     1      -8.871   8.442  65.579  0.00  0.00    -0.002 C 
ATOM      6  C   UNL     1      -7.794   9.486  65.488  0.00  0.00    +0.084 C 
ATOM      7  S   UNL     1      -8.497  11.101  65.977  0.00  0.00    -0.112 S 
ATOM      8  C   UNL     1     -11.095  10.939  67.216  0.00  0.00    +0.277 C 
ATOM      9  O   UNL     1     -11.960  10.852  68.144  0.00  0.00    -0.270 OA
ENDROOT
BRANCH   1  10
ATOM     10  N   UNL     1     -10.234  13.130  66.414  0.00  0.00    -0.170 NA
ATOM     11  C   UNL     1     -10.946  14.259  66.896  0.00  0.00    +0.264 C 
ATOM     12  O   UNL     1     -12.063  14.074  67.477  0.00  0.00    -0.271 OA
BRANCH  11  13
ATOM     13  C   UNL     1     -10.435  15.620  66.990  0.00  0.00    +0.182 C 
ATOM     14  S   UNL     1      -8.826  15.987  66.294  0.00  0.00    -0.087 S 
ATOM     15  C   UNL     1      -8.700  17.235  67.590  0.00  0.00    +0.064 C 
ATOM     16  C   UNL     1      -8.927  18.547  67.473  0.00  0.00    +0.148 C 
ATOM     17  S   UNL     1      -9.665  16.076  68.579  0.00  0.00    -0.087 S 
BRANCH  16  18
ATOM     18  C   UNL     1      -8.034  19.560  67.991  0.00  0.00    +0.292 C 
ATOM     19  O   UNL     1      -7.831  20.588  67.310  0.00  0.00    -0.266 OA
ATOM     20  N   UNL     1      -7.189  19.346  69.121  0.00  0.00    -0.083 NA
ENDBRANCH  16  18
BRANCH  16  21
ATOM     21  C   UNL     1     -10.224  18.983  66.940  0.00  0.00    +0.393 C 
ATOM     22  O   UNL     1     -10.378  18.860  65.556  0.00  0.00    -0.240 OA
ATOM     23  O   UNL     1     -11.244  19.137  67.640  0.00  0.00    -0.240 OA
ENDBRANCH  16  21
ENDBRANCH  11  13
ENDBRANCH   1  10
BRANCH   4  24
ATOM     24  C   UNL     1     -10.374   7.639  67.341  0.00  0.00    +0.401 C 
ATOM     25  O   UNL     1     -11.398   6.724  67.071  0.00  0.00    -0.239 OA
ATOM     26  O   UNL     1     -10.353   8.049  68.542  0.00  0.00    -0.239 OA
ENDBRANCH   4  24
BRANCH   1  28
ATOM     27  C   UNL     1     -11.921  12.224  64.215  0.00  0.00    +0.177 C 
ATOM     28  O   UNL     1     -12.202  12.255  65.501  0.00  0.00    -0.328 OA
ENDBRANCH   1  28
BRANCH   5  29
ATOM     29  C   UNL     1      -8.368   7.042  65.519  0.00  0.00    +0.089 C 
BRANCH  29  30
ATOM     30  S   UNL     1      -6.802   6.765  66.300  0.00  0.00    -0.070 S 
BRANCH  30  31
ATOM     31  C   UNL     1      -6.868   6.506  68.047  0.00  0.00    +0.211 A 
ATOM     32  N   UNL     1      -6.981   7.516  68.944  0.00  0.00    -0.206 N 
ATOM     33  C   UNL     1      -6.462   8.859  68.855  0.00  0.00    +0.158 C 
ATOM     34  N   UNL     1      -7.573   7.036  70.018  0.00  0.00    -0.042 NA
ATOM     35  N   UNL     1      -7.958   5.777  69.812  0.00  0.00    -0.022 NA
ATOM     36  N   UNL     1      -7.364   5.433  68.694  0.00  0.00    -0.101 NA
ENDBRANCH  30  31
ENDBRANCH  29  30
ENDBRANCH   5  29
TORSDOF 9
ENDMDL
MODEL 8
REMARK VINA RESULT:      -6.2      1.733      2.267
REMARK  Name = 
REMARK  9 active torsions:
REMARK  status: ('A' for Active; 'I' for Inactive)
REMARK    1  A    between atoms: O_2  and  C_3
REMARK    2  A    between atoms: C_3  and  N_4
REMARK    3  A    between atoms: C_5  and  C_7
REMARK    4  A    between atoms: C_10  and  C_11
REMARK    5  A    between atoms: C_10  and  C_14
REMARK    6  A    between atoms: C_21  and  C_22
REMARK    7  A    between atoms: C_25  and  C_26
REMARK    8  A    between atoms: C_26  and  S_27
REMARK    9  A    between atoms: S_27  and  C_28
REMARK                            x       y       z     vdW  Elec       q    Type
REMARK                         _______ _______ _______ _____ _____    ______ ____
ROOT
ATOM      1  C   UNL     1     -10.957  11.369  68.354  0.00  0.00    +0.268 C 
ATOM      2  C   UNL     1     -10.240   9.966  68.178  0.00  0.00    +0.181 C 
ATOM      3  N   UNL     1     -11.008   9.518  69.422  0.00  0.00    -0.238 N 
ATOM      4  C   UNL     1     -10.515   8.341  70.075  0.00  0.00    +0.129 C 
ATOM      5  C   UNL     1      -9.341   7.791  69.755  0.00  0.00    -0.002 C 
ATOM      6  C   UNL     1      -8.115   8.633  69.546  0.00  0.00    +0.084 C 
ATOM      7  S   UNL     1      -8.636  10.345  69.168  0.00  0.00    -0.112 S 
ATOM      8  C   UNL     1     -11.427  10.872  69.657  0.00  0.00    +0.277 C 
ATOM      9  O   UNL     1     -12.470  11.234  70.289  0.00  0.00    -0.270 OA
ENDROOT
BRANCH   1  10
ATOM     10  N   UNL     1     -10.075  12.472  68.317  0.00  0.00    -0.170 NA
ATOM     11  C   UNL     1     -10.688  13.753  68.301  0.00  0.00    +0.264 C 
ATOM     12  O   UNL     1     -11.874  13.867  68.746  0.00  0.00    -0.271 OA
BRANCH  11  13
ATOM     13  C   UNL     1     -10.024  15.019  68.022  0.00  0.00    +0.182 C 
ATOM     14  S   UNL     1      -8.560  15.450  68.961  0.00  0.00    -0.087 S 
ATOM     15  C   UNL     1      -9.081  17.161  68.731  0.00  0.00    +0.064 C 
ATOM     16  C   UNL     1      -8.623  18.031  67.825  0.00  0.00    +0.148 C 
ATOM     17  S   UNL     1     -10.756  16.494  68.807  0.00  0.00    -0.087 S 
BRANCH  16  18
ATOM     18  C   UNL     1      -8.239  19.388  68.146  0.00  0.00    +0.292 C 
ATOM     19  O   UNL     1      -8.819  20.331  67.566  0.00  0.00    -0.266 OA
ATOM     20  N   UNL     1      -7.074  19.705  68.907  0.00  0.00    -0.083 NA
ENDBRANCH  16  18
BRANCH  16  21
ATOM     21  C   UNL     1      -8.665  17.647  66.409  0.00  0.00    +0.393 C 
ATOM     22  O   UNL     1      -9.890  17.848  65.766  0.00  0.00    -0.240 OA
ATOM     23  O   UNL     1      -7.649  17.470  65.708  0.00  0.00    -0.240 OA
ENDBRANCH  16  21
ENDBRANCH  11  13
ENDBRANCH   1  10
BRANCH   4  24
ATOM     24  C   UNL     1     -11.291   7.889  71.239  0.00  0.00    +0.401 C 
ATOM     25  O   UNL     1     -12.514   7.228  71.081  0.00  0.00    -0.239 OA
ATOM     26  O   UNL     1     -11.247   8.659  72.246  0.00  0.00    -0.239 OA
ENDBRANCH   4  24
BRANCH   1  28
ATOM     27  C   UNL     1     -11.270  11.315  66.204  0.00  0.00    +0.177 C 
ATOM     28  O   UNL     1     -11.922  11.418  67.343  0.00  0.00    -0.328 OA
ENDBRANCH   1  28
BRANCH   5  29
ATOM     29  C   UNL     1      -9.069   6.466  70.378  0.00  0.00    +0.089 C 
BRANCH  29  30
ATOM     30  S   UNL     1      -7.775   6.447  71.587  0.00  0.00    -0.070 S 
BRANCH  30  31
ATOM     31  C   UNL     1      -7.922   7.657  72.866  0.00  0.00    +0.211 A 
ATOM     32  N   UNL     1      -8.466   7.392  74.079  0.00  0.00    -0.206 N 
ATOM     33  C   UNL     1      -9.528   6.473  74.407  0.00  0.00    +0.158 C 
ATOM     34  N   UNL     1      -7.930   8.222  74.950  0.00  0.00    -0.042 NA
ATOM     35  N   UNL     1      -6.968   8.942  74.373  0.00  0.00    -0.022 NA
ATOM     36  N   UNL     1      -7.111   8.709  73.090  0.00  0.00    -0.101 NA
ENDBRANCH  30  31
ENDBRANCH  29  30
ENDBRANCH   5  29
TORSDOF 9
ENDMDL
MODEL 9
REMARK VINA RESULT:      -6.2      1.716      2.074
REMARK  Name = 
REMARK  9 active torsions:
REMARK  status: ('A' for Active; 'I' for Inactive)
REMARK    1  A    between atoms: O_2  and  C_3
REMARK    2  A    between atoms: C_3  and  N_4
REMARK    3  A    between atoms: C_5  and  C_7
REMARK    4  A    between atoms: C_10  and  C_11
REMARK    5  A    between atoms: C_10  and  C_14
REMARK    6  A    between atoms: C_21  and  C_22
REMARK    7  A    between atoms: C_25  and  C_26
REMARK    8  A    between atoms: C_26  and  S_27
REMARK    9  A    between atoms: S_27  and  C_28
REMARK                            x       y       z     vdW  Elec       q    Type
REMARK                         _______ _______ _______ _____ _____    ______ ____
ROOT
ATOM      1  C   UNL     1     -10.996  11.926  67.880  0.00  0.00    +0.268 C 
ATOM      2  C   UNL     1     -10.187  10.588  67.618  0.00  0.00    +0.181 C 
ATOM      3  N   UNL     1     -10.771  10.082  68.937  0.00  0.00    -0.238 N 
ATOM      4  C   UNL     1     -10.111   8.953  69.524  0.00  0.00    +0.129 C 
ATOM      5  C   UNL     1      -8.937   8.503  69.073  0.00  0.00    -0.002 C 
ATOM      6  C   UNL     1      -7.818   9.446  68.734  0.00  0.00    +0.084 C 
ATOM      7  S   UNL     1      -8.520  11.106  68.426  0.00  0.00    -0.112 S 
ATOM      8  C   UNL     1     -11.275  11.396  69.225  0.00  0.00    +0.277 C 
ATOM      9  O   UNL     1     -12.268  11.671  69.970  0.00  0.00    -0.270 OA
ENDROOT
BRANCH   1  10
ATOM     10  N   UNL     1     -10.221  13.101  67.752  0.00  0.00    -0.170 NA
ATOM     11  C   UNL     1     -10.938  14.324  67.811  0.00  0.00    +0.264 C 
ATOM     12  O   UNL     1     -12.073  14.339  68.384  0.00  0.00    -0.271 OA
BRANCH  11  13
ATOM     13  C   UNL     1     -10.419  15.641  67.467  0.00  0.00    +0.182 C 
ATOM     14  S   UNL     1      -9.055  15.755  66.310  0.00  0.00    -0.087 S 
ATOM     15  C   UNL     1      -8.584  17.239  67.221  0.00  0.00    +0.064 C 
ATOM     16  C   UNL     1      -8.833  18.507  66.884  0.00  0.00    +0.148 C 
ATOM     17  S   UNL     1      -9.249  16.374  68.659  0.00  0.00    -0.087 S 
BRANCH  16  18
ATOM     18  C   UNL     1      -7.832  19.552  66.914  0.00  0.00    +0.292 C 
ATOM     19  O   UNL     1      -7.434  20.035  65.832  0.00  0.00    -0.266 OA
ATOM     20  N   UNL     1      -7.101  19.892  68.091  0.00  0.00    -0.083 NA
ENDBRANCH  16  18
BRANCH  16  21
ATOM     21  C   UNL     1     -10.224  18.898  66.627  0.00  0.00    +0.393 C 
ATOM     22  O   UNL     1     -10.716  18.575  65.359  0.00  0.00    -0.240 OA
ATOM     23  O   UNL     1     -11.039  19.187  67.525  0.00  0.00    -0.240 OA
ENDBRANCH  16  21
ENDBRANCH  11  13
ENDBRANCH   1  10
BRANCH   4  24
ATOM     24  C   UNL     1     -10.711   8.441  70.765  0.00  0.00    +0.401 C 
ATOM     25  O   UNL     1     -11.896   7.696  70.741  0.00  0.00    -0.239 OA
ATOM     26  O   UNL     1     -10.604   9.208  71.771  0.00  0.00    -0.239 OA
ENDBRANCH   4  24
BRANCH   1  28
ATOM     27  C   UNL     1     -11.542  11.791  65.780  0.00  0.00    +0.177 C 
ATOM     28  O   UNL     1     -12.069  11.889  66.984  0.00  0.00    -0.328 OA
ENDBRANCH   1  28
BRANCH   5  29
ATOM     29  C   UNL     1      -8.487   7.208  69.654  0.00  0.00    +0.089 C 
BRANCH  29  30
ATOM     30  S   UNL     1      -7.017   7.289  70.638  0.00  0.00    -0.070 S 
BRANCH  30  31
ATOM     31  C   UNL     1      -7.136   8.293  72.088  0.00  0.00    +0.211 A 
ATOM     32  N   UNL     1      -7.638   7.844  73.264  0.00  0.00    -0.206 N 
ATOM     33  C   UNL     1      -8.680   6.871  73.482  0.00  0.00    +0.158 C 
ATOM     34  N   UNL     1      -7.083   8.542  74.232  0.00  0.00    -0.042 NA
ATOM     35  N   UNL     1      -6.147   9.353  73.741  0.00  0.00    -0.022 NA
ATOM     36  N   UNL     1      -6.328   9.312  72.443  0.00  0.00    -0.101 NA
ENDBRANCH  30  31
ENDBRANCH  29  30
ENDBRANCH   5  29
TORSDOF 9
ENDMDL
