MODEL 1
REMARK VINA RESULT:      -6.4      0.000      0.000
REMARK  Name = 
REMARK  3 active torsions:
REMARK  status: ('A' for Active; 'I' for Inactive)
REMARK    1  A    between atoms: C_6  and  C_8
REMARK    2  A    between atoms: C_8  and  C_9
REMARK    3  A    between atoms: C_12  and  N_13
REMARK                            x       y       z     vdW  Elec       q    Type
REMARK                         _______ _______ _______ _____ _____    ______ ____
ROOT
ATOM      1  C   UNL     1     -12.592  13.673  65.847  0.00  0.00    +0.002 C 
ATOM      2  C   UNL     1     -11.902  14.456  64.589  0.00  0.00    +0.022 C 
ATOM      3  C   UNL     1     -10.289  13.854  64.791  0.00  0.00    +0.094 C 
ATOM      4  C   UNL     1     -10.667  12.542  65.716  0.00  0.00    +0.113 C 
ATOM      5  N   UNL     1     -11.238  11.581  64.814  0.00  0.00    -0.277 N 
ATOM      6  C   UNL     1     -10.339  10.663  64.188  0.00  0.00    +0.241 C 
ATOM      7  O   UNL     1      -9.879   9.730  64.912  0.00  0.00    -0.274 OA
ATOM      8  C   UNL     1     -12.400  12.005  64.083  0.00  0.00    +0.094 C 
ATOM      9  C   UNL     1     -12.266  13.323  63.469  0.00  0.00    +0.023 C 
ENDROOT
BRANCH   3  10
ATOM     10  N   UNL     1     -10.051  14.762  66.065  0.00  0.00    -0.291 N 
ATOM     11  C   UNL     1      -9.520  16.046  65.791  0.00  0.00    +0.136 A 
ATOM     12  C   UNL     1      -8.294  16.450  66.307  0.00  0.00    +0.069 A 
ATOM     13  C   UNL     1      -8.048  17.815  66.384  0.00  0.00    +0.167 A 
ATOM     14  N   UNL     1      -6.815  17.963  66.897  0.00  0.00    -0.225 NA
ATOM     15  C   UNL     1      -6.435  16.814  67.507  0.00  0.00    +0.101 A 
ATOM     16  N   UNL     1      -9.022  18.733  66.212  0.00  0.00    -0.205 NA
ATOM     17  C   UNL     1     -10.265  18.293  65.972  0.00  0.00    +0.201 A 
ATOM     18  C   UNL     1      -7.342  15.842  67.099  0.00  0.00    +0.027 A 
ATOM     19  N   UNL     1     -10.406  17.042  65.551  0.00  0.00    -0.209 NA
ATOM     20  C   UNL     1      -9.531  13.944  67.134  0.00  0.00    +0.114 C 
ENDBRANCH   3  10
BRANCH   6  21
ATOM     21  C   UNL     1      -9.567  11.229  63.040  0.00  0.00    +0.190 C 
BRANCH  21  22
ATOM     22  C   UNL     1      -9.246  10.117  62.148  0.00  0.00    +0.083 C 
ATOM     23  N   UNL     1      -9.183   9.313  61.317  0.00  0.00    -0.195 NA
ENDBRANCH  21  22
ENDBRANCH   6  21
TORSDOF 3
ENDMDL
MODEL 2
REMARK VINA RESULT:      -6.3      3.689      7.108
REMARK  Name = 
REMARK  3 active torsions:
REMARK  status: ('A' for Active; 'I' for Inactive)
REMARK    1  A    between atoms: C_6  and  C_8
REMARK    2  A    between atoms: C_8  and  C_9
REMARK    3  A    between atoms: C_12  and  N_13
REMARK                            x       y       z     vdW  Elec       q    Type
REMARK                         _______ _______ _______ _____ _____    ______ ____
ROOT
ATOM      1  C   UNL     1      -9.813  20.096  67.685  0.00  0.00    +0.002 C 
ATOM      2  C   UNL     1      -9.112  19.034  68.711  0.00  0.00    +0.022 C 
ATOM      3  C   UNL     1      -8.679  17.827  67.546  0.00  0.00    +0.094 C 
ATOM      4  C   UNL     1      -8.764  18.785  66.207  0.00  0.00    +0.113 C 
ATOM      5  N   UNL     1      -7.585  19.607  66.242  0.00  0.00    -0.277 N 
ATOM      6  C   UNL     1      -6.418  19.100  65.593  0.00  0.00    +0.241 C 
ATOM      7  O   UNL     1      -6.413  19.124  64.325  0.00  0.00    -0.274 OA
ATOM      8  C   UNL     1      -7.416  20.427  67.410  0.00  0.00    +0.094 C 
ATOM      9  C   UNL     1      -7.629  19.717  68.668  0.00  0.00    +0.023 C 
ENDROOT
BRANCH   3  10
ATOM     10  N   UNL     1     -10.185  17.364  67.385  0.00  0.00    -0.291 N 
ATOM     11  C   UNL     1     -10.553  16.248  68.176  0.00  0.00    +0.136 A 
ATOM     12  C   UNL     1     -11.002  15.066  67.598  0.00  0.00    +0.069 A 
ATOM     13  C   UNL     1     -11.751  14.207  68.393  0.00  0.00    +0.167 A 
ATOM     14  N   UNL     1     -12.061  13.141  67.635  0.00  0.00    -0.225 NA
ATOM     15  C   UNL     1     -11.899  13.452  66.327  0.00  0.00    +0.101 A 
ATOM     16  N   UNL     1     -12.249  14.584  69.589  0.00  0.00    -0.205 NA
ATOM     17  C   UNL     1     -12.013  15.837  70.001  0.00  0.00    +0.201 A 
ATOM     18  C   UNL     1     -11.188  14.646  66.298  0.00  0.00    +0.027 A 
ATOM     19  N   UNL     1     -11.022  16.502  69.420  0.00  0.00    -0.209 NA
ATOM     20  C   UNL     1     -10.558  17.458  65.994  0.00  0.00    +0.114 C 
ENDBRANCH   3  10
BRANCH   6  21
ATOM     21  C   UNL     1      -5.674  18.061  66.368  0.00  0.00    +0.190 C 
BRANCH  21  22
ATOM     22  C   UNL     1      -4.535  17.649  65.550  0.00  0.00    +0.083 C 
ATOM     23  N   UNL     1      -3.704  17.100  64.960  0.00  0.00    -0.195 NA
ENDBRANCH  21  22
ENDBRANCH   6  21
TORSDOF 3
ENDMDL
MODEL 3
REMARK VINA RESULT:      -6.2      2.007      2.611
REMARK  Name = 
REMARK  3 active torsions:
REMARK  status: ('A' for Active; 'I' for Inactive)
REMARK    1  A    between atoms: C_6  and  C_8
REMARK    2  A    between atoms: C_8  and  C_9
REMARK    3  A    between atoms: C_12  and  N_13
REMARK                            x       y       z     vdW  Elec       q    Type
REMARK                         _______ _______ _______ _____ _____    ______ ____
ROOT
ATOM      1  C   UNL     1     -10.693  14.216  68.721  0.00  0.00    +0.002 C 
ATOM      2  C   UNL     1     -11.442  15.186  67.640  0.00  0.00    +0.022 C 
ATOM      3  C   UNL     1     -10.238  15.128  66.394  0.00  0.00    +0.094 C 
ATOM      4  C   UNL     1      -9.473  13.758  66.903  0.00  0.00    +0.113 C 
ATOM      5  N   UNL     1     -10.339  12.671  66.537  0.00  0.00    -0.277 N 
ATOM      6  C   UNL     1     -10.145  12.091  65.245  0.00  0.00    +0.241 C 
ATOM      7  O   UNL     1      -9.128  11.349  65.099  0.00  0.00    -0.274 OA
ATOM      8  C   UNL     1     -11.670  12.708  67.077  0.00  0.00    +0.094 C 
ATOM      9  C   UNL     1     -12.329  14.004  66.943  0.00  0.00    +0.023 C 
ENDROOT
BRANCH   3  10
ATOM     10  N   UNL     1      -9.259  16.056  67.222  0.00  0.00    -0.291 N 
ATOM     11  C   UNL     1      -9.324  17.433  66.895  0.00  0.00    +0.136 A 
ATOM     12  C   UNL     1      -8.216  18.116  66.408  0.00  0.00    +0.069 A 
ATOM     13  C   UNL     1      -8.208  19.500  66.535  0.00  0.00    +0.167 A 
ATOM     14  N   UNL     1      -7.059  19.937  65.993  0.00  0.00    -0.225 NA
ATOM     15  C   UNL     1      -6.182  18.909  65.895  0.00  0.00    +0.101 A 
ATOM     16  N   UNL     1      -9.095  20.157  67.311  0.00  0.00    -0.205 NA
ATOM     17  C   UNL     1      -9.999  19.432  67.984  0.00  0.00    +0.201 A 
ATOM     18  C   UNL     1      -6.920  17.750  66.111  0.00  0.00    +0.027 A 
ATOM     19  N   UNL     1     -10.218  18.187  67.577  0.00  0.00    -0.209 NA
ATOM     20  C   UNL     1      -7.994  15.379  67.383  0.00  0.00    +0.114 C 
ENDBRANCH   3  10
BRANCH   6  21
ATOM     21  C   UNL     1     -10.719  12.883  64.114  0.00  0.00    +0.190 C 
BRANCH  21  22
ATOM     22  C   UNL     1     -11.930  12.191  63.678  0.00  0.00    +0.083 C 
ATOM     23  N   UNL     1     -13.003  11.825  63.443  0.00  0.00    -0.195 NA
ENDBRANCH  21  22
ENDBRANCH   6  21
TORSDOF 3
ENDMDL
MODEL 4
REMARK VINA RESULT:      -6.1      4.488      6.643
REMARK  Name = 
REMARK  3 active torsions:
REMARK  status: ('A' for Active; 'I' for Inactive)
REMARK    1  A    between atoms: C_6  and  C_8
REMARK    2  A    between atoms: C_8  and  C_9
REMARK    3  A    between atoms: C_12  and  N_13
REMARK                            x       y       z     vdW  Elec       q    Type
REMARK                         _______ _______ _______ _____ _____    ______ ____
ROOT
ATOM      1  C   UNL     1     -10.067  12.565  67.839  0.00  0.00    +0.002 C 
ATOM      2  C   UNL     1     -11.590  13.152  67.758  0.00  0.00    +0.022 C 
ATOM      3  C   UNL     1     -11.231  14.800  68.157  0.00  0.00    +0.094 C 
ATOM      4  C   UNL     1      -9.620  14.756  67.808  0.00  0.00    +0.113 C 
ATOM      5  N   UNL     1      -9.533  14.766  66.373  0.00  0.00    -0.277 N 
ATOM      6  C   UNL     1      -9.460  16.043  65.735  0.00  0.00    +0.241 C 
ATOM      7  O   UNL     1      -8.357  16.662  65.820  0.00  0.00    -0.274 OA
ATOM      8  C   UNL     1     -10.203  13.697  65.687  0.00  0.00    +0.094 C 
ATOM      9  C   UNL     1     -11.566  13.456  66.153  0.00  0.00    +0.023 C 
ENDROOT
BRANCH   3  10
ATOM     10  N   UNL     1     -10.975  14.434  69.676  0.00  0.00    -0.291 N 
ATOM     11  C   UNL     1     -12.146  14.211  70.441  0.00  0.00    +0.136 A 
ATOM     12  C   UNL     1     -12.449  14.995  71.548  0.00  0.00    +0.069 A 
ATOM     13  C   UNL     1     -13.325  14.467  72.489  0.00  0.00    +0.167 A 
ATOM     14  N   UNL     1     -13.474  15.394  73.450  0.00  0.00    -0.225 NA
ATOM     15  C   UNL     1     -12.461  16.290  73.378  0.00  0.00    +0.101 A 
ATOM     16  N   UNL     1     -13.684  13.166  72.488  0.00  0.00    -0.205 NA
ATOM     17  C   UNL     1     -13.157  12.370  71.547  0.00  0.00    +0.201 A 
ATOM     18  C   UNL     1     -11.838  16.072  72.155  0.00  0.00    +0.027 A 
ATOM     19  N   UNL     1     -12.630  12.947  70.474  0.00  0.00    -0.209 NA
ATOM     20  C   UNL     1      -9.889  15.243  70.177  0.00  0.00    +0.114 C 
ENDBRANCH   3  10
BRANCH   6  21
ATOM     21  C   UNL     1     -10.766  16.762  65.626  0.00  0.00    +0.190 C 
BRANCH  21  22
ATOM     22  C   UNL     1     -10.578  18.084  66.221  0.00  0.00    +0.083 C 
ATOM     23  N   UNL     1     -10.537  19.033  66.883  0.00  0.00    -0.195 NA
ENDBRANCH  21  22
ENDBRANCH   6  21
TORSDOF 3
ENDMDL
MODEL 5
REMARK VINA RESULT:      -6.1      4.355      6.118
REMARK  Name = 
REMARK  3 active torsions:
REMARK  status: ('A' for Active; 'I' for Inactive)
REMARK    1  A    between atoms: C_6  and  C_8
REMARK    2  A    between atoms: C_8  and  C_9
REMARK    3  A    between atoms: C_12  and  N_13
REMARK                            x       y       z     vdW  Elec       q    Type
REMARK                         _______ _______ _______ _____ _____    ______ ____
ROOT
ATOM      1  C   UNL     1      -9.164  12.457  67.842  0.00  0.00    +0.002 C 
ATOM      2  C   UNL     1     -10.685  11.872  67.714  0.00  0.00    +0.022 C 
ATOM      3  C   UNL     1     -11.527  13.387  67.744  0.00  0.00    +0.094 C 
ATOM      4  C   UNL     1     -10.250  14.346  67.333  0.00  0.00    +0.113 C 
ATOM      5  N   UNL     1     -10.046  14.141  65.926  0.00  0.00    -0.277 N 
ATOM      6  C   UNL     1     -10.756  15.001  65.033  0.00  0.00    +0.241 C 
ATOM      7  O   UNL     1     -10.337  16.193  64.934  0.00  0.00    -0.274 OA
ATOM      8  C   UNL     1      -9.785  12.790  65.510  0.00  0.00    +0.094 C 
ATOM      9  C   UNL     1     -10.702  11.807  66.082  0.00  0.00    +0.023 C 
ENDROOT
BRANCH   3  10
ATOM     10  N   UNL     1     -11.248  13.573  69.291  0.00  0.00    -0.291 N 
ATOM     11  C   UNL     1     -12.321  13.201  70.138  0.00  0.00    +0.136 A 
ATOM     12  C   UNL     1     -12.928  14.119  70.987  0.00  0.00    +0.069 A 
ATOM     13  C   UNL     1     -13.631  13.620  72.077  0.00  0.00    +0.167 A 
ATOM     14  N   UNL     1     -14.131  14.677  72.738  0.00  0.00    -0.225 NA
ATOM     15  C   UNL     1     -13.469  15.800  72.370  0.00  0.00    +0.101 A 
ATOM     16  N   UNL     1     -13.539  12.331  72.463  0.00  0.00    -0.205 NA
ATOM     17  C   UNL     1     -12.726  11.523  71.768  0.00  0.00    +0.201 A 
ATOM     18  C   UNL     1     -12.741  15.463  71.233  0.00  0.00    +0.027 A 
ATOM     19  N   UNL     1     -12.362  11.912  70.552  0.00  0.00    -0.209 NA
ATOM     20  C   UNL     1     -10.521  14.804  69.492  0.00  0.00    +0.114 C 
ENDBRANCH   3  10
BRANCH   6  21
ATOM     21  C   UNL     1     -12.196  14.649  64.840  0.00  0.00    +0.190 C 
BRANCH  21  22
ATOM     22  C   UNL     1     -12.246  13.565  63.862  0.00  0.00    +0.083 C 
ATOM     23  N   UNL     1     -12.500  12.799  63.032  0.00  0.00    -0.195 NA
ENDBRANCH  21  22
ENDBRANCH   6  21
TORSDOF 3
ENDMDL
MODEL 6
REMARK VINA RESULT:      -6.0      4.209      6.490
REMARK  Name = 
REMARK  3 active torsions:
REMARK  status: ('A' for Active; 'I' for Inactive)
REMARK    1  A    between atoms: C_6  and  C_8
REMARK    2  A    between atoms: C_8  and  C_9
REMARK    3  A    between atoms: C_12  and  N_13
REMARK                            x       y       z     vdW  Elec       q    Type
REMARK                         _______ _______ _______ _____ _____    ______ ____
ROOT
ATOM      1  C   UNL     1      -8.448  10.369  67.333  0.00  0.00    +0.002 C 
ATOM      2  C   UNL     1      -9.887   9.595  67.294  0.00  0.00    +0.022 C 
ATOM      3  C   UNL     1     -10.908  10.994  67.223  0.00  0.00    +0.094 C 
ATOM      4  C   UNL     1      -9.766  12.063  66.702  0.00  0.00    +0.113 C 
ATOM      5  N   UNL     1      -9.561  11.766  65.311  0.00  0.00    -0.277 N 
ATOM      6  C   UNL     1     -10.386  12.456  64.370  0.00  0.00    +0.241 C 
ATOM      7  O   UNL     1     -10.118  13.678  64.163  0.00  0.00    -0.274 OA
ATOM      8  C   UNL     1      -9.143  10.427  65.000  0.00  0.00    +0.094 C 
ATOM      9  C   UNL     1      -9.923   9.392  65.673  0.00  0.00    +0.023 C 
ENDROOT
BRANCH   3  10
ATOM     10  N   UNL     1     -10.630  11.342  68.741  0.00  0.00    -0.291 N 
ATOM     11  C   UNL     1     -11.657  10.957  69.638  0.00  0.00    +0.136 A 
ATOM     12  C   UNL     1     -12.332  11.893  70.413  0.00  0.00    +0.069 A 
ATOM     13  C   UNL     1     -12.977  11.437  71.556  0.00  0.00    +0.167 A 
ATOM     14  N   UNL     1     -13.560  12.503  72.130  0.00  0.00    -0.225 NA
ATOM     15  C   UNL     1     -13.001  13.639  71.651  0.00  0.00    +0.101 A 
ATOM     16  N   UNL     1     -12.769  10.200  72.054  0.00  0.00    -0.205 NA
ATOM     17  C   UNL     1     -11.898   9.404  71.417  0.00  0.00    +0.201 A 
ATOM     18  C   UNL     1     -12.259  13.265  70.536  0.00  0.00    +0.027 A 
ATOM     19  N   UNL     1     -11.582   9.712  70.166  0.00  0.00    -0.209 NA
ATOM     20  C   UNL     1     -10.010  12.643  68.819  0.00  0.00    +0.114 C 
ENDBRANCH   3  10
BRANCH   6  21
ATOM     21  C   UNL     1     -11.775  11.918  64.244  0.00  0.00    +0.190 C 
BRANCH  21  22
ATOM     22  C   UNL     1     -12.677  12.925  64.798  0.00  0.00    +0.083 C 
ATOM     23  N   UNL     1     -13.212  13.876  65.186  0.00  0.00    -0.195 NA
ENDBRANCH  21  22
ENDBRANCH   6  21
TORSDOF 3
ENDMDL
MODEL 7
REMARK VINA RESULT:      -5.9      2.778      7.147
REMARK  Name = 
REMARK  3 active torsions:
REMARK  status: ('A' for Active; 'I' for Inactive)
REMARK    1  A    between atoms: C_6  and  C_8
REMARK    2  A    between atoms: C_8  and  C_9
REMARK    3  A    between atoms: C_12  and  N_13
REMARK                            x       y       z     vdW  Elec       q    Type
REMARK                         _______ _______ _______ _____ _____    ______ ____
ROOT
ATOM      1  C   UNL     1      -9.956  15.188  69.497  0.00  0.00    +0.002 C 
ATOM      2  C   UNL     1      -8.725  14.978  68.443  0.00  0.00    +0.022 C 
ATOM      3  C   UNL     1      -9.529  15.557  67.020  0.00  0.00    +0.094 C 
ATOM      4  C   UNL     1     -10.724  16.400  67.782  0.00  0.00    +0.113 C 
ATOM      5  N   UNL     1     -10.099  17.593  68.282  0.00  0.00    -0.277 N 
ATOM      6  C   UNL     1     -10.084  18.732  67.419  0.00  0.00    +0.241 C 
ATOM      7  O   UNL     1     -11.180  19.351  67.271  0.00  0.00    -0.274 OA
ATOM      8  C   UNL     1      -8.996  17.404  69.183  0.00  0.00    +0.094 C 
ATOM      9  C   UNL     1      -8.017  16.423  68.723  0.00  0.00    +0.023 C 
ENDROOT
BRANCH   3  10
ATOM     10  N   UNL     1     -10.422  14.253  66.929  0.00  0.00    -0.291 N 
ATOM     11  C   UNL     1      -9.936  13.258  66.046  0.00  0.00    +0.136 A 
ATOM     12  C   UNL     1     -10.677  12.834  64.950  0.00  0.00    +0.069 A 
ATOM     13  C   UNL     1     -10.373  11.591  64.409  0.00  0.00    +0.167 A 
ATOM     14  N   UNL     1     -11.200  11.402  63.368  0.00  0.00    -0.225 NA
ATOM     15  C   UNL     1     -12.251  12.252  63.463  0.00  0.00    +0.101 A 
ATOM     16  N   UNL     1      -9.576  10.706  65.044  0.00  0.00    -0.205 NA
ATOM     17  C   UNL     1      -9.082  11.051  66.242  0.00  0.00    +0.201 A 
ATOM     18  C   UNL     1     -11.905  13.188  64.430  0.00  0.00    +0.027 A 
ATOM     19  N   UNL     1      -9.084  12.339  66.562  0.00  0.00    -0.209 NA
ATOM     20  C   UNL     1     -11.814  14.637  66.938  0.00  0.00    +0.114 C 
ENDBRANCH   3  10
BRANCH   6  21
ATOM     21  C   UNL     1      -9.049  18.684  66.341  0.00  0.00    +0.190 C 
BRANCH  21  22
ATOM     22  C   UNL     1      -8.095  19.757  66.615  0.00  0.00    +0.083 C 
ATOM     23  N   UNL     1      -7.373  20.544  67.062  0.00  0.00    -0.195 NA
ENDBRANCH  21  22
ENDBRANCH   6  21
TORSDOF 3
ENDMDL
MODEL 8
REMARK VINA RESULT:      -5.9      2.465      6.750
REMARK  Name = 
REMARK  3 active torsions:
REMARK  status: ('A' for Active; 'I' for Inactive)
REMARK    1  A    between atoms: C_6  and  C_8
REMARK    2  A    between atoms: C_8  and  C_9
REMARK    3  A    between atoms: C_12  and  N_13
REMARK                            x       y       z     vdW  Elec       q    Type
REMARK                         _______ _______ _______ _____ _____    ______ ____
ROOT
ATOM      1  C   UNL     1     -12.015  14.138  67.998  0.00  0.00    +0.002 C 
ATOM      2  C   UNL     1     -10.511  13.562  68.276  0.00  0.00    +0.022 C 
ATOM      3  C   UNL     1      -9.809  13.981  66.747  0.00  0.00    +0.094 C 
ATOM      4  C   UNL     1     -10.924  15.113  66.306  0.00  0.00    +0.113 C 
ATOM      5  N   UNL     1     -10.633  16.275  67.101  0.00  0.00    -0.277 N 
ATOM      6  C   UNL     1      -9.711  17.222  66.557  0.00  0.00    +0.241 C 
ATOM      7  O   UNL     1     -10.136  17.955  65.614  0.00  0.00    -0.274 OA
ATOM      8  C   UNL     1     -10.667  16.096  68.526  0.00  0.00    +0.094 C 
ATOM      9  C   UNL     1      -9.944  14.916  68.993  0.00  0.00    +0.023 C 
ENDROOT
BRANCH   3  10
ATOM     10  N   UNL     1     -10.599  12.826  66.007  0.00  0.00    -0.291 N 
ATOM     11  C   UNL     1      -9.902  11.597  65.907  0.00  0.00    +0.136 A 
ATOM     12  C   UNL     1      -9.592  11.037  64.673  0.00  0.00    +0.069 A 
ATOM     13  C   UNL     1      -9.330   9.673  64.634  0.00  0.00    +0.167 A 
ATOM     14  N   UNL     1      -9.049   9.363  63.357  0.00  0.00    -0.225 NA
ATOM     15  C   UNL     1      -9.499  10.347  62.541  0.00  0.00    +0.101 A 
ATOM     16  N   UNL     1      -9.600   8.858  65.675  0.00  0.00    -0.205 NA
ATOM     17  C   UNL     1     -10.151   9.399  66.771  0.00  0.00    +0.201 A 
ATOM     18  C   UNL     1      -9.800  11.425  63.366  0.00  0.00    +0.027 A 
ATOM     19  N   UNL     1     -10.057  10.715  66.923  0.00  0.00    -0.209 NA
ATOM     20  C   UNL     1     -11.302  13.387  64.879  0.00  0.00    +0.114 C 
ENDBRANCH   3  10
BRANCH   6  21
ATOM     21  C   UNL     1      -8.273  16.828  66.668  0.00  0.00    +0.190 C 
BRANCH  21  22
ATOM     22  C   UNL     1      -7.494  17.844  65.963  0.00  0.00    +0.083 C 
ATOM     23  N   UNL     1      -6.801  18.463  65.273  0.00  0.00    -0.195 NA
ENDBRANCH  21  22
ENDBRANCH   6  21
TORSDOF 3
ENDMDL
MODEL 9
REMARK VINA RESULT:      -5.8      2.481      3.740
REMARK  Name = 
REMARK  3 active torsions:
REMARK  status: ('A' for Active; 'I' for Inactive)
REMARK    1  A    between atoms: C_6  and  C_8
REMARK    2  A    between atoms: C_8  and  C_9
REMARK    3  A    between atoms: C_12  and  N_13
REMARK                            x       y       z     vdW  Elec       q    Type
REMARK                         _______ _______ _______ _____ _____    ______ ____
ROOT
ATOM      1  C   UNL     1      -8.742  10.932  67.691  0.00  0.00    +0.002 C 
ATOM      2  C   UNL     1     -10.322  11.146  68.050  0.00  0.00    +0.022 C 
ATOM      3  C   UNL     1     -10.656  12.408  66.909  0.00  0.00    +0.094 C 
ATOM      4  C   UNL     1      -9.366  12.142  65.917  0.00  0.00    +0.113 C 
ATOM      5  N   UNL     1      -9.690  10.961  65.165  0.00  0.00    -0.277 N 
ATOM      6  C   UNL     1     -10.382  11.146  63.928  0.00  0.00    +0.241 C 
ATOM      7  O   UNL     1      -9.704  11.595  62.956  0.00  0.00    -0.274 OA
ATOM      8  C   UNL     1      -9.961   9.775  65.929  0.00  0.00    +0.094 C 
ATOM      9  C   UNL     1     -10.879   9.985  67.045  0.00  0.00    +0.023 C 
ENDROOT
BRANCH   3  10
ATOM     10  N   UNL     1      -9.856  13.470  67.767  0.00  0.00    -0.291 N 
ATOM     11  C   UNL     1     -10.648  14.504  68.324  0.00  0.00    +0.136 A 
ATOM     12  C   UNL     1     -10.431  15.839  68.002  0.00  0.00    +0.069 A 
ATOM     13  C   UNL     1     -10.908  16.799  68.886  0.00  0.00    +0.167 A 
ATOM     14  N   UNL     1     -10.595  17.999  68.368  0.00  0.00    -0.225 NA
ATOM     15  C   UNL     1      -9.622  17.852  67.436  0.00  0.00    +0.101 A 
ATOM     16  N   UNL     1     -11.341  16.485  70.125  0.00  0.00    -0.205 NA
ATOM     17  C   UNL     1     -11.289  15.200  70.502  0.00  0.00    +0.201 A 
ATOM     18  C   UNL     1      -9.547  16.490  67.167  0.00  0.00    +0.027 A 
ATOM     19  N   UNL     1     -11.180  14.282  69.549  0.00  0.00    -0.209 NA
ATOM     20  C   UNL     1      -8.601  13.752  67.112  0.00  0.00    +0.114 C 
ENDBRANCH   3  10
BRANCH   6  21
ATOM     21  C   UNL     1     -11.845  11.417  64.067  0.00  0.00    +0.190 C 
BRANCH  21  22
ATOM     22  C   UNL     1     -12.083  12.762  63.546  0.00  0.00    +0.083 C 
ATOM     23  N   UNL     1     -12.448  13.832  63.297  0.00  0.00    -0.195 NA
ENDBRANCH  21  22
ENDBRANCH   6  21
TORSDOF 3
ENDMDL
