MODEL 1
REMARK VINA RESULT:      -5.4      0.000      0.000
REMARK  Name = 
REMARK  4 active torsions:
REMARK  status: ('A' for Active; 'I' for Inactive)
REMARK    1  A    between atoms: C_2  and  N_3
REMARK    2  A    between atoms: C_2  and  C_8
REMARK    3  A    between atoms: N_3  and  C_4
REMARK    4  A    between atoms: C_8  and  C_10
REMARK                            x       y       z     vdW  Elec       q    Type
REMARK                         _______ _______ _______ _____ _____    ______ ____
ROOT
ATOM      1  C   UNL     1     -11.971  14.909  68.635  0.00  0.00    +0.189 C 
ATOM      2  O   UNL     1     -11.609  16.035  68.314  0.00  0.00    -0.290 OA
ENDROOT
BRANCH   1   3
ATOM      3  C   UNL     1     -12.105  13.771  67.735  0.00  0.00    +0.037 A 
ATOM      4  C   UNL     1     -12.124  13.947  66.358  0.00  0.00    +0.014 A 
ATOM      5  C   UNL     1     -12.037  12.855  65.524  0.00  0.00    +0.058 A 
ATOM      6 CL   UNL     1     -12.049  13.000  63.769  0.00  0.00    -0.082 Cl
ATOM      7  C   UNL     1     -11.323  11.769  66.013  0.00  0.00    +0.011 A 
ATOM      8  C   UNL     1     -11.339  11.522  67.359  0.00  0.00    +0.001 A 
ATOM      9  C   UNL     1     -11.652  12.548  68.211  0.00  0.00    +0.003 A 
ENDBRANCH   1   3
BRANCH   1  11
ATOM     10  C   UNL     1     -10.556  15.455  70.458  0.00  0.00    +0.027 C 
ATOM     11  C   UNL     1     -11.828  14.452  70.171  0.00  0.00    +0.134 C 
BRANCH  11  12
ATOM     12  N   UNL     1     -12.872  15.524  70.667  0.00  0.00    -0.214 NA
BRANCH  12  13
ATOM     13  C   UNL     1     -13.636  14.880  71.705  0.00  0.00    +0.060 C 
ATOM     14  C   UNL     1     -13.283  13.428  71.883  0.00  0.00    +0.017 C 
ATOM     15  C   UNL     1     -15.120  15.071  71.436  0.00  0.00    +0.017 C 
ATOM     16  C   UNL     1     -13.263  15.584  73.005  0.00  0.00    +0.017 C 
ENDBRANCH  12  13
ENDBRANCH  11  12
ENDBRANCH   1  11
TORSDOF 4
ENDMDL
MODEL 2
REMARK VINA RESULT:      -5.4      3.255      5.911
REMARK  Name = 
REMARK  4 active torsions:
REMARK  status: ('A' for Active; 'I' for Inactive)
REMARK    1  A    between atoms: C_2  and  N_3
REMARK    2  A    between atoms: C_2  and  C_8
REMARK    3  A    between atoms: N_3  and  C_4
REMARK    4  A    between atoms: C_8  and  C_10
REMARK                            x       y       z     vdW  Elec       q    Type
REMARK                         _______ _______ _______ _____ _____    ______ ____
ROOT
ATOM      1  C   UNL     1     -10.920  15.137  69.850  0.00  0.00    +0.189 C 
ATOM      2  O   UNL     1      -9.769  15.529  70.004  0.00  0.00    -0.290 OA
ENDROOT
BRANCH   1   3
ATOM      3  C   UNL     1     -11.900  14.942  70.911  0.00  0.00    +0.037 A 
ATOM      4  C   UNL     1     -11.632  15.342  72.213  0.00  0.00    +0.014 A 
ATOM      5  C   UNL     1     -12.640  15.346  73.152  0.00  0.00    +0.058 A 
ATOM      6 CL   UNL     1     -12.379  15.844  74.820  0.00  0.00    -0.082 Cl
ATOM      7  C   UNL     1     -13.922  15.576  72.669  0.00  0.00    +0.011 A 
ATOM      8  C   UNL     1     -14.244  15.133  71.416  0.00  0.00    +0.001 A 
ATOM      9  C   UNL     1     -13.233  14.897  70.522  0.00  0.00    +0.003 A 
ENDBRANCH   1   3
BRANCH   1  11
ATOM     10  C   UNL     1     -10.819  16.704  68.072  0.00  0.00    +0.027 C 
ATOM     11  C   UNL     1     -11.614  15.303  68.407  0.00  0.00    +0.134 C 
BRANCH  11  12
ATOM     12  N   UNL     1     -10.515  14.429  67.693  0.00  0.00    -0.214 NA
BRANCH  12  13
ATOM     13  C   UNL     1     -11.233  13.432  66.939  0.00  0.00    +0.060 C 
ATOM     14  C   UNL     1     -12.379  14.002  66.148  0.00  0.00    +0.017 C 
ATOM     15  C   UNL     1     -11.688  12.321  67.873  0.00  0.00    +0.017 C 
ATOM     16  C   UNL     1     -10.241  12.868  65.929  0.00  0.00    +0.017 C 
ENDBRANCH  12  13
ENDBRANCH  11  12
ENDBRANCH   1  11
TORSDOF 4
ENDMDL
MODEL 3
REMARK VINA RESULT:      -5.3      2.886      5.657
REMARK  Name = 
REMARK  4 active torsions:
REMARK  status: ('A' for Active; 'I' for Inactive)
REMARK    1  A    between atoms: C_2  and  N_3
REMARK    2  A    between atoms: C_2  and  C_8
REMARK    3  A    between atoms: N_3  and  C_4
REMARK    4  A    between atoms: C_8  and  C_10
REMARK                            x       y       z     vdW  Elec       q    Type
REMARK                         _______ _______ _______ _____ _____    ______ ____
ROOT
ATOM      1  C   UNL     1     -11.732  12.100  68.241  0.00  0.00    +0.189 C 
ATOM      2  O   UNL     1     -12.241  11.052  68.619  0.00  0.00    -0.290 OA
ENDROOT
BRANCH   1   3
ATOM      3  C   UNL     1     -11.506  13.281  69.064  0.00  0.00    +0.037 A 
ATOM      4  C   UNL     1     -11.104  14.482  68.496  0.00  0.00    +0.014 A 
ATOM      5  C   UNL     1     -11.102  15.634  69.252  0.00  0.00    +0.058 A 
ATOM      6 CL   UNL     1     -10.610  17.194  68.601  0.00  0.00    -0.082 Cl
ATOM      7  C   UNL     1     -12.047  15.699  70.268  0.00  0.00    +0.011 A 
ATOM      8  C   UNL     1     -12.416  14.543  70.899  0.00  0.00    +0.001 A 
ATOM      9  C   UNL     1     -12.216  13.350  70.257  0.00  0.00    +0.003 A 
ENDBRANCH   1   3
BRANCH   1  11
ATOM     10  C   UNL     1     -10.579  10.451  66.985  0.00  0.00    +0.027 C 
ATOM     11  C   UNL     1     -10.788  12.082  66.937  0.00  0.00    +0.134 C 
BRANCH  11  12
ATOM     12  N   UNL     1     -12.015  11.966  65.956  0.00  0.00    -0.214 NA
BRANCH  12  13
ATOM     13  C   UNL     1     -11.837  13.007  64.976  0.00  0.00    +0.060 C 
ATOM     14  C   UNL     1     -10.418  13.502  64.892  0.00  0.00    +0.017 C 
ATOM     15  C   UNL     1     -12.814  14.138  65.256  0.00  0.00    +0.017 C 
ATOM     16  C   UNL     1     -12.164  12.380  63.626  0.00  0.00    +0.017 C 
ENDBRANCH  12  13
ENDBRANCH  11  12
ENDBRANCH   1  11
TORSDOF 4
ENDMDL
MODEL 4
REMARK VINA RESULT:      -5.2      3.945      6.036
REMARK  Name = 
REMARK  4 active torsions:
REMARK  status: ('A' for Active; 'I' for Inactive)
REMARK    1  A    between atoms: C_2  and  N_3
REMARK    2  A    between atoms: C_2  and  C_8
REMARK    3  A    between atoms: N_3  and  C_4
REMARK    4  A    between atoms: C_8  and  C_10
REMARK                            x       y       z     vdW  Elec       q    Type
REMARK                         _______ _______ _______ _____ _____    ______ ____
ROOT
ATOM      1  C   UNL     1     -11.497  15.876  69.248  0.00  0.00    +0.189 C 
ATOM      2  O   UNL     1     -11.942  15.494  68.172  0.00  0.00    -0.290 OA
ENDROOT
BRANCH   1   3
ATOM      3  C   UNL     1     -11.737  15.244  70.538  0.00  0.00    +0.037 A 
ATOM      4  C   UNL     1     -11.852  16.003  71.695  0.00  0.00    +0.014 A 
ATOM      5  C   UNL     1     -12.286  15.415  72.863  0.00  0.00    +0.058 A 
ATOM      6 CL   UNL     1     -12.462  16.313  74.367  0.00  0.00    -0.082 Cl
ATOM      7  C   UNL     1     -13.160  14.344  72.718  0.00  0.00    +0.011 A 
ATOM      8  C   UNL     1     -13.031  13.532  71.626  0.00  0.00    +0.001 A 
ATOM      9  C   UNL     1     -12.391  14.019  70.516  0.00  0.00    +0.003 A 
ENDBRANCH   1   3
BRANCH   1  11
ATOM     10  C   UNL     1      -9.153  15.522  69.170  0.00  0.00    +0.027 C 
ATOM     11  C   UNL     1     -10.181  16.803  69.263  0.00  0.00    +0.134 C 
BRANCH  11  12
ATOM     12  N   UNL     1     -10.201  16.988  67.698  0.00  0.00    -0.214 NA
BRANCH  12  13
ATOM     13  C   UNL     1      -9.634  18.289  67.447  0.00  0.00    +0.060 C 
ATOM     14  C   UNL     1      -8.235  18.226  66.896  0.00  0.00    +0.017 C 
ATOM     15  C   UNL     1      -9.704  19.125  68.715  0.00  0.00    +0.017 C 
ATOM     16  C   UNL     1     -10.501  18.930  66.370  0.00  0.00    +0.017 C 
ENDBRANCH  12  13
ENDBRANCH  11  12
ENDBRANCH   1  11
TORSDOF 4
ENDMDL
MODEL 5
REMARK VINA RESULT:      -5.2      3.652      4.835
REMARK  Name = 
REMARK  4 active torsions:
REMARK  status: ('A' for Active; 'I' for Inactive)
REMARK    1  A    between atoms: C_2  and  N_3
REMARK    2  A    between atoms: C_2  and  C_8
REMARK    3  A    between atoms: N_3  and  C_4
REMARK    4  A    between atoms: C_8  and  C_10
REMARK                            x       y       z     vdW  Elec       q    Type
REMARK                         _______ _______ _______ _____ _____    ______ ____
ROOT
ATOM      1  C   UNL     1     -10.975  15.970  65.445  0.00  0.00    +0.189 C 
ATOM      2  O   UNL     1     -10.893  16.600  64.397  0.00  0.00    -0.290 OA
ENDROOT
BRANCH   1   3
ATOM      3  C   UNL     1     -11.429  14.592  65.574  0.00  0.00    +0.037 A 
ATOM      4  C   UNL     1     -11.018  13.617  64.675  0.00  0.00    +0.014 A 
ATOM      5  C   UNL     1     -11.282  12.290  64.932  0.00  0.00    +0.058 A 
ATOM      6 CL   UNL     1     -10.789  10.998  63.842  0.00  0.00    -0.082 Cl
ATOM      7  C   UNL     1     -11.346  11.929  66.272  0.00  0.00    +0.011 A 
ATOM      8  C   UNL     1     -11.813  12.840  67.178  0.00  0.00    +0.001 A 
ATOM      9  C   UNL     1     -11.775  14.170  66.852  0.00  0.00    +0.003 A 
ENDBRANCH   1   3
BRANCH   1  11
ATOM     10  C   UNL     1      -8.726  15.703  66.153  0.00  0.00    +0.027 C 
ATOM     11  C   UNL     1     -10.091  16.437  66.706  0.00  0.00    +0.134 C 
BRANCH  11  12
ATOM     12  N   UNL     1      -9.711  17.808  66.030  0.00  0.00    -0.214 NA
BRANCH  12  13
ATOM     13  C   UNL     1      -9.570  18.755  67.107  0.00  0.00    +0.060 C 
ATOM     14  C   UNL     1      -8.155  19.236  67.288  0.00  0.00    +0.017 C 
ATOM     15  C   UNL     1     -10.130  18.154  68.386  0.00  0.00    +0.017 C 
ATOM     16  C   UNL     1     -10.399  19.972  66.714  0.00  0.00    +0.017 C 
ENDBRANCH  12  13
ENDBRANCH  11  12
ENDBRANCH   1  11
TORSDOF 4
ENDMDL
MODEL 6
REMARK VINA RESULT:      -5.2      3.183      5.796
REMARK  Name = 
REMARK  4 active torsions:
REMARK  status: ('A' for Active; 'I' for Inactive)
REMARK    1  A    between atoms: C_2  and  N_3
REMARK    2  A    between atoms: C_2  and  C_8
REMARK    3  A    between atoms: N_3  and  C_4
REMARK    4  A    between atoms: C_8  and  C_10
REMARK                            x       y       z     vdW  Elec       q    Type
REMARK                         _______ _______ _______ _____ _____    ______ ____
ROOT
ATOM      1  C   UNL     1     -11.684  12.313  69.110  0.00  0.00    +0.189 C 
ATOM      2  O   UNL     1     -11.829  11.315  69.807  0.00  0.00    -0.290 OA
ENDROOT
BRANCH   1   3
ATOM      3  C   UNL     1     -11.926  13.686  69.532  0.00  0.00    +0.037 A 
ATOM      4  C   UNL     1     -12.759  13.967  70.607  0.00  0.00    +0.014 A 
ATOM      5  C   UNL     1     -12.809  15.243  71.123  0.00  0.00    +0.058 A 
ATOM      6 CL   UNL     1     -13.837  15.674  72.486  0.00  0.00    -0.082 Cl
ATOM      7  C   UNL     1     -11.645  15.992  71.011  0.00  0.00    +0.011 A 
ATOM      8  C   UNL     1     -10.835  15.793  69.928  0.00  0.00    +0.001 A 
ATOM      9  C   UNL     1     -10.927  14.608  69.247  0.00  0.00    +0.003 A 
ENDBRANCH   1   3
BRANCH   1  11
ATOM     10  C   UNL     1     -10.488  10.611  67.969  0.00  0.00    +0.027 C 
ATOM     11  C   UNL     1     -10.710  12.235  67.831  0.00  0.00    +0.134 C 
BRANCH  11  12
ATOM     12  N   UNL     1     -11.914  12.054  66.830  0.00  0.00    -0.214 NA
BRANCH  12  13
ATOM     13  C   UNL     1     -11.650  12.945  65.729  0.00  0.00    +0.060 C 
ATOM     14  C   UNL     1     -10.251  13.499  65.741  0.00  0.00    +0.017 C 
ATOM     15  C   UNL     1     -12.695  14.049  65.709  0.00  0.00    +0.017 C 
ATOM     16  C   UNL     1     -11.778  12.105  64.463  0.00  0.00    +0.017 C 
ENDBRANCH  12  13
ENDBRANCH  11  12
ENDBRANCH   1  11
TORSDOF 4
ENDMDL
MODEL 7
REMARK VINA RESULT:      -5.1      3.779      6.013
REMARK  Name = 
REMARK  4 active torsions:
REMARK  status: ('A' for Active; 'I' for Inactive)
REMARK    1  A    between atoms: C_2  and  N_3
REMARK    2  A    between atoms: C_2  and  C_8
REMARK    3  A    between atoms: N_3  and  C_4
REMARK    4  A    between atoms: C_8  and  C_10
REMARK                            x       y       z     vdW  Elec       q    Type
REMARK                         _______ _______ _______ _____ _____    ______ ____
ROOT
ATOM      1  C   UNL     1     -11.846  14.093  64.823  0.00  0.00    +0.189 C 
ATOM      2  O   UNL     1     -12.583  14.638  64.010  0.00  0.00    -0.290 OA
ENDROOT
BRANCH   1   3
ATOM      3  C   UNL     1     -11.128  14.762  65.900  0.00  0.00    +0.037 A 
ATOM      4  C   UNL     1     -10.312  15.856  65.644  0.00  0.00    +0.014 A 
ATOM      5  C   UNL     1      -9.814  16.602  66.689  0.00  0.00    +0.058 A 
ATOM      6 CL   UNL     1      -8.777  18.004  66.443  0.00  0.00    -0.082 Cl
ATOM      7  C   UNL     1     -10.602  16.654  67.831  0.00  0.00    +0.011 A 
ATOM      8  C   UNL     1     -11.367  15.567  68.155  0.00  0.00    +0.001 A 
ATOM      9  C   UNL     1     -11.690  14.674  67.168  0.00  0.00    +0.003 A 
ENDBRANCH   1   3
BRANCH   1  11
ATOM     10  C   UNL     1     -12.396  12.181  63.532  0.00  0.00    +0.027 C 
ATOM     11  C   UNL     1     -12.016  12.516  65.097  0.00  0.00    +0.134 C 
BRANCH  11  12
ATOM     12  N   UNL     1     -10.485  12.231  64.858  0.00  0.00    -0.214 NA
BRANCH  12  13
ATOM     13  C   UNL     1     -10.093  11.298  65.883  0.00  0.00    +0.060 C 
ATOM     14  C   UNL     1     -11.156  11.088  66.928  0.00  0.00    +0.017 C 
ATOM     15  C   UNL     1      -8.777  11.746  66.500  0.00  0.00    +0.017 C 
ATOM     16  C   UNL     1      -9.893   9.958  65.184  0.00  0.00    +0.017 C 
ENDBRANCH  12  13
ENDBRANCH  11  12
ENDBRANCH   1  11
TORSDOF 4
ENDMDL
MODEL 8
REMARK VINA RESULT:      -5.1      3.241      5.854
REMARK  Name = 
REMARK  4 active torsions:
REMARK  status: ('A' for Active; 'I' for Inactive)
REMARK    1  A    between atoms: C_2  and  N_3
REMARK    2  A    between atoms: C_2  and  C_8
REMARK    3  A    between atoms: N_3  and  C_4
REMARK    4  A    between atoms: C_8  and  C_10
REMARK                            x       y       z     vdW  Elec       q    Type
REMARK                         _______ _______ _______ _____ _____    ______ ____
ROOT
ATOM      1  C   UNL     1     -11.702  11.566  68.319  0.00  0.00    +0.189 C 
ATOM      2  O   UNL     1     -11.778  10.368  68.073  0.00  0.00    -0.290 OA
ENDROOT
BRANCH   1   3
ATOM      3  C   UNL     1     -11.871  12.175  69.632  0.00  0.00    +0.037 A 
ATOM      4  C   UNL     1     -12.046  13.546  69.766  0.00  0.00    +0.014 A 
ATOM      5  C   UNL     1     -12.414  14.076  70.983  0.00  0.00    +0.058 A 
ATOM      6 CL   UNL     1     -12.658  15.802  71.229  0.00  0.00    -0.082 Cl
ATOM      7  C   UNL     1     -13.185  13.257  71.797  0.00  0.00    +0.011 A 
ATOM      8  C   UNL     1     -12.991  11.904  71.744  0.00  0.00    +0.001 A 
ATOM      9  C   UNL     1     -12.409  11.367  70.626  0.00  0.00    +0.003 A 
ENDBRANCH   1   3
BRANCH   1  11
ATOM     10  C   UNL     1      -9.586  11.519  67.248  0.00  0.00    +0.027 C 
ATOM     11  C   UNL     1     -10.891  12.520  67.309  0.00  0.00    +0.134 C 
BRANCH  11  12
ATOM     12  N   UNL     1     -11.544  11.858  66.037  0.00  0.00    -0.214 NA
BRANCH  12  13
ATOM     13  C   UNL     1     -11.762  12.931  65.101  0.00  0.00    +0.060 C 
ATOM     14  C   UNL     1     -10.491  13.629  64.697  0.00  0.00    +0.017 C 
ATOM     15  C   UNL     1     -12.782  13.902  65.672  0.00  0.00    +0.017 C 
ATOM     16  C   UNL     1     -12.327  12.287  63.840  0.00  0.00    +0.017 C 
ENDBRANCH  12  13
ENDBRANCH  11  12
ENDBRANCH   1  11
TORSDOF 4
ENDMDL
MODEL 9
REMARK VINA RESULT:      -5.1      2.714      5.457
REMARK  Name = 
REMARK  4 active torsions:
REMARK  status: ('A' for Active; 'I' for Inactive)
REMARK    1  A    between atoms: C_2  and  N_3
REMARK    2  A    between atoms: C_2  and  C_8
REMARK    3  A    between atoms: N_3  and  C_4
REMARK    4  A    between atoms: C_8  and  C_10
REMARK                            x       y       z     vdW  Elec       q    Type
REMARK                         _______ _______ _______ _____ _____    ______ ____
ROOT
ATOM      1  C   UNL     1     -10.861  15.008  69.091  0.00  0.00    +0.189 C 
ATOM      2  O   UNL     1      -9.831  15.516  69.517  0.00  0.00    -0.290 OA
ENDROOT
BRANCH   1   3
ATOM      3  C   UNL     1     -11.992  14.575  69.900  0.00  0.00    +0.037 A 
ATOM      4  C   UNL     1     -12.083  13.269  70.362  0.00  0.00    +0.014 A 
ATOM      5  C   UNL     1     -13.040  12.934  71.294  0.00  0.00    +0.058 A 
ATOM      6 CL   UNL     1     -13.212  11.301  71.930  0.00  0.00    -0.082 Cl
ATOM      7  C   UNL     1     -13.416  13.943  72.172  0.00  0.00    +0.011 A 
ATOM      8  C   UNL     1     -13.407  15.237  71.730  0.00  0.00    +0.001 A 
ATOM      9  C   UNL     1     -12.632  15.557  70.647  0.00  0.00    +0.003 A 
ENDBRANCH   1   3
BRANCH   1  11
ATOM     10  C   UNL     1     -10.070  16.345  67.298  0.00  0.00    +0.027 C 
ATOM     11  C   UNL     1     -11.275  15.254  67.555  0.00  0.00    +0.134 C 
BRANCH  11  12
ATOM     12  N   UNL     1     -10.391  14.054  67.044  0.00  0.00    -0.214 NA
BRANCH  12  13
ATOM     13  C   UNL     1     -11.230  13.298  66.149  0.00  0.00    +0.060 C 
ATOM     14  C   UNL     1     -12.568  13.944  65.909  0.00  0.00    +0.017 C 
ATOM     15  C   UNL     1     -11.373  11.877  66.668  0.00  0.00    +0.017 C 
ATOM     16  C   UNL     1     -10.507  13.276  64.807  0.00  0.00    +0.017 C 
ENDBRANCH  12  13
ENDBRANCH  11  12
ENDBRANCH   1  11
TORSDOF 4
ENDMDL
