MODEL 1
REMARK VINA RESULT:      -6.5      0.000      0.000
REMARK  Name = 
REMARK  5 active torsions:
REMARK  status: ('A' for Active; 'I' for Inactive)
REMARK    1  A    between atoms: C_6  and  O_7
REMARK    2  A    between atoms: O_7  and  C_8
REMARK    3  A    between atoms: C_8  and  C_10
REMARK    4  A    between atoms: C_10  and  C_12
REMARK    5  A    between atoms: C_10  and  C_18
REMARK                            x       y       z     vdW  Elec       q    Type
REMARK                         _______ _______ _______ _____ _____    ______ ____
ROOT
ATOM      1  C   UNL     1     -10.058  15.633  67.225  0.00  0.00    +0.233 C 
ATOM      2  O   UNL     1      -8.770  15.359  66.743  0.00  0.00    -0.210 OA
ENDROOT
BRANCH   1   3
ATOM      3  C   UNL     1     -10.207  17.078  67.483  0.00  0.00    +0.015 A 
ATOM      4  C   UNL     1     -10.497  17.885  66.396  0.00  0.00    -0.001 A 
ATOM      5  C   UNL     1     -10.536  19.236  66.596  0.00  0.00    -0.000 A 
ATOM      6  C   UNL     1     -10.183  19.801  67.803  0.00  0.00    -0.000 A 
ATOM      7  C   UNL     1      -9.528  18.981  68.706  0.00  0.00    -0.000 A 
ATOM      8  C   UNL     1      -9.392  17.643  68.451  0.00  0.00    -0.001 A 
ENDBRANCH   1   3
BRANCH   1   9
ATOM      9  C   UNL     1     -11.028  15.170  66.182  0.00  0.00    +0.043 C 
ATOM     10  C   UNL     1     -12.097  14.256  66.664  0.00  0.00    +0.003 C 
ATOM     11  C   UNL     1     -11.892  12.959  65.922  0.00  0.00    +0.000 C 
ATOM     12  C   UNL     1     -10.536  13.047  65.281  0.00  0.00    +0.000 C 
ATOM     13  C   UNL     1     -10.339  14.509  65.005  0.00  0.00    +0.003 C 
ENDBRANCH   1   9
BRANCH   1  14
ATOM     14  C   UNL     1     -10.346  14.836  68.460  0.00  0.00    +0.349 C 
ATOM     15  O   UNL     1      -9.592  13.860  68.762  0.00  0.00    -0.247 OA
BRANCH  14  16
ATOM     16  O   UNL     1     -11.314  15.334  69.310  0.00  0.00    -0.444 OA
BRANCH  16  20
ATOM     17  C   UNL     1     -13.304  14.111  72.455  0.00  0.00    +0.171 C 
ATOM     18  N   UNL     1     -13.326  14.602  71.915  0.00  0.00    +0.309 N 
ATOM     19  C   UNL     1     -12.791  14.210  70.655  0.00  0.00    +0.153 C 
ATOM     20  C   UNL     1     -11.261  14.815  70.759  0.00  0.00    +0.229 C 
ATOM     21  C   UNL     1     -11.781  16.268  71.349  0.00  0.00    +0.111 C 
ATOM     22  C   UNL     1     -12.593  15.684  72.454  0.00  0.00    +0.113 C 
ATOM     23  C   UNL     1     -14.688  15.039  71.622  0.00  0.00    +0.171 C 
ENDBRANCH  16  20
ENDBRANCH  14  16
ENDBRANCH   1  14
TORSDOF 5
ENDMDL
MODEL 2
REMARK VINA RESULT:      -6.4      1.331      3.659
REMARK  Name = 
REMARK  5 active torsions:
REMARK  status: ('A' for Active; 'I' for Inactive)
REMARK    1  A    between atoms: C_6  and  O_7
REMARK    2  A    between atoms: O_7  and  C_8
REMARK    3  A    between atoms: C_8  and  C_10
REMARK    4  A    between atoms: C_10  and  C_12
REMARK    5  A    between atoms: C_10  and  C_18
REMARK                            x       y       z     vdW  Elec       q    Type
REMARK                         _______ _______ _______ _____ _____    ______ ____
ROOT
ATOM      1  C   UNL     1     -10.091  16.760  68.063  0.00  0.00    +0.233 C 
ATOM      2  O   UNL     1     -11.208  17.605  67.985  0.00  0.00    -0.210 OA
ENDROOT
BRANCH   1   3
ATOM      3  C   UNL     1     -10.071  15.837  66.912  0.00  0.00    +0.015 A 
ATOM      4  C   UNL     1     -10.878  16.157  65.834  0.00  0.00    -0.001 A 
ATOM      5  C   UNL     1     -10.952  15.264  64.803  0.00  0.00    -0.000 A 
ATOM      6  C   UNL     1     -10.347  14.028  64.871  0.00  0.00    -0.000 A 
ATOM      7  C   UNL     1      -9.902  13.620  66.117  0.00  0.00    -0.000 A 
ATOM      8  C   UNL     1      -9.931  14.485  67.178  0.00  0.00    -0.001 A 
ENDBRANCH   1   3
BRANCH   1   9
ATOM      9  C   UNL     1      -8.876  17.635  68.073  0.00  0.00    +0.043 C 
ATOM     10  C   UNL     1      -9.075  19.000  68.629  0.00  0.00    +0.003 C 
ATOM     11  C   UNL     1      -8.783  19.950  67.495  0.00  0.00    +0.000 C 
ATOM     12  C   UNL     1      -8.738  19.118  66.245  0.00  0.00    +0.000 C 
ATOM     13  C   UNL     1      -8.250  17.772  66.700  0.00  0.00    +0.003 C 
ENDBRANCH   1   9
BRANCH   1  14
ATOM     14  C   UNL     1     -10.085  16.004  69.356  0.00  0.00    +0.349 C 
ATOM     15  O   UNL     1      -9.007  15.468  69.760  0.00  0.00    -0.247 OA
BRANCH  14  16
ATOM     16  O   UNL     1     -11.221  16.095  70.136  0.00  0.00    -0.444 OA
BRANCH  16  20
ATOM     17  C   UNL     1     -13.584  13.758  72.208  0.00  0.00    +0.171 C 
ATOM     18  N   UNL     1     -13.550  14.424  71.911  0.00  0.00    +0.309 N 
ATOM     19  C   UNL     1     -12.826  14.557  70.691  0.00  0.00    +0.153 C 
ATOM     20  C   UNL     1     -11.353  15.040  71.250  0.00  0.00    +0.229 C 
ATOM     21  C   UNL     1     -12.010  16.147  72.286  0.00  0.00    +0.111 C 
ATOM     22  C   UNL     1     -12.946  15.186  72.936  0.00  0.00    +0.113 C 
ATOM     23  C   UNL     1     -14.874  14.968  71.620  0.00  0.00    +0.171 C 
ENDBRANCH  16  20
ENDBRANCH  14  16
ENDBRANCH   1  14
TORSDOF 5
ENDMDL
MODEL 3
REMARK VINA RESULT:      -6.4      2.164      3.168
REMARK  Name = 
REMARK  5 active torsions:
REMARK  status: ('A' for Active; 'I' for Inactive)
REMARK    1  A    between atoms: C_6  and  O_7
REMARK    2  A    between atoms: O_7  and  C_8
REMARK    3  A    between atoms: C_8  and  C_10
REMARK    4  A    between atoms: C_10  and  C_12
REMARK    5  A    between atoms: C_10  and  C_18
REMARK                            x       y       z     vdW  Elec       q    Type
REMARK                         _______ _______ _______ _____ _____    ______ ____
ROOT
ATOM      1  C   UNL     1     -10.701  14.340  67.697  0.00  0.00    +0.233 C 
ATOM      2  O   UNL     1     -11.263  13.097  68.024  0.00  0.00    -0.210 OA
ENDROOT
BRANCH   1   3
ATOM      3  C   UNL     1      -9.232  14.226  67.611  0.00  0.00    +0.015 A 
ATOM      4  C   UNL     1      -8.682  12.980  67.858  0.00  0.00    -0.001 A 
ATOM      5  C   UNL     1      -7.320  12.876  67.885  0.00  0.00    -0.000 A 
ATOM      6  C   UNL     1      -6.507  13.985  67.792  0.00  0.00    -0.000 A 
ATOM      7  C   UNL     1      -7.116  15.219  67.949  0.00  0.00    -0.000 A 
ATOM      8  C   UNL     1      -8.480  15.310  68.033  0.00  0.00    -0.001 A 
ENDBRANCH   1   3
BRANCH   1   9
ATOM      9  C   UNL     1     -11.286  14.757  66.383  0.00  0.00    +0.043 C 
ATOM     10  C   UNL     1     -12.496  14.005  65.955  0.00  0.00    +0.003 C 
ATOM     11  C   UNL     1     -12.114  13.314  64.670  0.00  0.00    +0.000 C 
ATOM     12  C   UNL     1     -10.619  13.419  64.560  0.00  0.00    +0.000 C 
ATOM     13  C   UNL     1     -10.275  14.704  65.256  0.00  0.00    +0.003 C 
ENDBRANCH   1   9
BRANCH   1  14
ATOM     14  C   UNL     1     -11.100  15.384  68.694  0.00  0.00    +0.349 C 
ATOM     15  O   UNL     1     -11.346  16.564  68.296  0.00  0.00    -0.247 OA
BRANCH  14  16
ATOM     16  O   UNL     1     -11.362  14.950  69.979  0.00  0.00    -0.444 OA
BRANCH  16  20
ATOM     17  C   UNL     1     -13.748  15.789  72.970  0.00  0.00    +0.171 C 
ATOM     18  N   UNL     1     -13.136  15.425  72.806  0.00  0.00    +0.309 N 
ATOM     19  C   UNL     1     -12.298  15.982  71.798  0.00  0.00    +0.153 C 
ATOM     20  C   UNL     1     -12.808  15.151  70.469  0.00  0.00    +0.229 C 
ATOM     21  C   UNL     1     -12.793  13.701  71.260  0.00  0.00    +0.111 C 
ATOM     22  C   UNL     1     -13.627  14.162  72.406  0.00  0.00    +0.113 C 
ATOM     23  C   UNL     1     -12.265  15.261  73.966  0.00  0.00    +0.171 C 
ENDBRANCH  16  20
ENDBRANCH  14  16
ENDBRANCH   1  14
TORSDOF 5
ENDMDL
MODEL 4
REMARK VINA RESULT:      -6.3      1.821      4.333
REMARK  Name = 
REMARK  5 active torsions:
REMARK  status: ('A' for Active; 'I' for Inactive)
REMARK    1  A    between atoms: C_6  and  O_7
REMARK    2  A    between atoms: O_7  and  C_8
REMARK    3  A    between atoms: C_8  and  C_10
REMARK    4  A    between atoms: C_10  and  C_12
REMARK    5  A    between atoms: C_10  and  C_18
REMARK                            x       y       z     vdW  Elec       q    Type
REMARK                         _______ _______ _______ _____ _____    ______ ____
ROOT
ATOM      1  C   UNL     1     -10.176  15.119  67.739  0.00  0.00    +0.233 C 
ATOM      2  O   UNL     1     -10.662  15.464  66.469  0.00  0.00    -0.210 OA
ENDROOT
BRANCH   1   3
ATOM      3  C   UNL     1     -10.406  13.684  67.998  0.00  0.00    +0.015 A 
ATOM      4  C   UNL     1      -9.286  12.884  68.148  0.00  0.00    -0.001 A 
ATOM      5  C   UNL     1      -9.475  11.539  68.285  0.00  0.00    -0.000 A 
ATOM      6  C   UNL     1     -10.722  10.965  68.160  0.00  0.00    -0.000 A 
ATOM      7  C   UNL     1     -11.720  11.759  67.620  0.00  0.00    -0.000 A 
ATOM      8  C   UNL     1     -11.492  13.087  67.379  0.00  0.00    -0.001 A 
ENDBRANCH   1   3
BRANCH   1   9
ATOM      9  C   UNL     1      -8.714  15.442  67.755  0.00  0.00    +0.043 C 
ATOM     10  C   UNL     1      -8.268  16.330  68.862  0.00  0.00    +0.003 C 
ATOM     11  C   UNL     1      -7.732  17.573  68.197  0.00  0.00    +0.000 C 
ATOM     12  C   UNL     1      -8.171  17.510  66.762  0.00  0.00    +0.000 C 
ATOM     13  C   UNL     1      -8.241  16.044  66.448  0.00  0.00    +0.003 C 
ENDBRANCH   1   9
BRANCH   1  14
ATOM     14  C   UNL     1     -10.813  15.963  68.801  0.00  0.00    +0.349 C 
ATOM     15  O   UNL     1     -11.182  17.144  68.520  0.00  0.00    -0.247 OA
BRANCH  14  16
ATOM     16  O   UNL     1     -11.137  15.332  69.986  0.00  0.00    -0.444 OA
BRANCH  16  20
ATOM     17  C   UNL     1     -13.733  15.733  72.892  0.00  0.00    +0.171 C 
ATOM     18  N   UNL     1     -13.093  15.418  72.730  0.00  0.00    +0.309 N 
ATOM     19  C   UNL     1     -12.229  16.118  71.841  0.00  0.00    +0.153 C 
ATOM     20  C   UNL     1     -12.617  15.413  70.403  0.00  0.00    +0.229 C 
ATOM     21  C   UNL     1     -12.572  13.888  71.036  0.00  0.00    +0.111 C 
ATOM     22  C   UNL     1     -13.494  14.184  72.170  0.00  0.00    +0.113 C 
ATOM     23  C   UNL     1     -12.284  15.169  73.919  0.00  0.00    +0.171 C 
ENDBRANCH  16  20
ENDBRANCH  14  16
ENDBRANCH   1  14
TORSDOF 5
ENDMDL
MODEL 5
REMARK VINA RESULT:      -6.3      1.826      3.680
REMARK  Name = 
REMARK  5 active torsions:
REMARK  status: ('A' for Active; 'I' for Inactive)
REMARK    1  A    between atoms: C_6  and  O_7
REMARK    2  A    between atoms: O_7  and  C_8
REMARK    3  A    between atoms: C_8  and  C_10
REMARK    4  A    between atoms: C_10  and  C_12
REMARK    5  A    between atoms: C_10  and  C_18
REMARK                            x       y       z     vdW  Elec       q    Type
REMARK                         _______ _______ _______ _____ _____    ______ ____
ROOT
ATOM      1  C   UNL     1      -9.666  15.485  67.994  0.00  0.00    +0.233 C 
ATOM      2  O   UNL     1      -8.767  16.402  67.431  0.00  0.00    -0.210 OA
ENDROOT
BRANCH   1   3
ATOM      3  C   UNL     1     -10.384  14.759  66.928  0.00  0.00    +0.015 A 
ATOM      4  C   UNL     1     -10.157  15.168  65.625  0.00  0.00    -0.001 A 
ATOM      5  C   UNL     1     -10.889  14.578  64.634  0.00  0.00    -0.000 A 
ATOM      6  C   UNL     1     -11.907  13.693  64.913  0.00  0.00    -0.000 A 
ATOM      7  C   UNL     1     -12.340  13.636  66.227  0.00  0.00    -0.000 A 
ATOM      8  C   UNL     1     -11.668  14.319  67.205  0.00  0.00    -0.001 A 
ENDBRANCH   1   3
BRANCH   1   9
ATOM      9  C   UNL     1      -8.866  14.544  68.841  0.00  0.00    +0.043 C 
ATOM     10  C   UNL     1      -7.593  15.094  69.378  0.00  0.00    +0.003 C 
ATOM     11  C   UNL     1      -6.498  14.242  68.786  0.00  0.00    +0.000 C 
ATOM     12  C   UNL     1      -7.133  13.441  67.685  0.00  0.00    +0.000 C 
ATOM     13  C   UNL     1      -8.555  13.245  68.126  0.00  0.00    +0.003 C 
ENDBRANCH   1   9
BRANCH   1  14
ATOM     14  C   UNL     1     -10.628  16.176  68.912  0.00  0.00    +0.349 C 
ATOM     15  O   UNL     1     -11.190  17.249  68.533  0.00  0.00    -0.247 OA
BRANCH  14  16
ATOM     16  O   UNL     1     -10.993  15.494  70.057  0.00  0.00    -0.444 OA
BRANCH  16  20
ATOM     17  C   UNL     1     -13.686  15.752  72.890  0.00  0.00    +0.171 C 
ATOM     18  N   UNL     1     -13.043  15.441  72.732  0.00  0.00    +0.309 N 
ATOM     19  C   UNL     1     -12.144  16.183  71.915  0.00  0.00    +0.153 C 
ATOM     20  C   UNL     1     -12.487  15.564  70.426  0.00  0.00    +0.229 C 
ATOM     21  C   UNL     1     -12.474  14.005  70.973  0.00  0.00    +0.111 C 
ATOM     22  C   UNL     1     -13.432  14.244  72.090  0.00  0.00    +0.113 C 
ATOM     23  C   UNL     1     -12.277  15.119  73.933  0.00  0.00    +0.171 C 
ENDBRANCH  16  20
ENDBRANCH  14  16
ENDBRANCH   1  14
TORSDOF 5
ENDMDL
MODEL 6
REMARK VINA RESULT:      -6.2      1.611      2.314
REMARK  Name = 
REMARK  5 active torsions:
REMARK  status: ('A' for Active; 'I' for Inactive)
REMARK    1  A    between atoms: C_6  and  O_7
REMARK    2  A    between atoms: O_7  and  C_8
REMARK    3  A    between atoms: C_8  and  C_10
REMARK    4  A    between atoms: C_10  and  C_12
REMARK    5  A    between atoms: C_10  and  C_18
REMARK                            x       y       z     vdW  Elec       q    Type
REMARK                         _______ _______ _______ _____ _____    ______ ____
ROOT
ATOM      1  C   UNL     1      -9.891  15.961  68.246  0.00  0.00    +0.233 C 
ATOM      2  O   UNL     1      -9.055  15.969  69.372  0.00  0.00    -0.210 OA
ENDROOT
BRANCH   1   3
ATOM      3  C   UNL     1     -10.185  17.344  67.822  0.00  0.00    +0.015 A 
ATOM      4  C   UNL     1     -10.261  17.582  66.460  0.00  0.00    -0.001 A 
ATOM      5  C   UNL     1     -10.430  18.873  66.047  0.00  0.00    -0.000 A 
ATOM      6  C   UNL     1     -10.407  19.928  66.933  0.00  0.00    -0.000 A 
ATOM      7  C   UNL     1      -9.934  19.660  68.207  0.00  0.00    -0.000 A 
ATOM      8  C   UNL     1      -9.659  18.373  68.585  0.00  0.00    -0.001 A 
ENDBRANCH   1   3
BRANCH   1   9
ATOM      9  C   UNL     1      -9.173  15.209  67.168  0.00  0.00    +0.043 C 
ATOM     10  C   UNL     1      -9.037  13.745  67.392  0.00  0.00    +0.003 C 
ATOM     11  C   UNL     1      -7.555  13.480  67.475  0.00  0.00    +0.000 C 
ATOM     12  C   UNL     1      -6.891  14.820  67.619  0.00  0.00    +0.000 C 
ATOM     13  C   UNL     1      -7.794  15.773  66.890  0.00  0.00    +0.003 C 
ENDBRANCH   1   9
BRANCH   1  14
ATOM     14  C   UNL     1     -11.154  15.206  68.525  0.00  0.00    +0.349 C 
ATOM     15  O   UNL     1     -11.863  14.795  67.555  0.00  0.00    -0.247 OA
BRANCH  14  16
ATOM     16  O   UNL     1     -11.379  14.833  69.836  0.00  0.00    -0.444 OA
BRANCH  16  20
ATOM     17  C   UNL     1     -13.795  15.674  72.802  0.00  0.00    +0.171 C 
ATOM     18  N   UNL     1     -13.161  15.342  72.652  0.00  0.00    +0.309 N 
ATOM     19  C   UNL     1     -12.366  15.897  71.609  0.00  0.00    +0.153 C 
ATOM     20  C   UNL     1     -12.832  14.968  70.329  0.00  0.00    +0.229 C 
ATOM     21  C   UNL     1     -12.720  13.565  71.193  0.00  0.00    +0.111 C 
ATOM     22  C   UNL     1     -13.574  14.031  72.322  0.00  0.00    +0.113 C 
ATOM     23  C   UNL     1     -12.275  15.293  73.811  0.00  0.00    +0.171 C 
ENDBRANCH  16  20
ENDBRANCH  14  16
ENDBRANCH   1  14
TORSDOF 5
ENDMDL
MODEL 7
REMARK VINA RESULT:      -6.2      3.193      5.587
REMARK  Name = 
REMARK  5 active torsions:
REMARK  status: ('A' for Active; 'I' for Inactive)
REMARK    1  A    between atoms: C_6  and  O_7
REMARK    2  A    between atoms: O_7  and  C_8
REMARK    3  A    between atoms: C_8  and  C_10
REMARK    4  A    between atoms: C_10  and  C_12
REMARK    5  A    between atoms: C_10  and  C_18
REMARK                            x       y       z     vdW  Elec       q    Type
REMARK                         _______ _______ _______ _____ _____    ______ ____
ROOT
ATOM      1  C   UNL     1      -9.596  17.011  67.324  0.00  0.00    +0.233 C 
ATOM      2  O   UNL     1      -9.418  17.294  65.962  0.00  0.00    -0.210 OA
ENDROOT
BRANCH   1   3
ATOM      3  C   UNL     1      -8.356  16.446  67.891  0.00  0.00    +0.015 A 
ATOM      4  C   UNL     1      -7.342  16.134  67.002  0.00  0.00    -0.001 A 
ATOM      5  C   UNL     1      -6.228  15.515  67.494  0.00  0.00    -0.000 A 
ATOM      6  C   UNL     1      -6.150  15.099  68.806  0.00  0.00    -0.000 A 
ATOM      7  C   UNL     1      -7.333  15.081  69.525  0.00  0.00    -0.000 A 
ATOM      8  C   UNL     1      -8.477  15.603  68.984  0.00  0.00    -0.001 A 
ENDBRANCH   1   3
BRANCH   1   9
ATOM      9  C   UNL     1      -9.959  18.297  67.998  0.00  0.00    +0.043 C 
ATOM     10  C   UNL     1     -10.709  19.269  67.159  0.00  0.00    +0.003 C 
ATOM     11  C   UNL     1      -9.824  20.487  67.055  0.00  0.00    +0.000 C 
ATOM     12  C   UNL     1      -8.471  20.072  67.558  0.00  0.00    +0.000 C 
ATOM     13  C   UNL     1      -8.752  19.007  68.578  0.00  0.00    +0.003 C 
ENDBRANCH   1   9
BRANCH   1  14
ATOM     14  C   UNL     1     -10.751  16.079  67.528  0.00  0.00    +0.349 C 
ATOM     15  O   UNL     1     -11.448  16.173  68.585  0.00  0.00    -0.247 OA
BRANCH  14  16
ATOM     16  O   UNL     1     -11.110  15.288  66.454  0.00  0.00    -0.444 OA
BRANCH  16  20
ATOM     17  C   UNL     1     -10.413  12.053  64.358  0.00  0.00    +0.171 C 
ATOM     18  N   UNL     1     -10.938  12.538  64.511  0.00  0.00    +0.309 N 
ATOM     19  C   UNL     1     -10.536  13.885  64.735  0.00  0.00    +0.153 C 
ATOM     20  C   UNL     1     -10.422  13.912  66.379  0.00  0.00    +0.229 C 
ATOM     21  C   UNL     1     -11.861  13.128  66.580  0.00  0.00    +0.111 C 
ATOM     22  C   UNL     1     -11.526  11.992  65.675  0.00  0.00    +0.113 C 
ATOM     23  C   UNL     1     -11.942  12.619  63.454  0.00  0.00    +0.171 C 
ENDBRANCH  16  20
ENDBRANCH  14  16
ENDBRANCH   1  14
TORSDOF 5
ENDMDL
MODEL 8
REMARK VINA RESULT:      -6.2      1.833      2.366
REMARK  Name = 
REMARK  5 active torsions:
REMARK  status: ('A' for Active; 'I' for Inactive)
REMARK    1  A    between atoms: C_6  and  O_7
REMARK    2  A    between atoms: O_7  and  C_8
REMARK    3  A    between atoms: C_8  and  C_10
REMARK    4  A    between atoms: C_10  and  C_12
REMARK    5  A    between atoms: C_10  and  C_18
REMARK                            x       y       z     vdW  Elec       q    Type
REMARK                         _______ _______ _______ _____ _____    ______ ____
ROOT
ATOM      1  C   UNL     1      -9.334  15.594  68.393  0.00  0.00    +0.233 C 
ATOM      2  O   UNL     1      -8.510  14.880  69.276  0.00  0.00    -0.210 OA
ENDROOT
BRANCH   1   3
ATOM      3  C   UNL     1      -8.584  16.714  67.792  0.00  0.00    +0.015 A 
ATOM      4  C   UNL     1      -8.141  16.548  66.491  0.00  0.00    -0.001 A 
ATOM      5  C   UNL     1      -7.358  17.530  65.953  0.00  0.00    -0.000 A 
ATOM      6  C   UNL     1      -6.914  18.597  66.704  0.00  0.00    -0.000 A 
ATOM      7  C   UNL     1      -7.058  18.493  68.078  0.00  0.00    -0.000 A 
ATOM      8  C   UNL     1      -7.751  17.446  68.622  0.00  0.00    -0.001 A 
ENDBRANCH   1   3
BRANCH   1   9
ATOM      9  C   UNL     1      -9.796  14.630  67.344  0.00  0.00    +0.043 C 
ATOM     10  C   UNL     1     -11.266  14.586  67.121  0.00  0.00    +0.003 C 
ATOM     11  C   UNL     1     -11.690  13.183  67.476  0.00  0.00    +0.000 C 
ATOM     12  C   UNL     1     -10.529  12.556  68.193  0.00  0.00    +0.000 C 
ATOM     13  C   UNL     1      -9.316  13.217  67.605  0.00  0.00    +0.003 C 
ENDBRANCH   1   9
BRANCH   1  14
ATOM     14  C   UNL     1     -10.563  16.087  69.093  0.00  0.00    +0.349 C 
ATOM     15  O   UNL     1     -11.249  17.017  68.568  0.00  0.00    -0.247 OA
BRANCH  14  16
ATOM     16  O   UNL     1     -10.988  15.362  70.189  0.00  0.00    -0.444 OA
BRANCH  16  20
ATOM     17  C   UNL     1     -13.735  15.802  72.946  0.00  0.00    +0.171 C 
ATOM     18  N   UNL     1     -13.095  15.474  72.819  0.00  0.00    +0.309 N 
ATOM     19  C   UNL     1     -12.167  16.160  71.985  0.00  0.00    +0.153 C 
ATOM     20  C   UNL     1     -12.488  15.472  70.522  0.00  0.00    +0.229 C 
ATOM     21  C   UNL     1     -12.511  13.943  71.147  0.00  0.00    +0.111 C 
ATOM     22  C   UNL     1     -13.489  14.253  72.228  0.00  0.00    +0.113 C 
ATOM     23  C   UNL     1     -12.359  15.202  74.050  0.00  0.00    +0.171 C 
ENDBRANCH  16  20
ENDBRANCH  14  16
ENDBRANCH   1  14
TORSDOF 5
ENDMDL
MODEL 9
REMARK VINA RESULT:      -6.0      2.138      5.626
REMARK  Name = 
REMARK  5 active torsions:
REMARK  status: ('A' for Active; 'I' for Inactive)
REMARK    1  A    between atoms: C_6  and  O_7
REMARK    2  A    between atoms: O_7  and  C_8
REMARK    3  A    between atoms: C_8  and  C_10
REMARK    4  A    between atoms: C_10  and  C_12
REMARK    5  A    between atoms: C_10  and  C_18
REMARK                            x       y       z     vdW  Elec       q    Type
REMARK                         _______ _______ _______ _____ _____    ______ ____
ROOT
ATOM      1  C   UNL     1     -10.713  14.137  68.258  0.00  0.00    +0.233 C 
ATOM      2  O   UNL     1     -10.267  12.936  68.828  0.00  0.00    -0.210 OA
ENDROOT
BRANCH   1   3
ATOM      3  C   UNL     1     -10.972  13.950  66.817  0.00  0.00    +0.015 A 
ATOM      4  C   UNL     1     -12.291  14.002  66.402  0.00  0.00    -0.001 A 
ATOM      5  C   UNL     1     -12.560  13.729  65.091  0.00  0.00    -0.000 A 
ATOM      6  C   UNL     1     -11.579  13.297  64.224  0.00  0.00    -0.000 A 
ATOM      7  C   UNL     1     -10.384  12.888  64.791  0.00  0.00    -0.000 A 
ATOM      8  C   UNL     1     -10.160  13.062  66.130  0.00  0.00    -0.001 A 
ENDBRANCH   1   3
BRANCH   1   9
ATOM      9  C   UNL     1     -11.963  14.533  68.982  0.00  0.00    +0.043 C 
ATOM     10  C   UNL     1     -12.005  15.940  69.462  0.00  0.00    +0.003 C 
ATOM     11  C   UNL     1     -12.101  15.857  70.964  0.00  0.00    +0.000 C 
ATOM     12  C   UNL     1     -11.789  14.434  71.332  0.00  0.00    +0.000 C 
ATOM     13  C   UNL     1     -12.262  13.625  70.158  0.00  0.00    +0.003 C 
ENDBRANCH   1   9
BRANCH   1  14
ATOM     14  C   UNL     1      -9.720  15.236  68.486  0.00  0.00    +0.349 C 
ATOM     15  O   UNL     1      -8.892  15.139  69.443  0.00  0.00    -0.247 OA
BRANCH  14  16
ATOM     16  O   UNL     1      -9.640  16.213  67.512  0.00  0.00    -0.444 OA
BRANCH  16  20
ATOM     17  C   UNL     1      -9.466  20.122  67.330  0.00  0.00    +0.171 C 
ATOM     18  N   UNL     1      -9.625  19.533  66.927  0.00  0.00    +0.309 N 
ATOM     19  C   UNL     1     -10.222  18.427  67.597  0.00  0.00    +0.153 C 
ATOM     20  C   UNL     1      -8.898  17.500  67.919  0.00  0.00    +0.229 C 
ATOM     21  C   UNL     1      -8.287  17.686  66.396  0.00  0.00    +0.111 C 
ATOM     22  C   UNL     1      -8.364  19.175  66.399  0.00  0.00    +0.113 C 
ATOM     23  C   UNL     1     -10.538  19.843  65.831  0.00  0.00    +0.171 C 
ENDBRANCH  16  20
ENDBRANCH  14  16
ENDBRANCH   1  14
TORSDOF 5
ENDMDL
