MODEL 1
REMARK VINA RESULT:      -7.0      0.000      0.000
REMARK  Name = 
REMARK  1 active torsions:
REMARK  status: ('A' for Active; 'I' for Inactive)
REMARK    1  A    between atoms: N_11  and  C_12
REMARK                            x       y       z     vdW  Elec       q    Type
REMARK                         _______ _______ _______ _____ _____    ______ ____
ROOT
ATOM      1  O   UNL     1      -9.460  14.441  67.366  0.00  0.00    -0.269 OA
ATOM      2  C   UNL     1      -9.981  14.594  66.347  0.00  0.00    +0.255 C 
ATOM      3  N   UNL     1     -10.193  15.831  65.751  0.00  0.00    -0.216 N 
ATOM      4  C   UNL     1     -11.120  15.619  64.676  0.00  0.00    +0.255 C 
ATOM      5  O   UNL     1     -11.652  16.487  63.924  0.00  0.00    -0.269 OA
ATOM      6  C   UNL     1     -11.214  14.177  64.408  0.00  0.00    +0.058 A 
ATOM      7  C   UNL     1     -12.233  13.384  63.887  0.00  0.00    +0.005 A 
ATOM      8  C   UNL     1     -11.894  12.053  63.671  0.00  0.00    +0.000 A 
ATOM      9  C   UNL     1     -10.727  11.539  64.223  0.00  0.00    +0.000 A 
ATOM     10  C   UNL     1     -10.093  12.249  65.238  0.00  0.00    +0.005 A 
ATOM     11  C   UNL     1     -10.282  13.619  65.279  0.00  0.00    +0.058 A 
ENDROOT
BRANCH   3  12
ATOM     12  C   UNL     1     -10.241  17.233  66.452  0.00  0.00    +0.162 C 
ATOM     13  C   UNL     1      -8.647  17.284  66.719  0.00  0.00    +0.266 C 
ATOM     14  O   UNL     1      -7.932  17.160  65.697  0.00  0.00    -0.271 OA
ATOM     15  N   UNL     1      -8.452  18.513  67.450  0.00  0.00    -0.143 NA
ATOM     16  C   UNL     1      -9.455  18.813  68.428  0.00  0.00    +0.248 C 
ATOM     17  O   UNL     1     -10.018  19.936  68.541  0.00  0.00    -0.273 OA
ATOM     18  C   UNL     1     -10.223  17.659  68.938  0.00  0.00    +0.089 C 
ATOM     19  C   UNL     1     -10.525  16.603  67.943  0.00  0.00    +0.039 C 
ENDBRANCH   3  12
TORSDOF 1
ENDMDL
MODEL 2
REMARK VINA RESULT:      -7.0      4.680      5.737
REMARK  Name = 
REMARK  1 active torsions:
REMARK  status: ('A' for Active; 'I' for Inactive)
REMARK    1  A    between atoms: N_11  and  C_12
REMARK                            x       y       z     vdW  Elec       q    Type
REMARK                         _______ _______ _______ _____ _____    ______ ____
ROOT
ATOM      1  O   UNL     1     -12.090  15.937  69.187  0.00  0.00    -0.269 OA
ATOM      2  C   UNL     1     -12.109  14.782  69.167  0.00  0.00    +0.255 C 
ATOM      3  N   UNL     1     -12.486  13.983  70.238  0.00  0.00    -0.216 N 
ATOM      4  C   UNL     1     -12.086  12.644  69.916  0.00  0.00    +0.255 C 
ATOM      5  O   UNL     1     -12.159  11.612  70.647  0.00  0.00    -0.269 OA
ATOM      6  C   UNL     1     -11.761  12.577  68.485  0.00  0.00    +0.058 A 
ATOM      7  C   UNL     1     -10.899  11.761  67.756  0.00  0.00    +0.005 A 
ATOM      8  C   UNL     1     -10.956  11.926  66.377  0.00  0.00    +0.000 A 
ATOM      9  C   UNL     1     -11.607  13.029  65.838  0.00  0.00    +0.000 A 
ATOM     10  C   UNL     1     -11.902  14.107  66.668  0.00  0.00    +0.005 A 
ATOM     11  C   UNL     1     -12.060  13.854  68.019  0.00  0.00    +0.058 A 
ENDROOT
BRANCH   3  12
ATOM     12  C   UNL     1     -12.494  14.367  71.759  0.00  0.00    +0.162 C 
ATOM     13  C   UNL     1     -13.874  15.205  71.661  0.00  0.00    +0.266 C 
ATOM     14  O   UNL     1     -14.853  14.565  71.209  0.00  0.00    -0.271 OA
ATOM     15  N   UNL     1     -14.057  15.737  72.989  0.00  0.00    -0.143 NA
ATOM     16  C   UNL     1     -12.867  16.197  73.638  0.00  0.00    +0.248 C 
ATOM     17  O   UNL     1     -12.546  15.897  74.821  0.00  0.00    -0.273 OA
ATOM     18  C   UNL     1     -11.748  16.565  72.747  0.00  0.00    +0.089 C 
ATOM     19  C   UNL     1     -11.593  15.723  71.537  0.00  0.00    +0.039 C 
ENDBRANCH   3  12
TORSDOF 1
ENDMDL
MODEL 3
REMARK VINA RESULT:      -7.0      1.999      5.824
REMARK  Name = 
REMARK  1 active torsions:
REMARK  status: ('A' for Active; 'I' for Inactive)
REMARK    1  A    between atoms: N_11  and  C_12
REMARK                            x       y       z     vdW  Elec       q    Type
REMARK                         _______ _______ _______ _____ _____    ______ ____
ROOT
ATOM      1  O   UNL     1      -9.709  14.589  67.801  0.00  0.00    -0.269 OA
ATOM      2  C   UNL     1     -10.105  15.461  67.156  0.00  0.00    +0.255 C 
ATOM      3  N   UNL     1     -10.789  15.306  65.957  0.00  0.00    -0.216 N 
ATOM      4  C   UNL     1     -10.832  16.597  65.334  0.00  0.00    +0.255 C 
ATOM      5  O   UNL     1     -11.285  16.896  64.190  0.00  0.00    -0.269 OA
ATOM      6  C   UNL     1     -10.458  17.615  66.326  0.00  0.00    +0.058 A 
ATOM      7  C   UNL     1      -9.868  18.870  66.205  0.00  0.00    +0.005 A 
ATOM      8  C   UNL     1      -9.781  19.599  67.386  0.00  0.00    +0.000 A 
ATOM      9  C   UNL     1      -9.999  18.968  68.605  0.00  0.00    +0.000 A 
ATOM     10  C   UNL     1      -9.975  17.577  68.656  0.00  0.00    +0.005 A 
ATOM     11  C   UNL     1     -10.292  16.886  67.500  0.00  0.00    +0.058 A 
ENDROOT
BRANCH   3  12
ATOM     12  C   UNL     1     -10.765  14.064  64.999  0.00  0.00    +0.162 C 
ATOM     13  C   UNL     1     -12.169  13.471  65.541  0.00  0.00    +0.266 C 
ATOM     14  O   UNL     1     -13.143  14.257  65.465  0.00  0.00    -0.271 OA
ATOM     15  N   UNL     1     -12.330  12.233  64.818  0.00  0.00    -0.143 NA
ATOM     16  C   UNL     1     -11.134  11.466  64.637  0.00  0.00    +0.248 C 
ATOM     17  O   UNL     1     -10.773  10.970  63.535  0.00  0.00    -0.273 OA
ATOM     18  C   UNL     1     -10.050  11.723  65.607  0.00  0.00    +0.089 C 
ATOM     19  C   UNL     1      -9.906  13.132  66.044  0.00  0.00    +0.039 C 
ENDBRANCH   3  12
TORSDOF 1
ENDMDL
MODEL 4
REMARK VINA RESULT:      -6.9      3.076      6.248
REMARK  Name = 
REMARK  1 active torsions:
REMARK  status: ('A' for Active; 'I' for Inactive)
REMARK    1  A    between atoms: N_11  and  C_12
REMARK                            x       y       z     vdW  Elec       q    Type
REMARK                         _______ _______ _______ _____ _____    ______ ____
ROOT
ATOM      1  O   UNL     1     -11.880  11.591  68.057  0.00  0.00    -0.269 OA
ATOM      2  C   UNL     1     -11.700  12.730  68.126  0.00  0.00    +0.255 C 
ATOM      3  N   UNL     1     -11.423  13.549  67.039  0.00  0.00    -0.216 N 
ATOM      4  C   UNL     1     -10.971  14.803  67.570  0.00  0.00    +0.255 C 
ATOM      5  O   UNL     1     -10.533  15.806  66.934  0.00  0.00    -0.269 OA
ATOM      6  C   UNL     1     -11.296  14.856  69.003  0.00  0.00    +0.058 A 
ATOM      7  C   UNL     1     -10.707  15.524  70.073  0.00  0.00    +0.005 A 
ATOM      8  C   UNL     1     -11.388  15.418  71.282  0.00  0.00    +0.000 A 
ATOM      9  C   UNL     1     -12.394  14.470  71.427  0.00  0.00    +0.000 A 
ATOM     10  C   UNL     1     -12.485  13.438  70.498  0.00  0.00    +0.005 A 
ATOM     11  C   UNL     1     -11.991  13.671  69.227  0.00  0.00    +0.058 A 
ENDROOT
BRANCH   3  12
ATOM     12  C   UNL     1     -10.836  13.124  65.649  0.00  0.00    +0.162 C 
ATOM     13  C   UNL     1     -12.275  12.716  65.034  0.00  0.00    +0.266 C 
ATOM     14  O   UNL     1     -13.139  13.624  65.056  0.00  0.00    -0.271 OA
ATOM     15  N   UNL     1     -11.964  12.206  63.721  0.00  0.00    -0.143 NA
ATOM     16  C   UNL     1     -10.783  11.402  63.636  0.00  0.00    +0.248 C 
ATOM     17  O   UNL     1      -9.888  11.552  62.759  0.00  0.00    -0.273 OA
ATOM     18  C   UNL     1     -10.343  10.768  64.895  0.00  0.00    +0.089 C 
ATOM     19  C   UNL     1     -10.539  11.578  66.120  0.00  0.00    +0.039 C 
ENDBRANCH   3  12
TORSDOF 1
ENDMDL
MODEL 5
REMARK VINA RESULT:      -6.8      3.741      6.594
REMARK  Name = 
REMARK  1 active torsions:
REMARK  status: ('A' for Active; 'I' for Inactive)
REMARK    1  A    between atoms: N_11  and  C_12
REMARK                            x       y       z     vdW  Elec       q    Type
REMARK                         _______ _______ _______ _____ _____    ______ ____
ROOT
ATOM      1  O   UNL     1     -11.641  15.611  68.336  0.00  0.00    -0.269 OA
ATOM      2  C   UNL     1     -11.770  14.784  69.132  0.00  0.00    +0.255 C 
ATOM      3  N   UNL     1     -11.563  13.430  68.900  0.00  0.00    -0.216 N 
ATOM      4  C   UNL     1     -12.115  12.729  70.023  0.00  0.00    +0.255 C 
ATOM      5  O   UNL     1     -12.219  11.477  70.186  0.00  0.00    -0.269 OA
ATOM      6  C   UNL     1     -12.363  13.689  71.108  0.00  0.00    +0.058 A 
ATOM      7  C   UNL     1     -13.279  13.705  72.155  0.00  0.00    +0.005 A 
ATOM      8  C   UNL     1     -13.123  14.747  73.062  0.00  0.00    +0.000 A 
ATOM      9  C   UNL     1     -12.303  15.823  72.743  0.00  0.00    +0.000 A 
ATOM     10  C   UNL     1     -11.919  16.006  71.419  0.00  0.00    +0.005 A 
ATOM     11  C   UNL     1     -11.873  14.890  70.602  0.00  0.00    +0.058 A 
ENDROOT
BRANCH   3  12
ATOM     12  C   UNL     1     -11.594  12.682  67.522  0.00  0.00    +0.162 C 
ATOM     13  C   UNL     1     -10.091  13.123  67.117  0.00  0.00    +0.266 C 
ATOM     14  O   UNL     1      -9.203  12.803  67.942  0.00  0.00    -0.271 OA
ATOM     15  N   UNL     1      -9.911  12.582  65.791  0.00  0.00    -0.143 NA
ATOM     16  C   UNL     1     -11.051  12.674  64.929  0.00  0.00    +0.248 C 
ATOM     17  O   UNL     1     -11.495  11.716  64.240  0.00  0.00    -0.273 OA
ATOM     18  C   UNL     1     -12.032  13.725  65.268  0.00  0.00    +0.089 C 
ATOM     19  C   UNL     1     -12.243  13.958  66.716  0.00  0.00    +0.039 C 
ENDBRANCH   3  12
TORSDOF 1
ENDMDL
MODEL 6
REMARK VINA RESULT:      -6.7      1.208      2.577
REMARK  Name = 
REMARK  1 active torsions:
REMARK  status: ('A' for Active; 'I' for Inactive)
REMARK    1  A    between atoms: N_11  and  C_12
REMARK                            x       y       z     vdW  Elec       q    Type
REMARK                         _______ _______ _______ _____ _____    ______ ____
ROOT
ATOM      1  O   UNL     1     -11.324  16.589  64.356  0.00  0.00    -0.269 OA
ATOM      2  C   UNL     1     -11.042  15.623  64.924  0.00  0.00    +0.255 C 
ATOM      3  N   UNL     1     -10.474  15.594  66.191  0.00  0.00    -0.216 N 
ATOM      4  C   UNL     1     -10.005  14.254  66.403  0.00  0.00    +0.255 C 
ATOM      5  O   UNL     1      -9.349  13.805  67.388  0.00  0.00    -0.269 OA
ATOM      6  C   UNL     1     -10.597  13.377  65.382  0.00  0.00    +0.058 A 
ATOM      7  C   UNL     1     -10.162  12.189  64.802  0.00  0.00    +0.005 A 
ATOM      8  C   UNL     1     -11.073  11.584  63.943  0.00  0.00    +0.000 A 
ATOM      9  C   UNL     1     -12.182  12.295  63.500  0.00  0.00    +0.000 A 
ATOM     10  C   UNL     1     -12.198  13.678  63.648  0.00  0.00    +0.005 A 
ATOM     11  C   UNL     1     -11.443  14.224  64.672  0.00  0.00    +0.058 A 
ENDROOT
BRANCH   3  12
ATOM     12  C   UNL     1      -9.673  16.738  66.905  0.00  0.00    +0.162 C 
ATOM     13  C   UNL     1     -10.834  17.031  67.992  0.00  0.00    +0.266 C 
ATOM     14  O   UNL     1     -11.184  16.040  68.676  0.00  0.00    -0.271 OA
ATOM     15  N   UNL     1     -10.328  18.147  68.754  0.00  0.00    -0.143 NA
ATOM     16  C   UNL     1      -9.647  19.152  67.996  0.00  0.00    +0.248 C 
ATOM     17  O   UNL     1      -8.528  19.640  68.314  0.00  0.00    -0.273 OA
ATOM     18  C   UNL     1      -9.987  19.217  66.560  0.00  0.00    +0.089 C 
ATOM     19  C   UNL     1     -10.240  17.912  65.904  0.00  0.00    +0.039 C 
ENDBRANCH   3  12
TORSDOF 1
ENDMDL
MODEL 7
REMARK VINA RESULT:      -6.5      4.196      4.757
REMARK  Name = 
REMARK  1 active torsions:
REMARK  status: ('A' for Active; 'I' for Inactive)
REMARK    1  A    between atoms: N_11  and  C_12
REMARK                            x       y       z     vdW  Elec       q    Type
REMARK                         _______ _______ _______ _____ _____    ______ ____
ROOT
ATOM      1  O   UNL     1     -12.092  11.669  70.351  0.00  0.00    -0.269 OA
ATOM      2  C   UNL     1     -11.868  12.298  69.408  0.00  0.00    +0.255 C 
ATOM      3  N   UNL     1     -11.960  13.683  69.347  0.00  0.00    -0.216 N 
ATOM      4  C   UNL     1     -11.906  14.040  67.959  0.00  0.00    +0.255 C 
ATOM      5  O   UNL     1     -12.041  15.189  67.444  0.00  0.00    -0.269 OA
ATOM      6  C   UNL     1     -11.440  12.879  67.188  0.00  0.00    +0.058 A 
ATOM      7  C   UNL     1     -11.658  12.479  65.872  0.00  0.00    +0.005 A 
ATOM      8  C   UNL     1     -10.936  11.361  65.468  0.00  0.00    +0.000 A 
ATOM      9  C   UNL     1     -10.299  10.569  66.416  0.00  0.00    +0.000 A 
ATOM     10  C   UNL     1     -10.656  10.705  67.754  0.00  0.00    +0.005 A 
ATOM     11  C   UNL     1     -11.167  11.924  68.163  0.00  0.00    +0.058 A 
ENDROOT
BRANCH   3  12
ATOM     12  C   UNL     1     -12.793  14.626  70.283  0.00  0.00    +0.162 C 
ATOM     13  C   UNL     1     -11.505  15.125  71.123  0.00  0.00    +0.266 C 
ATOM     14  O   UNL     1     -10.588  15.635  70.436  0.00  0.00    -0.271 OA
ATOM     15  N   UNL     1     -12.058  15.992  72.134  0.00  0.00    -0.143 NA
ATOM     16  C   UNL     1     -13.291  15.552  72.715  0.00  0.00    +0.248 C 
ATOM     17  O   UNL     1     -14.304  16.288  72.866  0.00  0.00    -0.273 OA
ATOM     18  C   UNL     1     -13.563  14.103  72.627  0.00  0.00    +0.089 C 
ATOM     19  C   UNL     1     -13.115  13.444  71.377  0.00  0.00    +0.039 C 
ENDBRANCH   3  12
TORSDOF 1
ENDMDL
MODEL 8
REMARK VINA RESULT:      -6.4      2.755      3.299
REMARK  Name = 
REMARK  1 active torsions:
REMARK  status: ('A' for Active; 'I' for Inactive)
REMARK    1  A    between atoms: N_11  and  C_12
REMARK                            x       y       z     vdW  Elec       q    Type
REMARK                         _______ _______ _______ _____ _____    ______ ____
ROOT
ATOM      1  O   UNL     1     -10.143  12.298  68.126  0.00  0.00    -0.269 OA
ATOM      2  C   UNL     1     -10.649  12.618  67.138  0.00  0.00    +0.255 C 
ATOM      3  N   UNL     1     -11.520  13.693  67.014  0.00  0.00    -0.216 N 
ATOM      4  C   UNL     1     -12.152  13.567  65.732  0.00  0.00    +0.255 C 
ATOM      5  O   UNL     1     -13.076  14.282  65.245  0.00  0.00    -0.269 OA
ATOM      6  C   UNL     1     -11.408  12.585  64.930  0.00  0.00    +0.058 A 
ATOM      7  C   UNL     1     -11.792  11.732  63.899  0.00  0.00    +0.005 A 
ATOM      8  C   UNL     1     -10.755  11.025  63.301  0.00  0.00    +0.000 A 
ATOM      9  C   UNL     1      -9.508  10.978  63.911  0.00  0.00    +0.000 A 
ATOM     10  C   UNL     1      -9.399  11.350  65.248  0.00  0.00    +0.005 A 
ATOM     11  C   UNL     1     -10.333  12.242  65.745  0.00  0.00    +0.058 A 
ENDROOT
BRANCH   3  12
ATOM     12  C   UNL     1     -12.362  14.375  68.147  0.00  0.00    +0.162 C 
ATOM     13  C   UNL     1     -11.214  15.453  68.513  0.00  0.00    +0.266 C 
ATOM     14  O   UNL     1     -10.827  16.164  67.556  0.00  0.00    -0.271 OA
ATOM     15  N   UNL     1     -11.761  16.184  69.630  0.00  0.00    -0.143 NA
ATOM     16  C   UNL     1     -12.479  15.399  70.588  0.00  0.00    +0.248 C 
ATOM     17  O   UNL     1     -13.615  15.704  71.042  0.00  0.00    -0.273 OA
ATOM     18  C   UNL     1     -12.141  13.961  70.625  0.00  0.00    +0.089 C 
ATOM     19  C   UNL     1     -11.840  13.342  69.313  0.00  0.00    +0.039 C 
ENDBRANCH   3  12
TORSDOF 1
ENDMDL
MODEL 9
REMARK VINA RESULT:      -6.3      3.828      6.803
REMARK  Name = 
REMARK  1 active torsions:
REMARK  status: ('A' for Active; 'I' for Inactive)
REMARK    1  A    between atoms: N_11  and  C_12
REMARK                            x       y       z     vdW  Elec       q    Type
REMARK                         _______ _______ _______ _____ _____    ______ ____
ROOT
ATOM      1  O   UNL     1     -12.156  11.661  70.186  0.00  0.00    -0.269 OA
ATOM      2  C   UNL     1     -12.063  12.809  70.098  0.00  0.00    +0.255 C 
ATOM      3  N   UNL     1     -11.615  13.478  68.966  0.00  0.00    -0.216 N 
ATOM      4  C   UNL     1     -11.359  14.833  69.360  0.00  0.00    +0.255 C 
ATOM      5  O   UNL     1     -10.859  15.765  68.664  0.00  0.00    -0.269 OA
ATOM      6  C   UNL     1     -11.977  15.071  70.672  0.00  0.00    +0.058 A 
ATOM      7  C   UNL     1     -11.665  15.944  71.711  0.00  0.00    +0.005 A 
ATOM      8  C   UNL     1     -12.573  15.958  72.763  0.00  0.00    +0.000 A 
ATOM      9  C   UNL     1     -13.530  14.955  72.864  0.00  0.00    +0.000 A 
ATOM     10  C   UNL     1     -13.364  13.791  72.120  0.00  0.00    +0.005 A 
ATOM     11  C   UNL     1     -12.632  13.875  70.949  0.00  0.00    +0.058 A 
ENDROOT
BRANCH   3  12
ATOM     12  C   UNL     1     -10.727  12.904  67.808  0.00  0.00    +0.162 C 
ATOM     13  C   UNL     1     -11.938  12.878  66.735  0.00  0.00    +0.266 C 
ATOM     14  O   UNL     1     -12.508  13.979  66.551  0.00  0.00    -0.271 OA
ATOM     15  N   UNL     1     -11.349  12.295  65.554  0.00  0.00    -0.143 NA
ATOM     16  C   UNL     1     -10.442  11.212  65.789  0.00  0.00    +0.248 C 
ATOM     17  O   UNL     1      -9.301  11.118  65.259  0.00  0.00    -0.273 OA
ATOM     18  C   UNL     1     -10.613  10.495  67.069  0.00  0.00    +0.089 C 
ATOM     19  C   UNL     1     -10.995  11.337  68.227  0.00  0.00    +0.039 C 
ENDBRANCH   3  12
TORSDOF 1
ENDMDL
