MODEL 1
REMARK VINA RESULT:      -5.8      0.000      0.000
REMARK  Name = 
REMARK  8 active torsions:
REMARK  status: ('A' for Active; 'I' for Inactive)
REMARK    1  A    between atoms: C_2  and  N_4
REMARK    2  A    between atoms: N_4  and  C_5
REMARK    3  A    between atoms: C_5  and  C_6
REMARK    4  A    between atoms: C_6  and  C_8
REMARK    5  A    between atoms: C_8  and  O_9
REMARK    6  A    between atoms: O_9  and  C_10
REMARK    7  A    between atoms: C_13  and  C_14
REMARK    8  A    between atoms: C_14  and  C_15
REMARK                            x       y       z     vdW  Elec       q    Type
REMARK                         _______ _______ _______ _____ _____    ______ ____
ROOT
ATOM      1  C   UNL     1     -10.846  13.568  67.765  0.00  0.00    +0.139 A 
ATOM      2  C   UNL     1     -11.612  12.453  67.449  0.00  0.00    +0.037 A 
ATOM      3  C   UNL     1     -11.405  11.910  66.188  0.00  0.00    -0.001 A 
ATOM      4  C   UNL     1     -10.559  12.492  65.273  0.00  0.00    -0.013 A 
ATOM      5  C   UNL     1      -9.697  13.479  65.689  0.00  0.00    -0.001 A 
ATOM      6  C   UNL     1      -9.929  14.112  66.897  0.00  0.00    +0.037 A 
ENDROOT
BRANCH   1   7
ATOM      7  O   UNL     1     -11.316  14.328  68.839  0.00  0.00    -0.473 OA
BRANCH   7   8
ATOM      8  C   UNL     1     -10.314  15.014  69.590  0.00  0.00    +0.240 C 
BRANCH   8   9
ATOM      9  C   UNL     1     -11.295  16.197  70.272  0.00  0.00    +0.213 C 
ATOM     10  O   UNL     1     -12.004  16.442  68.919  0.00  0.00    -0.218 OA
BRANCH   9  11
ATOM     11  C   UNL     1     -12.445  15.051  70.708  0.00  0.00    +0.125 C 
BRANCH  11  12
ATOM     12  N   UNL     1     -13.232  15.829  71.661  0.00  0.00    -0.217 NA
BRANCH  12  14
ATOM     13  C   UNL     1     -13.512  13.891  72.430  0.00  0.00    +0.019 C 
ATOM     14  C   UNL     1     -13.531  14.930  72.772  0.00  0.00    +0.073 C 
ATOM     15  C   UNL     1     -12.525  15.280  73.863  0.00  0.00    +0.019 C 
ENDBRANCH  12  14
ENDBRANCH  11  12
ENDBRANCH   9  11
ENDBRANCH   8   9
ENDBRANCH   7   8
ENDBRANCH   1   7
BRANCH   4  16
ATOM     16  C   UNL     1     -10.830  12.210  63.831  0.00  0.00    +0.115 C 
BRANCH  16  17
ATOM     17  C   UNL     1     -12.166  12.713  63.463  0.00  0.00    +0.265 C 
ATOM     18  O   UNL     1     -13.067  11.884  63.225  0.00  0.00    -0.271 OA
ATOM     19  N   UNL     1     -12.498  14.073  63.702  0.00  0.00    -0.087 NA
ENDBRANCH  16  17
ENDBRANCH   4  16
TORSDOF 8
ENDMDL
MODEL 2
REMARK VINA RESULT:      -5.8      2.233      7.078
REMARK  Name = 
REMARK  8 active torsions:
REMARK  status: ('A' for Active; 'I' for Inactive)
REMARK    1  A    between atoms: C_2  and  N_4
REMARK    2  A    between atoms: N_4  and  C_5
REMARK    3  A    between atoms: C_5  and  C_6
REMARK    4  A    between atoms: C_6  and  C_8
REMARK    5  A    between atoms: C_8  and  O_9
REMARK    6  A    between atoms: O_9  and  C_10
REMARK    7  A    between atoms: C_13  and  C_14
REMARK    8  A    between atoms: C_14  and  C_15
REMARK                            x       y       z     vdW  Elec       q    Type
REMARK                         _______ _______ _______ _____ _____    ______ ____
ROOT
ATOM      1  C   UNL     1     -11.329  15.220  69.154  0.00  0.00    +0.139 A 
ATOM      2  C   UNL     1     -11.044  16.032  70.244  0.00  0.00    +0.037 A 
ATOM      3  C   UNL     1     -11.486  15.572  71.478  0.00  0.00    -0.001 A 
ATOM      4  C   UNL     1     -12.237  14.427  71.602  0.00  0.00    -0.013 A 
ATOM      5  C   UNL     1     -12.340  13.571  70.531  0.00  0.00    -0.001 A 
ATOM      6  C   UNL     1     -12.001  14.026  69.270  0.00  0.00    +0.037 A 
ENDROOT
BRANCH   1   7
ATOM      7  O   UNL     1     -11.239  15.843  67.907  0.00  0.00    -0.473 OA
BRANCH   7   8
ATOM      8  C   UNL     1      -9.921  16.207  67.496  0.00  0.00    +0.240 C 
BRANCH   8   9
ATOM      9  C   UNL     1     -10.300  16.786  65.964  0.00  0.00    +0.213 C 
ATOM     10  O   UNL     1      -8.814  17.110  65.678  0.00  0.00    -0.218 OA
BRANCH   9  11
ATOM     11  C   UNL     1     -10.131  15.252  65.297  0.00  0.00    +0.125 C 
BRANCH  11  12
ATOM     12  N   UNL     1     -11.445  15.096  64.679  0.00  0.00    -0.217 NA
BRANCH  12  14
ATOM     13  C   UNL     1     -12.821  13.816  65.624  0.00  0.00    +0.019 C 
ATOM     14  C   UNL     1     -11.904  13.755  65.031  0.00  0.00    +0.073 C 
ATOM     15  C   UNL     1     -12.026  13.005  63.709  0.00  0.00    +0.019 C 
ENDBRANCH  12  14
ENDBRANCH  11  12
ENDBRANCH   9  11
ENDBRANCH   8   9
ENDBRANCH   7   8
ENDBRANCH   1   7
BRANCH   4  16
ATOM     16  C   UNL     1     -13.122  14.330  72.802  0.00  0.00    +0.115 C 
BRANCH  16  17
ATOM     17  C   UNL     1     -13.260  15.656  73.433  0.00  0.00    +0.265 C 
ATOM     18  O   UNL     1     -14.195  16.395  73.064  0.00  0.00    -0.271 OA
ATOM     19  N   UNL     1     -12.568  15.938  74.640  0.00  0.00    -0.087 NA
ENDBRANCH  16  17
ENDBRANCH   4  16
TORSDOF 8
ENDMDL
MODEL 3
REMARK VINA RESULT:      -5.7      2.888      6.505
REMARK  Name = 
REMARK  8 active torsions:
REMARK  status: ('A' for Active; 'I' for Inactive)
REMARK    1  A    between atoms: C_2  and  N_4
REMARK    2  A    between atoms: N_4  and  C_5
REMARK    3  A    between atoms: C_5  and  C_6
REMARK    4  A    between atoms: C_6  and  C_8
REMARK    5  A    between atoms: C_8  and  O_9
REMARK    6  A    between atoms: O_9  and  C_10
REMARK    7  A    between atoms: C_13  and  C_14
REMARK    8  A    between atoms: C_14  and  C_15
REMARK                            x       y       z     vdW  Elec       q    Type
REMARK                         _______ _______ _______ _____ _____    ______ ____
ROOT
ATOM      1  C   UNL     1     -11.169  13.830  68.731  0.00  0.00    +0.139 A 
ATOM      2  C   UNL     1     -11.305  15.011  69.451  0.00  0.00    +0.037 A 
ATOM      3  C   UNL     1     -11.961  14.908  70.670  0.00  0.00    -0.001 A 
ATOM      4  C   UNL     1     -12.520  13.728  71.100  0.00  0.00    -0.013 A 
ATOM      5  C   UNL     1     -12.207  12.559  70.447  0.00  0.00    -0.001 A 
ATOM      6  C   UNL     1     -11.642  12.623  69.186  0.00  0.00    +0.037 A 
ENDROOT
BRANCH   1   7
ATOM      7  O   UNL     1     -10.872  13.990  67.375  0.00  0.00    -0.473 OA
BRANCH   7   8
ATOM      8  C   UNL     1     -11.100  15.297  66.847  0.00  0.00    +0.240 C 
BRANCH   8   9
ATOM      9  C   UNL     1      -9.944  15.265  65.626  0.00  0.00    +0.213 C 
ATOM     10  O   UNL     1     -10.845  16.115  64.700  0.00  0.00    -0.218 OA
BRANCH   9  11
ATOM     11  C   UNL     1      -9.204  16.647  66.234  0.00  0.00    +0.125 C 
BRANCH  11  12
ATOM     12  N   UNL     1     -10.250  17.632  65.972  0.00  0.00    -0.217 NA
BRANCH  12  14
ATOM     13  C   UNL     1     -10.221  19.734  66.064  0.00  0.00    +0.019 C 
ATOM     14  C   UNL     1      -9.803  18.875  66.596  0.00  0.00    +0.073 C 
ATOM     15  C   UNL     1     -10.197  18.758  68.065  0.00  0.00    +0.019 C 
ENDBRANCH  12  14
ENDBRANCH  11  12
ENDBRANCH   9  11
ENDBRANCH   8   9
ENDBRANCH   7   8
ENDBRANCH   1   7
BRANCH   4  16
ATOM     16  C   UNL     1     -13.650  13.833  72.072  0.00  0.00    +0.115 C 
BRANCH  16  17
ATOM     17  C   UNL     1     -14.091  15.236  72.179  0.00  0.00    +0.265 C 
ATOM     18  O   UNL     1     -15.055  15.611  71.482  0.00  0.00    -0.271 OA
ATOM     19  N   UNL     1     -13.656  16.030  73.274  0.00  0.00    -0.087 NA
ENDBRANCH  16  17
ENDBRANCH   4  16
TORSDOF 8
ENDMDL
MODEL 4
REMARK VINA RESULT:      -5.7      2.053      7.363
REMARK  Name = 
REMARK  8 active torsions:
REMARK  status: ('A' for Active; 'I' for Inactive)
REMARK    1  A    between atoms: C_2  and  N_4
REMARK    2  A    between atoms: N_4  and  C_5
REMARK    3  A    between atoms: C_5  and  C_6
REMARK    4  A    between atoms: C_6  and  C_8
REMARK    5  A    between atoms: C_8  and  O_9
REMARK    6  A    between atoms: O_9  and  C_10
REMARK    7  A    between atoms: C_13  and  C_14
REMARK    8  A    between atoms: C_14  and  C_15
REMARK                            x       y       z     vdW  Elec       q    Type
REMARK                         _______ _______ _______ _____ _____    ______ ____
ROOT
ATOM      1  C   UNL     1     -11.642  14.547  68.281  0.00  0.00    +0.139 A 
ATOM      2  C   UNL     1     -11.851  15.673  69.067  0.00  0.00    +0.037 A 
ATOM      3  C   UNL     1     -12.247  15.436  70.376  0.00  0.00    -0.001 A 
ATOM      4  C   UNL     1     -12.502  14.167  70.842  0.00  0.00    -0.013 A 
ATOM      5  C   UNL     1     -12.112  13.084  70.090  0.00  0.00    -0.001 A 
ATOM      6  C   UNL     1     -11.805  13.267  68.755  0.00  0.00    +0.037 A 
ENDROOT
BRANCH   1   7
ATOM      7  O   UNL     1     -11.629  14.777  66.903  0.00  0.00    -0.473 OA
BRANCH   7   8
ATOM      8  C   UNL     1     -12.210  13.747  66.103  0.00  0.00    +0.240 C 
BRANCH   8   9
ATOM      9  C   UNL     1     -12.043  14.487  64.602  0.00  0.00    +0.213 C 
ATOM     10  O   UNL     1     -10.501  14.492  64.735  0.00  0.00    -0.218 OA
BRANCH   9  11
ATOM     11  C   UNL     1     -12.008  12.997  63.825  0.00  0.00    +0.125 C 
BRANCH  11  12
ATOM     12  N   UNL     1     -10.617  12.618  64.062  0.00  0.00    -0.217 NA
BRANCH  12  14
ATOM     13  C   UNL     1      -9.865  10.958  63.011  0.00  0.00    +0.019 C 
ATOM     14  C   UNL     1     -10.545  11.177  63.840  0.00  0.00    +0.073 C 
ATOM     15  C   UNL     1     -10.154  10.575  65.185  0.00  0.00    +0.019 C 
ENDBRANCH  12  14
ENDBRANCH  11  12
ENDBRANCH   9  11
ENDBRANCH   8   9
ENDBRANCH   7   8
ENDBRANCH   1   7
BRANCH   4  16
ATOM     16  C   UNL     1     -13.437  14.052  72.002  0.00  0.00    +0.115 C 
BRANCH  16  17
ATOM     17  C   UNL     1     -13.328  15.248  72.857  0.00  0.00    +0.265 C 
ATOM     18  O   UNL     1     -14.220  16.116  72.782  0.00  0.00    -0.271 OA
ATOM     19  N   UNL     1     -12.429  15.248  73.956  0.00  0.00    -0.087 NA
ENDBRANCH  16  17
ENDBRANCH   4  16
TORSDOF 8
ENDMDL
MODEL 5
REMARK VINA RESULT:      -5.7      4.071      5.413
REMARK  Name = 
REMARK  8 active torsions:
REMARK  status: ('A' for Active; 'I' for Inactive)
REMARK    1  A    between atoms: C_2  and  N_4
REMARK    2  A    between atoms: N_4  and  C_5
REMARK    3  A    between atoms: C_5  and  C_6
REMARK    4  A    between atoms: C_6  and  C_8
REMARK    5  A    between atoms: C_8  and  O_9
REMARK    6  A    between atoms: O_9  and  C_10
REMARK    7  A    between atoms: C_13  and  C_14
REMARK    8  A    between atoms: C_14  and  C_15
REMARK                            x       y       z     vdW  Elec       q    Type
REMARK                         _______ _______ _______ _____ _____    ______ ____
ROOT
ATOM      1  C   UNL     1     -11.685  11.879  69.676  0.00  0.00    +0.139 A 
ATOM      2  C   UNL     1     -11.034  10.733  69.239  0.00  0.00    +0.037 A 
ATOM      3  C   UNL     1     -11.269   9.581  69.976  0.00  0.00    -0.001 A 
ATOM      4  C   UNL     1     -12.030   9.591  71.121  0.00  0.00    -0.013 A 
ATOM      5  C   UNL     1     -12.793  10.697  71.411  0.00  0.00    -0.001 A 
ATOM      6  C   UNL     1     -12.522  11.890  70.766  0.00  0.00    +0.037 A 
ENDROOT
BRANCH   1   7
ATOM      7  O   UNL     1     -11.162  13.082  69.195  0.00  0.00    -0.473 OA
BRANCH   7   8
ATOM      8  C   UNL     1     -12.025  14.214  69.304  0.00  0.00    +0.240 C 
BRANCH   8   9
ATOM      9  C   UNL     1     -10.891  15.326  69.858  0.00  0.00    +0.213 C 
ATOM     10  O   UNL     1     -11.715  16.505  69.290  0.00  0.00    -0.218 OA
BRANCH   9  11
ATOM     11  C   UNL     1     -11.673  15.446  71.341  0.00  0.00    +0.125 C 
BRANCH  11  12
ATOM     12  N   UNL     1     -13.036  15.716  70.890  0.00  0.00    -0.217 NA
BRANCH  12  14
ATOM     13  C   UNL     1     -14.786  14.915  71.738  0.00  0.00    +0.019 C 
ATOM     14  C   UNL     1     -13.900  15.479  72.043  0.00  0.00    +0.073 C 
ATOM     15  C   UNL     1     -13.016  14.801  73.083  0.00  0.00    +0.019 C 
ENDBRANCH  12  14
ENDBRANCH  11  12
ENDBRANCH   9  11
ENDBRANCH   8   9
ENDBRANCH   7   8
ENDBRANCH   1   7
BRANCH   4  16
ATOM     16  C   UNL     1     -11.760   8.511  72.119  0.00  0.00    +0.115 C 
BRANCH  16  17
ATOM     17  C   UNL     1     -12.334   7.237  71.649  0.00  0.00    +0.265 C 
ATOM     18  O   UNL     1     -13.557   7.190  71.411  0.00  0.00    -0.271 OA
ATOM     19  N   UNL     1     -11.477   6.213  71.168  0.00  0.00    -0.087 NA
ENDBRANCH  16  17
ENDBRANCH   4  16
TORSDOF 8
ENDMDL
MODEL 6
REMARK VINA RESULT:      -5.7      2.977      7.087
REMARK  Name = 
REMARK  8 active torsions:
REMARK  status: ('A' for Active; 'I' for Inactive)
REMARK    1  A    between atoms: C_2  and  N_4
REMARK    2  A    between atoms: N_4  and  C_5
REMARK    3  A    between atoms: C_5  and  C_6
REMARK    4  A    between atoms: C_6  and  C_8
REMARK    5  A    between atoms: C_8  and  O_9
REMARK    6  A    between atoms: O_9  and  C_10
REMARK    7  A    between atoms: C_13  and  C_14
REMARK    8  A    between atoms: C_14  and  C_15
REMARK                            x       y       z     vdW  Elec       q    Type
REMARK                         _______ _______ _______ _____ _____    ______ ____
ROOT
ATOM      1  C   UNL     1     -11.338  15.071  68.817  0.00  0.00    +0.139 A 
ATOM      2  C   UNL     1     -12.075  14.006  69.321  0.00  0.00    +0.037 A 
ATOM      3  C   UNL     1     -12.473  14.115  70.646  0.00  0.00    -0.001 A 
ATOM      4  C   UNL     1     -12.088  15.171  71.438  0.00  0.00    -0.013 A 
ATOM      5  C   UNL     1     -11.517  16.277  70.854  0.00  0.00    -0.001 A 
ATOM      6  C   UNL     1     -11.019  16.177  69.568  0.00  0.00    +0.037 A 
ENDROOT
BRANCH   1   7
ATOM      7  O   UNL     1     -10.623  14.799  67.648  0.00  0.00    -0.473 OA
BRANCH   7   8
ATOM      8  C   UNL     1     -11.383  14.838  66.440  0.00  0.00    +0.240 C 
BRANCH   8   9
ATOM      9  C   UNL     1     -10.104  14.985  65.358  0.00  0.00    +0.213 C 
ATOM     10  O   UNL     1     -10.879  16.035  64.527  0.00  0.00    -0.218 OA
BRANCH   9  11
ATOM     11  C   UNL     1      -9.398  16.192  66.292  0.00  0.00    +0.125 C 
BRANCH  11  12
ATOM     12  N   UNL     1     -10.040  17.370  65.713  0.00  0.00    -0.217 NA
BRANCH  12  14
ATOM     13  C   UNL     1      -8.682  18.575  66.776  0.00  0.00    +0.019 C 
ATOM     14  C   UNL     1      -9.761  18.475  66.627  0.00  0.00    +0.073 C 
ATOM     15  C   UNL     1     -10.456  19.689  66.023  0.00  0.00    +0.019 C 
ENDBRANCH  12  14
ENDBRANCH  11  12
ENDBRANCH   9  11
ENDBRANCH   8   9
ENDBRANCH   7   8
ENDBRANCH   1   7
BRANCH   4  16
ATOM     16  C   UNL     1     -12.058  14.930  72.913  0.00  0.00    +0.115 C 
BRANCH  16  17
ATOM     17  C   UNL     1     -12.858  15.955  73.607  0.00  0.00    +0.265 C 
ATOM     18  O   UNL     1     -13.992  16.224  73.163  0.00  0.00    -0.271 OA
ATOM     19  N   UNL     1     -12.491  16.370  74.914  0.00  0.00    -0.087 NA
ENDBRANCH  16  17
ENDBRANCH   4  16
TORSDOF 8
ENDMDL
MODEL 7
REMARK VINA RESULT:      -5.7      3.005      6.927
REMARK  Name = 
REMARK  8 active torsions:
REMARK  status: ('A' for Active; 'I' for Inactive)
REMARK    1  A    between atoms: C_2  and  N_4
REMARK    2  A    between atoms: N_4  and  C_5
REMARK    3  A    between atoms: C_5  and  C_6
REMARK    4  A    between atoms: C_6  and  C_8
REMARK    5  A    between atoms: C_8  and  O_9
REMARK    6  A    between atoms: O_9  and  C_10
REMARK    7  A    between atoms: C_13  and  C_14
REMARK    8  A    between atoms: C_14  and  C_15
REMARK                            x       y       z     vdW  Elec       q    Type
REMARK                         _______ _______ _______ _____ _____    ______ ____
ROOT
ATOM      1  C   UNL     1     -10.746  14.421  68.971  0.00  0.00    +0.139 A 
ATOM      2  C   UNL     1     -10.447  15.564  69.701  0.00  0.00    +0.037 A 
ATOM      3  C   UNL     1     -11.216  15.781  70.836  0.00  0.00    -0.001 A 
ATOM      4  C   UNL     1     -12.269  14.961  71.171  0.00  0.00    -0.013 A 
ATOM      5  C   UNL     1     -12.412  13.755  70.526  0.00  0.00    -0.001 A 
ATOM      6  C   UNL     1     -11.736  13.541  69.339  0.00  0.00    +0.037 A 
ENDROOT
BRANCH   1   7
ATOM      7  O   UNL     1     -10.260  14.406  67.662  0.00  0.00    -0.473 OA
BRANCH   7   8
ATOM      8  C   UNL     1     -11.035  15.138  66.711  0.00  0.00    +0.240 C 
BRANCH   8   9
ATOM      9  C   UNL     1      -9.836  15.370  65.555  0.00  0.00    +0.213 C 
ATOM     10  O   UNL     1     -10.795  16.207  64.675  0.00  0.00    -0.218 OA
BRANCH   9  11
ATOM     11  C   UNL     1      -9.290  16.754  66.339  0.00  0.00    +0.125 C 
BRANCH  11  12
ATOM     12  N   UNL     1     -10.193  17.747  65.762  0.00  0.00    -0.217 NA
BRANCH  12  14
ATOM     13  C   UNL     1     -10.501  19.813  66.009  0.00  0.00    +0.019 C 
ATOM     14  C   UNL     1      -9.889  19.010  66.429  0.00  0.00    +0.073 C 
ATOM     15  C   UNL     1     -10.086  18.743  67.917  0.00  0.00    +0.019 C 
ENDBRANCH  12  14
ENDBRANCH  11  12
ENDBRANCH   9  11
ENDBRANCH   8   9
ENDBRANCH   7   8
ENDBRANCH   1   7
BRANCH   4  16
ATOM     16  C   UNL     1     -13.348  15.561  72.013  0.00  0.00    +0.115 C 
BRANCH  16  17
ATOM     17  C   UNL     1     -12.985  15.464  73.439  0.00  0.00    +0.265 C 
ATOM     18  O   UNL     1     -12.754  14.336  73.917  0.00  0.00    -0.271 OA
ATOM     19  N   UNL     1     -12.586  16.630  74.145  0.00  0.00    -0.087 NA
ENDBRANCH  16  17
ENDBRANCH   4  16
TORSDOF 8
ENDMDL
MODEL 8
REMARK VINA RESULT:      -5.7      1.992      6.729
REMARK  Name = 
REMARK  8 active torsions:
REMARK  status: ('A' for Active; 'I' for Inactive)
REMARK    1  A    between atoms: C_2  and  N_4
REMARK    2  A    between atoms: N_4  and  C_5
REMARK    3  A    between atoms: C_5  and  C_6
REMARK    4  A    between atoms: C_6  and  C_8
REMARK    5  A    between atoms: C_8  and  O_9
REMARK    6  A    between atoms: O_9  and  C_10
REMARK    7  A    between atoms: C_13  and  C_14
REMARK    8  A    between atoms: C_14  and  C_15
REMARK                            x       y       z     vdW  Elec       q    Type
REMARK                         _______ _______ _______ _____ _____    ______ ____
ROOT
ATOM      1  C   UNL     1     -10.821  14.917  68.185  0.00  0.00    +0.139 A 
ATOM      2  C   UNL     1     -11.640  13.882  68.619  0.00  0.00    +0.037 A 
ATOM      3  C   UNL     1     -12.225  14.050  69.866  0.00  0.00    -0.001 A 
ATOM      4  C   UNL     1     -11.943  15.134  70.663  0.00  0.00    -0.013 A 
ATOM      5  C   UNL     1     -11.275  16.209  70.125  0.00  0.00    -0.001 A 
ATOM      6  C   UNL     1     -10.597  16.050  68.930  0.00  0.00    +0.037 A 
ENDROOT
BRANCH   1   7
ATOM      7  O   UNL     1      -9.947  14.590  67.145  0.00  0.00    -0.473 OA
BRANCH   7   8
ATOM      8  C   UNL     1      -9.760  15.604  66.158  0.00  0.00    +0.240 C 
BRANCH   8   9
ATOM      9  C   UNL     1     -11.318  15.611  65.525  0.00  0.00    +0.213 C 
ATOM     10  O   UNL     1     -10.876  16.515  64.350  0.00  0.00    -0.218 OA
BRANCH   9  11
ATOM     11  C   UNL     1     -11.003  14.226  64.626  0.00  0.00    +0.125 C 
BRANCH  11  12
ATOM     12  N   UNL     1     -12.365  13.845  64.258  0.00  0.00    -0.217 NA
BRANCH  12  14
ATOM     13  C   UNL     1     -12.541  11.925  63.418  0.00  0.00    +0.019 C 
ATOM     14  C   UNL     1     -12.434  12.393  64.401  0.00  0.00    +0.073 C 
ATOM     15  C   UNL     1     -11.185  12.000  65.182  0.00  0.00    +0.019 C 
ENDBRANCH  12  14
ENDBRANCH  11  12
ENDBRANCH   9  11
ENDBRANCH   8   9
ENDBRANCH   7   8
ENDBRANCH   1   7
BRANCH   4  16
ATOM     16  C   UNL     1     -12.131  14.955  72.135  0.00  0.00    +0.115 C 
BRANCH  16  17
ATOM     17  C   UNL     1     -13.568  14.848  72.448  0.00  0.00    +0.265 C 
ATOM     18  O   UNL     1     -14.277  15.869  72.340  0.00  0.00    -0.271 OA
ATOM     19  N   UNL     1     -14.177  13.569  72.539  0.00  0.00    -0.087 NA
ENDBRANCH  16  17
ENDBRANCH   4  16
TORSDOF 8
ENDMDL
MODEL 9
REMARK VINA RESULT:      -5.6      2.182      6.855
REMARK  Name = 
REMARK  8 active torsions:
REMARK  status: ('A' for Active; 'I' for Inactive)
REMARK    1  A    between atoms: C_2  and  N_4
REMARK    2  A    between atoms: N_4  and  C_5
REMARK    3  A    between atoms: C_5  and  C_6
REMARK    4  A    between atoms: C_6  and  C_8
REMARK    5  A    between atoms: C_8  and  O_9
REMARK    6  A    between atoms: O_9  and  C_10
REMARK    7  A    between atoms: C_13  and  C_14
REMARK    8  A    between atoms: C_14  and  C_15
REMARK                            x       y       z     vdW  Elec       q    Type
REMARK                         _______ _______ _______ _____ _____    ______ ____
ROOT
ATOM      1  C   UNL     1     -11.833  12.149  68.977  0.00  0.00    +0.139 A 
ATOM      2  C   UNL     1     -11.895  13.527  69.144  0.00  0.00    +0.037 A 
ATOM      3  C   UNL     1     -12.380  13.971  70.366  0.00  0.00    -0.001 A 
ATOM      4  C   UNL     1     -12.853  13.102  71.322  0.00  0.00    -0.013 A 
ATOM      5  C   UNL     1     -12.608  11.756  71.187  0.00  0.00    -0.001 A 
ATOM      6  C   UNL     1     -12.218  11.263  69.955  0.00  0.00    +0.037 A 
ENDROOT
BRANCH   1   7
ATOM      7  O   UNL     1     -11.723  11.713  67.654  0.00  0.00    -0.473 OA
BRANCH   7   8
ATOM      8  C   UNL     1     -10.650  12.285  66.907  0.00  0.00    +0.240 C 
BRANCH   8   9
ATOM      9  C   UNL     1     -11.166  11.840  65.369  0.00  0.00    +0.213 C 
ATOM     10  O   UNL     1     -12.532  12.533  65.587  0.00  0.00    -0.218 OA
BRANCH   9  11
ATOM     11  C   UNL     1     -10.521  13.242  64.702  0.00  0.00    +0.125 C 
BRANCH  11  12
ATOM     12  N   UNL     1     -10.330  14.036  65.913  0.00  0.00    -0.217 NA
BRANCH  12  14
ATOM     13  C   UNL     1     -10.987  15.765  64.910  0.00  0.00    +0.019 C 
ATOM     14  C   UNL     1     -10.115  15.410  65.467  0.00  0.00    +0.073 C 
ATOM     15  C   UNL     1      -9.775  16.199  66.726  0.00  0.00    +0.019 C 
ENDBRANCH  12  14
ENDBRANCH  11  12
ENDBRANCH   9  11
ENDBRANCH   8   9
ENDBRANCH   7   8
ENDBRANCH   1   7
BRANCH   4  16
ATOM     16  C   UNL     1     -13.845  13.649  72.296  0.00  0.00    +0.115 C 
BRANCH  16  17
ATOM     17  C   UNL     1     -13.396  14.966  72.785  0.00  0.00    +0.265 C 
ATOM     18  O   UNL     1     -14.090  15.967  72.519  0.00  0.00    -0.271 OA
ATOM     19  N   UNL     1     -12.403  15.040  73.798  0.00  0.00    -0.087 NA
ENDBRANCH  16  17
ENDBRANCH   4  16
TORSDOF 8
ENDMDL
