MODEL 1
REMARK VINA RESULT:      -4.8      0.000      0.000
REMARK  Name = 
REMARK  2 active torsions:
REMARK  status: ('A' for Active; 'I' for Inactive)
REMARK    1  A    between atoms: C_5  and  C_6
REMARK    2  A    between atoms: C_8  and  C_9
REMARK                            x       y       z     vdW  Elec       q    Type
REMARK                         _______ _______ _______ _____ _____    ______ ____
ROOT
ATOM      1  C   UNL     1     -12.050  13.966  64.248  0.00  0.00    +0.056 C 
ATOM      2  C   UNL     1     -11.093  14.612  65.197  0.00  0.00    +0.098 A 
ATOM      3  C   UNL     1     -10.832  15.976  65.154  0.00  0.00    +0.207 A 
ATOM      4  O   UNL     1     -11.377  16.715  64.100  0.00  0.00    -0.286 OA
ATOM      5  C   UNL     1     -10.323  16.601  66.281  0.00  0.00    +0.051 A 
ATOM      6  C   UNL     1     -10.197  15.927  67.489  0.00  0.00    +0.031 A 
ATOM      7  C   UNL     1     -10.166  14.542  67.371  0.00  0.00    +0.097 A 
ATOM      8  N   UNL     1     -10.696  13.917  66.291  0.00  0.00    -0.245 NA
ENDROOT
BRANCH   5   9
ATOM      9  C   UNL     1     -10.169  18.089  66.322  0.00  0.00    +0.212 C 
ATOM     10  O   UNL     1      -8.838  18.324  65.938  0.00  0.00    -0.215 OA
ENDBRANCH   5   9
BRANCH   6  11
ATOM     11  C   UNL     1     -10.547  16.577  68.791  0.00  0.00    +0.210 C 
ATOM     12  O   UNL     1     -11.910  16.387  69.056  0.00  0.00    -0.215 OA
ENDBRANCH   6  11
TORSDOF 2
ENDMDL
MODEL 2
REMARK VINA RESULT:      -4.7      1.904      3.781
REMARK  Name = 
REMARK  2 active torsions:
REMARK  status: ('A' for Active; 'I' for Inactive)
REMARK    1  A    between atoms: C_5  and  C_6
REMARK    2  A    between atoms: C_8  and  C_9
REMARK                            x       y       z     vdW  Elec       q    Type
REMARK                         _______ _______ _______ _____ _____    ______ ____
ROOT
ATOM      1  C   UNL     1     -11.294  10.994  67.355  0.00  0.00    +0.056 C 
ATOM      2  C   UNL     1     -11.721  12.375  66.978  0.00  0.00    +0.098 A 
ATOM      3  C   UNL     1     -11.355  13.484  67.731  0.00  0.00    +0.207 A 
ATOM      4  O   UNL     1     -10.695  13.264  68.943  0.00  0.00    -0.286 OA
ATOM      5  C   UNL     1     -11.369  14.737  67.139  0.00  0.00    +0.051 A 
ATOM      6  C   UNL     1     -11.607  14.893  65.779  0.00  0.00    +0.031 A 
ATOM      7  C   UNL     1     -12.264  13.820  65.186  0.00  0.00    +0.097 A 
ATOM      8  N   UNL     1     -12.224  12.582  65.736  0.00  0.00    -0.245 NA
ENDROOT
BRANCH   5   9
ATOM      9  C   UNL     1     -10.841  15.931  67.871  0.00  0.00    +0.212 C 
ATOM     10  O   UNL     1     -11.890  16.326  68.720  0.00  0.00    -0.215 OA
ENDBRANCH   5   9
BRANCH   6  11
ATOM     11  C   UNL     1     -10.825  15.865  64.952  0.00  0.00    +0.210 C 
ATOM     12  O   UNL     1     -11.666  16.445  63.994  0.00  0.00    -0.215 OA
ENDBRANCH   6  11
TORSDOF 2
ENDMDL
MODEL 3
REMARK VINA RESULT:      -4.6      1.888      4.224
REMARK  Name = 
REMARK  2 active torsions:
REMARK  status: ('A' for Active; 'I' for Inactive)
REMARK    1  A    between atoms: C_5  and  C_6
REMARK    2  A    between atoms: C_8  and  C_9
REMARK                            x       y       z     vdW  Elec       q    Type
REMARK                         _______ _______ _______ _____ _____    ______ ____
ROOT
ATOM      1  C   UNL     1     -10.501  18.716  67.264  0.00  0.00    +0.056 C 
ATOM      2  C   UNL     1     -10.453  17.266  66.911  0.00  0.00    +0.098 A 
ATOM      3  C   UNL     1     -10.909  16.287  67.785  0.00  0.00    +0.207 A 
ATOM      4  O   UNL     1     -11.280  16.680  69.074  0.00  0.00    -0.286 OA
ATOM      5  C   UNL     1     -11.267  15.047  67.283  0.00  0.00    +0.051 A 
ATOM      6  C   UNL     1     -11.313  14.805  65.915  0.00  0.00    +0.031 A 
ATOM      7  C   UNL     1     -10.558  15.689  65.152  0.00  0.00    +0.097 A 
ATOM      8  N   UNL     1     -10.234  16.920  65.619  0.00  0.00    -0.245 NA
ENDROOT
BRANCH   5   9
ATOM      9  C   UNL     1     -11.900  14.019  68.168  0.00  0.00    +0.212 C 
ATOM     10  O   UNL     1     -10.832  13.224  68.618  0.00  0.00    -0.215 OA
ENDBRANCH   5   9
BRANCH   6  11
ATOM     11  C   UNL     1     -12.419  14.009  65.295  0.00  0.00    +0.210 C 
ATOM     12  O   UNL     1     -12.628  14.447  63.980  0.00  0.00    -0.215 OA
ENDBRANCH   6  11
TORSDOF 2
ENDMDL
MODEL 4
REMARK VINA RESULT:      -4.5      2.446      4.533
REMARK  Name = 
REMARK  2 active torsions:
REMARK  status: ('A' for Active; 'I' for Inactive)
REMARK    1  A    between atoms: C_5  and  C_6
REMARK    2  A    between atoms: C_8  and  C_9
REMARK                            x       y       z     vdW  Elec       q    Type
REMARK                         _______ _______ _______ _____ _____    ______ ____
ROOT
ATOM      1  C   UNL     1     -11.634  13.456  69.421  0.00  0.00    +0.056 C 
ATOM      2  C   UNL     1     -11.139  13.733  68.039  0.00  0.00    +0.098 A 
ATOM      3  C   UNL     1     -11.433  12.889  66.975  0.00  0.00    +0.207 A 
ATOM      4  O   UNL     1     -12.086  11.685  67.256  0.00  0.00    -0.286 OA
ATOM      5  C   UNL     1     -11.360  13.380  65.682  0.00  0.00    +0.051 A 
ATOM      6  C   UNL     1     -11.134  14.728  65.431  0.00  0.00    +0.031 A 
ATOM      7  C   UNL     1     -10.545  15.415  66.487  0.00  0.00    +0.097 A 
ATOM      8  N   UNL     1     -10.643  14.963  67.761  0.00  0.00    -0.245 NA
ENDROOT
BRANCH   5   9
ATOM      9  C   UNL     1     -11.811  12.547  64.524  0.00  0.00    +0.212 C 
ATOM     10  O   UNL     1     -13.208  12.475  64.654  0.00  0.00    -0.215 OA
ENDBRANCH   5   9
BRANCH   6  11
ATOM     11  C   UNL     1     -11.875  15.462  64.358  0.00  0.00    +0.210 C 
ATOM     12  O   UNL     1     -11.328  16.743  64.205  0.00  0.00    -0.215 OA
ENDBRANCH   6  11
TORSDOF 2
ENDMDL
MODEL 5
REMARK VINA RESULT:      -4.5      2.282      3.696
REMARK  Name = 
REMARK  2 active torsions:
REMARK  status: ('A' for Active; 'I' for Inactive)
REMARK    1  A    between atoms: C_5  and  C_6
REMARK    2  A    between atoms: C_8  and  C_9
REMARK                            x       y       z     vdW  Elec       q    Type
REMARK                         _______ _______ _______ _____ _____    ______ ____
ROOT
ATOM      1  C   UNL     1     -12.469  11.808  63.509  0.00  0.00    +0.056 C 
ATOM      2  C   UNL     1     -12.376  13.013  64.387  0.00  0.00    +0.098 A 
ATOM      3  C   UNL     1     -11.989  12.917  65.718  0.00  0.00    +0.207 A 
ATOM      4  O   UNL     1     -11.829  11.640  66.264  0.00  0.00    -0.286 OA
ATOM      5  C   UNL     1     -11.486  14.038  66.358  0.00  0.00    +0.051 A 
ATOM      6  C   UNL     1     -11.232  15.215  65.663  0.00  0.00    +0.031 A 
ATOM      7  C   UNL     1     -11.925  15.333  64.464  0.00  0.00    +0.097 A 
ATOM      8  N   UNL     1     -12.388  14.239  63.810  0.00  0.00    -0.245 NA
ENDROOT
BRANCH   5   9
ATOM      9  C   UNL     1     -10.923  13.939  67.740  0.00  0.00    +0.212 C 
ATOM     10  O   UNL     1     -11.975  14.327  68.587  0.00  0.00    -0.215 OA
ENDBRANCH   5   9
BRANCH   6  11
ATOM     11  C   UNL     1     -10.002  16.028  65.920  0.00  0.00    +0.210 C 
ATOM     12  O   UNL     1     -10.218  17.347  65.500  0.00  0.00    -0.215 OA
ENDBRANCH   6  11
TORSDOF 2
ENDMDL
MODEL 6
REMARK VINA RESULT:      -4.4      2.356      3.860
REMARK  Name = 
REMARK  2 active torsions:
REMARK  status: ('A' for Active; 'I' for Inactive)
REMARK    1  A    between atoms: C_5  and  C_6
REMARK    2  A    between atoms: C_8  and  C_9
REMARK                            x       y       z     vdW  Elec       q    Type
REMARK                         _______ _______ _______ _____ _____    ______ ____
ROOT
ATOM      1  C   UNL     1      -9.810  16.964  68.005  0.00  0.00    +0.056 C 
ATOM      2  C   UNL     1     -10.776  15.916  67.558  0.00  0.00    +0.098 A 
ATOM      3  C   UNL     1     -10.884  15.545  66.224  0.00  0.00    +0.207 A 
ATOM      4  O   UNL     1     -10.167  16.283  65.278  0.00  0.00    -0.286 OA
ATOM      5  C   UNL     1     -11.427  14.310  65.908  0.00  0.00    +0.051 A 
ATOM      6  C   UNL     1     -11.737  13.381  66.895  0.00  0.00    +0.031 A 
ATOM      7  C   UNL     1     -11.904  13.928  68.162  0.00  0.00    +0.097 A 
ATOM      8  N   UNL     1     -11.346  15.118  68.494  0.00  0.00    -0.245 NA
ENDROOT
BRANCH   5   9
ATOM      9  C   UNL     1     -11.423  13.815  64.496  0.00  0.00    +0.212 C 
ATOM     10  O   UNL     1     -12.579  14.367  63.918  0.00  0.00    -0.215 OA
ENDBRANCH   5   9
BRANCH   6  11
ATOM     11  C   UNL     1     -11.442  11.924  66.721  0.00  0.00    +0.210 C 
ATOM     12  O   UNL     1     -12.088  11.195  67.728  0.00  0.00    -0.215 OA
ENDBRANCH   6  11
TORSDOF 2
ENDMDL
MODEL 7
REMARK VINA RESULT:      -4.4      3.744      5.260
REMARK  Name = 
REMARK  2 active torsions:
REMARK  status: ('A' for Active; 'I' for Inactive)
REMARK    1  A    between atoms: C_5  and  C_6
REMARK    2  A    between atoms: C_8  and  C_9
REMARK                            x       y       z     vdW  Elec       q    Type
REMARK                         _______ _______ _______ _____ _____    ______ ____
ROOT
ATOM      1  C   UNL     1      -9.076  10.720  63.077  0.00  0.00    +0.056 C 
ATOM      2  C   UNL     1     -10.329  11.077  63.807  0.00  0.00    +0.098 A 
ATOM      3  C   UNL     1     -10.348  11.248  65.186  0.00  0.00    +0.207 A 
ATOM      4  O   UNL     1      -9.189  10.931  65.901  0.00  0.00    -0.286 OA
ATOM      5  C   UNL     1     -11.363  11.994  65.761  0.00  0.00    +0.051 A 
ATOM      6  C   UNL     1     -12.282  12.688  64.982  0.00  0.00    +0.031 A 
ATOM      7  C   UNL     1     -12.396  12.219  63.678  0.00  0.00    +0.097 A 
ATOM      8  N   UNL     1     -11.392  11.521  63.092  0.00  0.00    -0.245 NA
ENDROOT
BRANCH   5   9
ATOM      9  C   UNL     1     -11.335  12.323  67.220  0.00  0.00    +0.212 C 
ATOM     10  O   UNL     1     -12.120  11.329  67.829  0.00  0.00    -0.215 OA
ENDBRANCH   5   9
BRANCH   6  11
ATOM     11  C   UNL     1     -12.732  14.069  65.342  0.00  0.00    +0.210 C 
ATOM     12  O   UNL     1     -12.690  14.885  64.204  0.00  0.00    -0.215 OA
ENDBRANCH   6  11
TORSDOF 2
ENDMDL
MODEL 8
REMARK VINA RESULT:      -4.3      2.933      3.789
REMARK  Name = 
REMARK  2 active torsions:
REMARK  status: ('A' for Active; 'I' for Inactive)
REMARK    1  A    between atoms: C_5  and  C_6
REMARK    2  A    between atoms: C_8  and  C_9
REMARK                            x       y       z     vdW  Elec       q    Type
REMARK                         _______ _______ _______ _____ _____    ______ ____
ROOT
ATOM      1  C   UNL     1     -12.538  11.934  63.361  0.00  0.00    +0.056 C 
ATOM      2  C   UNL     1     -11.712  12.243  64.566  0.00  0.00    +0.098 A 
ATOM      3  C   UNL     1     -12.054  13.266  65.442  0.00  0.00    +0.207 A 
ATOM      4  O   UNL     1     -13.116  14.104  65.089  0.00  0.00    -0.286 OA
ATOM      5  C   UNL     1     -11.561  13.240  66.736  0.00  0.00    +0.051 A 
ATOM      6  C   UNL     1     -10.849  12.149  67.219  0.00  0.00    +0.031 A 
ATOM      7  C   UNL     1     -10.287  11.350  66.229  0.00  0.00    +0.097 A 
ATOM      8  N   UNL     1     -10.786  11.339  64.968  0.00  0.00    -0.245 NA
ENDROOT
BRANCH   5   9
ATOM      9  C   UNL     1     -12.024  14.241  67.749  0.00  0.00    +0.212 C 
ATOM     10  O   UNL     1     -11.173  15.346  67.579  0.00  0.00    -0.215 OA
ENDBRANCH   5   9
BRANCH   6  11
ATOM     11  C   UNL     1     -11.068  11.617  68.601  0.00  0.00    +0.210 C 
ATOM     12  O   UNL     1     -12.232  10.838  68.621  0.00  0.00    -0.215 OA
ENDBRANCH   6  11
TORSDOF 2
ENDMDL
MODEL 9
REMARK VINA RESULT:      -4.3      3.872      5.895
REMARK  Name = 
REMARK  2 active torsions:
REMARK  status: ('A' for Active; 'I' for Inactive)
REMARK    1  A    between atoms: C_5  and  C_6
REMARK    2  A    between atoms: C_8  and  C_9
REMARK                            x       y       z     vdW  Elec       q    Type
REMARK                         _______ _______ _______ _____ _____    ______ ____
ROOT
ATOM      1  C   UNL     1     -12.203  10.684  71.061  0.00  0.00    +0.056 C 
ATOM      2  C   UNL     1     -12.437  12.045  70.493  0.00  0.00    +0.098 A 
ATOM      3  C   UNL     1     -13.025  13.058  71.241  0.00  0.00    +0.207 A 
ATOM      4  O   UNL     1     -13.531  12.731  72.502  0.00  0.00    -0.286 OA
ATOM      5  C   UNL     1     -12.822  14.377  70.870  0.00  0.00    +0.051 A 
ATOM      6  C   UNL     1     -11.937  14.715  69.853  0.00  0.00    +0.031 A 
ATOM      7  C   UNL     1     -11.655  13.678  68.971  0.00  0.00    +0.097 A 
ATOM      8  N   UNL     1     -11.813  12.382  69.338  0.00  0.00    -0.245 NA
ENDROOT
BRANCH   5   9
ATOM      9  C   UNL     1     -13.313  15.496  71.733  0.00  0.00    +0.212 C 
ATOM     10  O   UNL     1     -14.694  15.564  71.484  0.00  0.00    -0.215 OA
ENDBRANCH   5   9
BRANCH   6  11
ATOM     11  C   UNL     1     -11.019  15.892  69.970  0.00  0.00    +0.210 C 
ATOM     12  O   UNL     1     -11.312  16.815  68.957  0.00  0.00    -0.215 OA
ENDBRANCH   6  11
TORSDOF 2
ENDMDL
