MODEL 1
REMARK VINA RESULT:      -4.1      0.000      0.000
REMARK  Name = 
REMARK  4 active torsions:
REMARK  status: ('A' for Active; 'I' for Inactive)
REMARK    1  A    between atoms: C_2  and  C_3
REMARK    2  A    between atoms: C_3  and  C_5
REMARK    3  A    between atoms: C_5  and  C_6
REMARK    4  A    between atoms: C_6  and  C_7
REMARK                            x       y       z     vdW  Elec       q    Type
REMARK                         _______ _______ _______ _____ _____    ______ ____
ROOT
ATOM      1  C   UNL     1     -10.760  13.523  64.661  0.00  0.00    +0.035 C 
ENDROOT
BRANCH   1   2
ATOM      2  C   UNL     1     -11.859  12.860  63.607  0.00  0.00    +0.114 C 
ATOM      3  N   UNL     1     -12.896  12.601  64.769  0.00  0.00    -0.128 NA
BRANCH   2   5
ATOM      4  C   UNL     1     -10.047  11.228  63.170  0.00  0.00    -0.003 C 
ATOM      5  C   UNL     1     -11.187  11.383  63.688  0.00  0.00    -0.008 C 
ENDBRANCH   2   5
ENDBRANCH   1   2
BRANCH   1   6
ATOM      6  C   UNL     1     -11.694  14.677  64.907  0.00  0.00    +0.116 C 
BRANCH   6   7
ATOM      7  C   UNL     1     -11.117  16.015  64.865  0.00  0.00    +0.365 C 
ATOM      8  O   UNL     1      -9.848  16.160  65.356  0.00  0.00    -0.246 OA
ATOM      9  O   UNL     1     -11.599  16.663  63.889  0.00  0.00    -0.246 OA
ENDBRANCH   6   7
ENDBRANCH   1   6
TORSDOF 4
ENDMDL
MODEL 2
REMARK VINA RESULT:      -4.0      0.901      1.498
REMARK  Name = 
REMARK  4 active torsions:
REMARK  status: ('A' for Active; 'I' for Inactive)
REMARK    1  A    between atoms: C_2  and  C_3
REMARK    2  A    between atoms: C_3  and  C_5
REMARK    3  A    between atoms: C_5  and  C_6
REMARK    4  A    between atoms: C_6  and  C_7
REMARK                            x       y       z     vdW  Elec       q    Type
REMARK                         _______ _______ _______ _____ _____    ______ ____
ROOT
ATOM      1  C   UNL     1     -10.707  13.737  64.955  0.00  0.00    +0.035 C 
ENDROOT
BRANCH   1   2
ATOM      2  C   UNL     1     -12.321  13.345  64.933  0.00  0.00    +0.114 C 
ATOM      3  N   UNL     1     -12.113  12.205  66.003  0.00  0.00    -0.128 NA
BRANCH   2   5
ATOM      4  C   UNL     1     -11.137  11.626  63.596  0.00  0.00    -0.003 C 
ATOM      5  C   UNL     1     -12.161  12.363  63.649  0.00  0.00    -0.008 C 
ENDBRANCH   2   5
ENDBRANCH   1   2
BRANCH   1   6
ATOM      6  C   UNL     1     -11.034  15.040  65.632  0.00  0.00    +0.116 C 
BRANCH   6   7
ATOM      7  C   UNL     1     -10.784  16.259  64.874  0.00  0.00    +0.365 C 
ATOM      8  O   UNL     1     -11.694  16.587  63.906  0.00  0.00    -0.246 OA
ATOM      9  O   UNL     1     -10.150  17.091  65.589  0.00  0.00    -0.246 OA
ENDBRANCH   6   7
ENDBRANCH   1   6
TORSDOF 4
ENDMDL
MODEL 3
REMARK VINA RESULT:      -4.0      7.255      7.979
REMARK  Name = 
REMARK  4 active torsions:
REMARK  status: ('A' for Active; 'I' for Inactive)
REMARK    1  A    between atoms: C_2  and  C_3
REMARK    2  A    between atoms: C_3  and  C_5
REMARK    3  A    between atoms: C_5  and  C_6
REMARK    4  A    between atoms: C_6  and  C_7
REMARK                            x       y       z     vdW  Elec       q    Type
REMARK                         _______ _______ _______ _____ _____    ______ ____
ROOT
ATOM      1  C   UNL     1     -12.813  15.667  71.171  0.00  0.00    +0.035 C 
ENDROOT
BRANCH   1   2
ATOM      2  C   UNL     1     -11.378  15.332  70.404  0.00  0.00    +0.114 C 
ATOM      3  N   UNL     1     -11.721  16.317  69.219  0.00  0.00    -0.128 NA
BRANCH   2   5
ATOM      4  C   UNL     1     -12.135  12.973  70.362  0.00  0.00    -0.003 C 
ATOM      5  C   UNL     1     -11.972  14.013  69.666  0.00  0.00    -0.008 C 
ENDBRANCH   2   5
ENDBRANCH   1   2
BRANCH   1   6
ATOM      6  C   UNL     1     -12.058  16.058  72.412  0.00  0.00    +0.116 C 
BRANCH   6   7
ATOM      7  C   UNL     1     -12.448  15.406  73.655  0.00  0.00    +0.365 C 
ATOM      8  O   UNL     1     -12.518  16.192  74.774  0.00  0.00    -0.246 OA
ATOM      9  O   UNL     1     -13.207  14.423  73.409  0.00  0.00    -0.246 OA
ENDBRANCH   6   7
ENDBRANCH   1   6
TORSDOF 4
ENDMDL
MODEL 4
REMARK VINA RESULT:      -3.8      2.036      3.160
REMARK  Name = 
REMARK  4 active torsions:
REMARK  status: ('A' for Active; 'I' for Inactive)
REMARK    1  A    between atoms: C_2  and  C_3
REMARK    2  A    between atoms: C_3  and  C_5
REMARK    3  A    between atoms: C_5  and  C_6
REMARK    4  A    between atoms: C_6  and  C_7
REMARK                            x       y       z     vdW  Elec       q    Type
REMARK                         _______ _______ _______ _____ _____    ______ ____
ROOT
ATOM      1  C   UNL     1     -12.419  14.024  65.782  0.00  0.00    +0.035 C 
ENDROOT
BRANCH   1   2
ATOM      2  C   UNL     1     -11.211  13.322  66.680  0.00  0.00    +0.114 C 
ATOM      3  N   UNL     1     -11.948  11.927  66.679  0.00  0.00    -0.128 NA
BRANCH   2   5
ATOM      4  C   UNL     1     -11.634  15.007  68.448  0.00  0.00    -0.003 C 
ATOM      5  C   UNL     1     -11.846  13.815  68.092  0.00  0.00    -0.008 C 
ENDBRANCH   2   5
ENDBRANCH   1   2
BRANCH   1   6
ATOM      6  C   UNL     1     -11.396  14.517  64.794  0.00  0.00    +0.116 C 
BRANCH   6   7
ATOM      7  C   UNL     1     -11.056  15.932  64.846  0.00  0.00    +0.365 C 
ATOM      8  O   UNL     1      -9.831  16.259  65.361  0.00  0.00    -0.246 OA
ATOM      9  O   UNL     1     -11.640  16.552  63.908  0.00  0.00    -0.246 OA
ENDBRANCH   6   7
ENDBRANCH   1   6
TORSDOF 4
ENDMDL
MODEL 5
REMARK VINA RESULT:      -3.8      6.866      7.930
REMARK  Name = 
REMARK  4 active torsions:
REMARK  status: ('A' for Active; 'I' for Inactive)
REMARK    1  A    between atoms: C_2  and  C_3
REMARK    2  A    between atoms: C_3  and  C_5
REMARK    3  A    between atoms: C_5  and  C_6
REMARK    4  A    between atoms: C_6  and  C_7
REMARK                            x       y       z     vdW  Elec       q    Type
REMARK                         _______ _______ _______ _____ _____    ______ ____
ROOT
ATOM      1  C   UNL     1     -12.125  15.904  71.559  0.00  0.00    +0.035 C 
ENDROOT
BRANCH   1   2
ATOM      2  C   UNL     1     -13.166  14.759  72.161  0.00  0.00    +0.114 C 
ATOM      3  N   UNL     1     -14.333  15.813  72.294  0.00  0.00    -0.128 NA
BRANCH   2   5
ATOM      4  C   UNL     1     -12.517  16.119  74.128  0.00  0.00    -0.003 C 
ATOM      5  C   UNL     1     -12.637  14.943  73.686  0.00  0.00    -0.008 C 
ENDBRANCH   2   5
ENDBRANCH   1   2
BRANCH   1   6
ATOM      6  C   UNL     1     -11.532  14.877  70.634  0.00  0.00    +0.116 C 
BRANCH   6   7
ATOM      7  C   UNL     1     -11.708  15.096  69.204  0.00  0.00    +0.365 C 
ATOM      8  O   UNL     1     -12.134  14.030  68.459  0.00  0.00    -0.246 OA
ATOM      9  O   UNL     1     -12.017  16.305  68.986  0.00  0.00    -0.246 OA
ENDBRANCH   6   7
ENDBRANCH   1   6
TORSDOF 4
ENDMDL
MODEL 6
REMARK VINA RESULT:      -3.7      3.576      5.765
REMARK  Name = 
REMARK  4 active torsions:
REMARK  status: ('A' for Active; 'I' for Inactive)
REMARK    1  A    between atoms: C_2  and  C_3
REMARK    2  A    between atoms: C_3  and  C_5
REMARK    3  A    between atoms: C_5  and  C_6
REMARK    4  A    between atoms: C_6  and  C_7
REMARK                            x       y       z     vdW  Elec       q    Type
REMARK                         _______ _______ _______ _____ _____    ______ ____
ROOT
ATOM      1  C   UNL     1     -10.314  17.928  66.498  0.00  0.00    +0.035 C 
ENDROOT
BRANCH   1   2
ATOM      2  C   UNL     1      -9.679  17.506  67.974  0.00  0.00    +0.114 C 
ATOM      3  N   UNL     1     -11.093  17.058  68.513  0.00  0.00    -0.128 NA
BRANCH   2   5
ATOM      4  C   UNL     1     -10.099  19.938  67.752  0.00  0.00    -0.003 C 
ATOM      5  C   UNL     1      -9.779  19.019  68.556  0.00  0.00    -0.008 C 
ENDBRANCH   2   5
ENDBRANCH   1   2
BRANCH   1   6
ATOM      6  C   UNL     1      -9.919  16.586  65.945  0.00  0.00    +0.116 C 
BRANCH   6   7
ATOM      7  C   UNL     1     -10.855  15.949  65.028  0.00  0.00    +0.365 C 
ATOM      8  O   UNL     1     -11.538  14.858  65.495  0.00  0.00    -0.246 OA
ATOM      9  O   UNL     1     -11.319  16.806  64.218  0.00  0.00    -0.246 OA
ENDBRANCH   6   7
ENDBRANCH   1   6
TORSDOF 4
ENDMDL
MODEL 7
REMARK VINA RESULT:      -3.7      6.037      6.935
REMARK  Name = 
REMARK  4 active torsions:
REMARK  status: ('A' for Active; 'I' for Inactive)
REMARK    1  A    between atoms: C_2  and  C_3
REMARK    2  A    between atoms: C_3  and  C_5
REMARK    3  A    between atoms: C_5  and  C_6
REMARK    4  A    between atoms: C_6  and  C_7
REMARK                            x       y       z     vdW  Elec       q    Type
REMARK                         _______ _______ _______ _____ _____    ______ ____
ROOT
ATOM      1  C   UNL     1     -11.808  15.961  71.363  0.00  0.00    +0.035 C 
ENDROOT
BRANCH   1   2
ATOM      2  C   UNL     1     -13.308  15.347  71.001  0.00  0.00    +0.114 C 
ATOM      3  N   UNL     1     -13.893  15.816  72.390  0.00  0.00    -0.128 NA
BRANCH   2   5
ATOM      4  C   UNL     1     -13.691  13.299  72.342  0.00  0.00    -0.003 C 
ATOM      5  C   UNL     1     -12.922  13.853  71.509  0.00  0.00    -0.008 C 
ENDBRANCH   2   5
ENDBRANCH   1   2
BRANCH   1   6
ATOM      6  C   UNL     1     -11.245  15.311  70.128  0.00  0.00    +0.116 C 
BRANCH   6   7
ATOM      7  C   UNL     1     -11.571  15.929  68.849  0.00  0.00    +0.365 C 
ATOM      8  O   UNL     1     -11.100  17.196  68.633  0.00  0.00    -0.246 OA
ATOM      9  O   UNL     1     -11.697  15.038  67.958  0.00  0.00    -0.246 OA
ENDBRANCH   6   7
ENDBRANCH   1   6
TORSDOF 4
ENDMDL
MODEL 8
REMARK VINA RESULT:      -3.5      6.364      7.080
REMARK  Name = 
REMARK  4 active torsions:
REMARK  status: ('A' for Active; 'I' for Inactive)
REMARK    1  A    between atoms: C_2  and  C_3
REMARK    2  A    between atoms: C_3  and  C_5
REMARK    3  A    between atoms: C_5  and  C_6
REMARK    4  A    between atoms: C_6  and  C_7
REMARK                            x       y       z     vdW  Elec       q    Type
REMARK                         _______ _______ _______ _____ _____    ______ ____
ROOT
ATOM      1  C   UNL     1     -12.254  14.161  70.721  0.00  0.00    +0.035 C 
ENDROOT
BRANCH   1   2
ATOM      2  C   UNL     1     -11.070  15.192  70.178  0.00  0.00    +0.114 C 
ATOM      3  N   UNL     1     -12.118  16.061  69.380  0.00  0.00    -0.128 NA
BRANCH   2   5
ATOM      4  C   UNL     1     -11.514  14.169  67.965  0.00  0.00    -0.003 C 
ATOM      5  C   UNL     1     -10.689  14.240  68.918  0.00  0.00    -0.008 C 
ENDBRANCH   2   5
ENDBRANCH   1   2
BRANCH   1   6
ATOM      6  C   UNL     1     -13.072  15.341  71.174  0.00  0.00    +0.116 C 
BRANCH   6   7
ATOM      7  C   UNL     1     -14.298  15.052  71.907  0.00  0.00    +0.365 C 
ATOM      8  O   UNL     1     -15.466  15.528  71.376  0.00  0.00    -0.246 OA
ATOM      9  O   UNL     1     -14.177  13.961  72.540  0.00  0.00    -0.246 OA
ENDBRANCH   6   7
ENDBRANCH   1   6
TORSDOF 4
ENDMDL
MODEL 9
REMARK VINA RESULT:      -3.5      2.416      2.843
REMARK  Name = 
REMARK  4 active torsions:
REMARK  status: ('A' for Active; 'I' for Inactive)
REMARK    1  A    between atoms: C_2  and  C_3
REMARK    2  A    between atoms: C_3  and  C_5
REMARK    3  A    between atoms: C_5  and  C_6
REMARK    4  A    between atoms: C_6  and  C_7
REMARK                            x       y       z     vdW  Elec       q    Type
REMARK                         _______ _______ _______ _____ _____    ______ ____
ROOT
ATOM      1  C   UNL     1     -12.059  12.831  65.750  0.00  0.00    +0.035 C 
ENDROOT
BRANCH   1   2
ATOM      2  C   UNL     1     -11.203  13.603  64.555  0.00  0.00    +0.114 C 
ATOM      3  N   UNL     1     -12.489  14.374  64.060  0.00  0.00    -0.128 NA
BRANCH   2   5
ATOM      4  C   UNL     1     -12.520  11.874  63.364  0.00  0.00    -0.003 C 
ATOM      5  C   UNL     1     -11.369  12.370  63.510  0.00  0.00    -0.008 C 
ENDBRANCH   2   5
ENDBRANCH   1   2
BRANCH   1   6
ATOM      6  C   UNL     1     -12.318  14.154  66.418  0.00  0.00    +0.116 C 
BRANCH   6   7
ATOM      7  C   UNL     1     -11.699  14.369  67.720  0.00  0.00    +0.365 C 
ATOM      8  O   UNL     1     -11.404  15.661  68.061  0.00  0.00    -0.246 OA
ATOM      9  O   UNL     1     -12.071  13.469  68.530  0.00  0.00    -0.246 OA
ENDBRANCH   6   7
ENDBRANCH   1   6
TORSDOF 4
ENDMDL
