MODEL 1
REMARK VINA RESULT:      -7.3      0.000      0.000
REMARK  Name = 
REMARK  11 active torsions:
REMARK  status: ('A' for Active; 'I' for Inactive)
REMARK    1  A    between atoms: O_2  and  C_3
REMARK    2  A    between atoms: C_3  and  C_5
REMARK    3  A    between atoms: C_5  and  C_6
REMARK    4  A    between atoms: C_6  and  C_8
REMARK    5  A    between atoms: C_6  and  C_15
REMARK    6  A    between atoms: C_8  and  C_9
REMARK    7  A    between atoms: C_9  and  C_10
REMARK    8  A    between atoms: C_10  and  C_11
REMARK    9  A    between atoms: C_15  and  O_17
REMARK   10  A    between atoms: O_17  and  C_18
REMARK   11  A    between atoms: C_19  and  O_20
REMARK                            x       y       z     vdW  Elec       q    Type
REMARK                         _______ _______ _______ _____ _____    ______ ____
ROOT
ATOM      1  C   UNL     1      -9.203   9.949  67.057  0.00  0.00    +0.230 C 
ATOM      2  C   UNL     1     -10.414   8.695  67.181  0.00  0.00    +0.087 C 
ATOM      3  C   UNL     1      -9.268   7.611  66.772  0.00  0.00    +0.074 C 
ATOM      4  N   UNL     1      -9.842   6.347  66.580  0.00  0.00    -0.271 NA
ATOM      5  C   UNL     1     -10.925   5.982  67.448  0.00  0.00    +0.077 C 
ATOM      6  C   UNL     1     -10.321   5.904  68.846  0.00  0.00    +0.043 C 
ATOM      7  C   UNL     1     -10.423   7.297  69.393  0.00  0.00    -0.021 A 
ATOM      8  C   UNL     1     -10.782   7.264  70.735  0.00  0.00    +0.036 A 
ATOM      9  C   UNL     1     -11.587   8.269  71.222  0.00  0.00    +0.176 A 
ATOM     10  O   UNL     1     -12.469   8.364  72.303  0.00  0.00    -0.435 OA
ATOM     11  C   UNL     1     -13.244   9.538  72.102  0.00  0.00    +0.429 C 
ATOM     12  O   UNL     1     -12.343  10.322  71.326  0.00  0.00    -0.435 OA
ATOM     13  C   UNL     1     -11.506   9.490  70.587  0.00  0.00    +0.176 A 
ATOM     14  C   UNL     1     -10.848   9.602  69.371  0.00  0.00    +0.036 A 
ATOM     15  C   UNL     1      -8.760   5.433  66.870  0.00  0.00    +0.072 C 
ATOM     16  C   UNL     1      -7.790   6.118  67.780  0.00  0.00    +0.019 C 
ATOM     17  C   UNL     1      -8.215   7.581  67.803  0.00  0.00    +0.021 C 
ATOM     18  C   UNL     1      -8.698   8.242  65.573  0.00  0.00    +0.024 C 
ATOM     19  C   UNL     1     -10.202   8.524  68.773  0.00  0.00    -0.018 A 
ATOM     20  C   UNL     1      -8.920   9.522  65.499  0.00  0.00    +0.153 C 
ENDROOT
BRANCH  20  21
ATOM     21  O   UNL     1      -8.397  10.494  64.650  0.00  0.00    -0.472 OA
ATOM     22  C   UNL     1      -8.518  10.356  63.256  0.00  0.00    +0.252 C 
ENDBRANCH  20  21
BRANCH   1  23
ATOM     23  O   UNL     1     -10.234  11.047  66.653  0.00  0.00    -0.442 OA
BRANCH  23  24
ATOM     24  C   UNL     1     -10.060  12.292  67.152  0.00  0.00    +0.346 C 
ATOM     25  O   UNL     1      -8.975  12.890  66.975  0.00  0.00    -0.247 OA
BRANCH  24  26
ATOM     26  C   UNL     1     -11.279  12.983  67.688  0.00  0.00    +0.225 C 
ATOM     27  O   UNL     1     -12.339  12.103  67.855  0.00  0.00    -0.214 OA
BRANCH  26  28
ATOM     28  C   UNL     1     -10.912  13.527  69.064  0.00  0.00    +0.042 C 
BRANCH  28  29
ATOM     29  C   UNL     1     -12.111  13.686  69.957  0.00  0.00    +0.006 C 
BRANCH  29  30
ATOM     30  C   UNL     1     -11.998  14.845  70.910  0.00  0.00    +0.031 C 
BRANCH  30  31
ATOM     31  C   UNL     1     -13.101  14.877  71.937  0.00  0.00    +0.127 C 
ATOM     32  O   UNL     1     -14.184  15.589  71.417  0.00  0.00    -0.226 OA
ATOM     33  C   UNL     1     -13.576  13.458  72.217  0.00  0.00    +0.033 C 
ATOM     34  C   UNL     1     -12.630  15.443  73.247  0.00  0.00    +0.033 C 
ENDBRANCH  30  31
ENDBRANCH  29  30
ENDBRANCH  28  29
ENDBRANCH  26  28
BRANCH  26  35
ATOM     35  C   UNL     1     -11.649  14.166  66.838  0.00  0.00    +0.151 C 
BRANCH  35  36
ATOM     36  C   UNL     1     -12.341  13.772  65.572  0.00  0.00    +0.320 C 
ATOM     37  O   UNL     1     -13.569  14.048  65.406  0.00  0.00    -0.250 OA
BRANCH  36  39
ATOM     38  C   UNL     1     -11.662  12.529  63.596  0.00  0.00    +0.256 C 
ATOM     39  O   UNL     1     -11.595  13.676  64.392  0.00  0.00    -0.444 OA
ENDBRANCH  36  39
ENDBRANCH  35  36
ENDBRANCH  26  35
ENDBRANCH  24  26
ENDBRANCH  23  24
ENDBRANCH   1  23
TORSDOF 11
ENDMDL
MODEL 2
REMARK VINA RESULT:      -7.2      5.647      8.655
REMARK  Name = 
REMARK  11 active torsions:
REMARK  status: ('A' for Active; 'I' for Inactive)
REMARK    1  A    between atoms: O_2  and  C_3
REMARK    2  A    between atoms: C_3  and  C_5
REMARK    3  A    between atoms: C_5  and  C_6
REMARK    4  A    between atoms: C_6  and  C_8
REMARK    5  A    between atoms: C_6  and  C_15
REMARK    6  A    between atoms: C_8  and  C_9
REMARK    7  A    between atoms: C_9  and  C_10
REMARK    8  A    between atoms: C_10  and  C_11
REMARK    9  A    between atoms: C_15  and  O_17
REMARK   10  A    between atoms: O_17  and  C_18
REMARK   11  A    between atoms: C_19  and  O_20
REMARK                            x       y       z     vdW  Elec       q    Type
REMARK                         _______ _______ _______ _____ _____    ______ ____
ROOT
ATOM      1  C   UNL     1      -8.543  18.266  68.497  0.00  0.00    +0.230 C 
ATOM      2  C   UNL     1      -6.997  17.889  67.774  0.00  0.00    +0.087 C 
ATOM      3  C   UNL     1      -6.561  19.443  68.007  0.00  0.00    +0.074 C 
ATOM      4  N   UNL     1      -5.325  19.695  67.398  0.00  0.00    -0.271 NA
ATOM      5  C   UNL     1      -4.350  18.643  67.436  0.00  0.00    +0.077 C 
ATOM      6  C   UNL     1      -4.005  18.457  68.909  0.00  0.00    +0.043 C 
ATOM      7  C   UNL     1      -5.010  17.471  69.424  0.00  0.00    -0.021 A 
ATOM      8  C   UNL     1      -4.405  16.574  70.297  0.00  0.00    +0.036 A 
ATOM      9  C   UNL     1      -4.857  15.274  70.317  0.00  0.00    +0.176 A 
ATOM     10  O   UNL     1      -4.281  14.054  70.687  0.00  0.00    -0.435 OA
ATOM     11  C   UNL     1      -5.127  13.029  70.185  0.00  0.00    +0.429 C 
ATOM     12  O   UNL     1      -6.380  13.707  70.156  0.00  0.00    -0.435 OA
ATOM     13  C   UNL     1      -6.175  15.071  69.967  0.00  0.00    +0.176 A 
ATOM     14  C   UNL     1      -6.906  16.093  69.376  0.00  0.00    +0.036 A 
ATOM     15  C   UNL     1      -4.779  20.786  68.176  0.00  0.00    +0.072 C 
ATOM     16  C   UNL     1      -5.392  20.751  69.540  0.00  0.00    +0.019 C 
ATOM     17  C   UNL     1      -6.531  19.743  69.450  0.00  0.00    +0.021 C 
ATOM     18  C   UNL     1      -7.714  20.148  67.429  0.00  0.00    +0.024 C 
ATOM     19  C   UNL     1      -6.375  17.362  69.168  0.00  0.00    -0.018 A 
ATOM     20  C   UNL     1      -8.792  19.423  67.361  0.00  0.00    +0.153 C 
ENDROOT
BRANCH  20  21
ATOM     21  O   UNL     1     -10.110  19.768  67.071  0.00  0.00    -0.472 OA
ATOM     22  C   UNL     1     -10.574  19.742  65.744  0.00  0.00    +0.252 C 
ENDBRANCH  20  21
BRANCH   1  23
ATOM     23  O   UNL     1      -9.307  17.183  67.674  0.00  0.00    -0.442 OA
BRANCH  23  24
ATOM     24  C   UNL     1     -10.446  16.676  68.199  0.00  0.00    +0.346 C 
ATOM     25  O   UNL     1     -11.455  17.405  68.322  0.00  0.00    -0.247 OA
BRANCH  24  26
ATOM     26  C   UNL     1     -10.503  15.188  68.385  0.00  0.00    +0.225 C 
ATOM     27  O   UNL     1      -9.416  14.553  67.800  0.00  0.00    -0.214 OA
BRANCH  26  28
ATOM     28  C   UNL     1     -10.438  14.924  69.884  0.00  0.00    +0.042 C 
BRANCH  28  29
ATOM     29  C   UNL     1     -11.796  14.705  70.489  0.00  0.00    +0.006 C 
BRANCH  29  30
ATOM     30  C   UNL     1     -12.199  15.780  71.462  0.00  0.00    +0.031 C 
BRANCH  30  31
ATOM     31  C   UNL     1     -13.096  15.275  72.563  0.00  0.00    +0.127 C 
ATOM     32  O   UNL     1     -14.284  16.011  72.552  0.00  0.00    -0.226 OA
ATOM     33  C   UNL     1     -13.455  13.819  72.300  0.00  0.00    +0.033 C 
ATOM     34  C   UNL     1     -12.418  15.320  73.903  0.00  0.00    +0.033 C 
ENDBRANCH  30  31
ENDBRANCH  29  30
ENDBRANCH  28  29
ENDBRANCH  26  28
BRANCH  26  35
ATOM     35  C   UNL     1     -11.814  14.633  67.903  0.00  0.00    +0.151 C 
BRANCH  35  36
ATOM     36  C   UNL     1     -11.645  13.424  67.038  0.00  0.00    +0.320 C 
ATOM     37  O   UNL     1     -11.959  12.276  67.481  0.00  0.00    -0.250 OA
BRANCH  36  39
ATOM     38  C   UNL     1     -12.508  12.678  64.892  0.00  0.00    +0.256 C 
ATOM     39  O   UNL     1     -11.738  13.564  65.649  0.00  0.00    -0.444 OA
ENDBRANCH  36  39
ENDBRANCH  35  36
ENDBRANCH  26  35
ENDBRANCH  24  26
ENDBRANCH  23  24
ENDBRANCH   1  23
TORSDOF 11
ENDMDL
MODEL 3
REMARK VINA RESULT:      -6.9      2.036      2.876
REMARK  Name = 
REMARK  11 active torsions:
REMARK  status: ('A' for Active; 'I' for Inactive)
REMARK    1  A    between atoms: O_2  and  C_3
REMARK    2  A    between atoms: C_3  and  C_5
REMARK    3  A    between atoms: C_5  and  C_6
REMARK    4  A    between atoms: C_6  and  C_8
REMARK    5  A    between atoms: C_6  and  C_15
REMARK    6  A    between atoms: C_8  and  C_9
REMARK    7  A    between atoms: C_9  and  C_10
REMARK    8  A    between atoms: C_10  and  C_11
REMARK    9  A    between atoms: C_15  and  O_17
REMARK   10  A    between atoms: O_17  and  C_18
REMARK   11  A    between atoms: C_19  and  O_20
REMARK                            x       y       z     vdW  Elec       q    Type
REMARK                         _______ _______ _______ _____ _____    ______ ____
ROOT
ATOM      1  C   UNL     1      -8.945  10.055  66.804  0.00  0.00    +0.230 C 
ATOM      2  C   UNL     1     -10.300   8.962  66.958  0.00  0.00    +0.087 C 
ATOM      3  C   UNL     1      -9.284   7.730  66.628  0.00  0.00    +0.074 C 
ATOM      4  N   UNL     1     -10.001   6.535  66.483  0.00  0.00    -0.271 NA
ATOM      5  C   UNL     1     -11.135   6.345  67.341  0.00  0.00    +0.077 C 
ATOM      6  C   UNL     1     -10.571   6.266  68.755  0.00  0.00    +0.043 C 
ATOM      7  C   UNL     1     -10.515   7.687  69.233  0.00  0.00    -0.021 A 
ATOM      8  C   UNL     1     -10.901   7.764  70.566  0.00  0.00    +0.036 A 
ATOM      9  C   UNL     1     -11.588   8.880  70.985  0.00  0.00    +0.176 A 
ATOM     10  O   UNL     1     -12.473   9.134  72.039  0.00  0.00    -0.435 OA
ATOM     11  C   UNL     1     -13.097  10.380  71.764  0.00  0.00    +0.429 C 
ATOM     12  O   UNL     1     -12.095  11.012  70.973  0.00  0.00    -0.435 OA
ATOM     13  C   UNL     1     -11.350  10.050  70.295  0.00  0.00    +0.176 A 
ATOM     14  C   UNL     1     -10.662  10.022  69.091  0.00  0.00    +0.036 A 
ATOM     15  C   UNL     1      -9.041   5.515  66.843  0.00  0.00    +0.072 C 
ATOM     16  C   UNL     1      -8.014   6.125  67.742  0.00  0.00    +0.019 C 
ATOM     17  C   UNL     1      -8.261   7.627  67.685  0.00  0.00    +0.021 C 
ATOM     18  C   UNL     1      -8.621   8.229  65.415  0.00  0.00    +0.024 C 
ATOM     19  C   UNL     1     -10.138   8.847  68.561  0.00  0.00    -0.018 A 
ATOM     20  C   UNL     1      -8.687   9.520  65.275  0.00  0.00    +0.153 C 
ENDROOT
BRANCH  20  21
ATOM     21  O   UNL     1      -8.036  10.380  64.393  0.00  0.00    -0.472 OA
ATOM     22  C   UNL     1      -8.408  10.419  63.037  0.00  0.00    +0.252 C 
ENDBRANCH  20  21
BRANCH   1  23
ATOM     23  O   UNL     1      -9.830  11.246  66.323  0.00  0.00    -0.442 OA
BRANCH  23  24
ATOM     24  C   UNL     1      -9.400  12.501  66.587  0.00  0.00    +0.346 C 
ATOM     25  O   UNL     1      -8.208  12.697  66.915  0.00  0.00    -0.247 OA
BRANCH  24  26
ATOM     26  C   UNL     1     -10.330  13.624  66.234  0.00  0.00    +0.225 C 
ATOM     27  O   UNL     1     -11.468  13.620  67.029  0.00  0.00    -0.214 OA
BRANCH  26  28
ATOM     28  C   UNL     1      -9.583  14.924  66.508  0.00  0.00    +0.042 C 
BRANCH  28  29
ATOM     29  C   UNL     1     -10.506  16.050  66.880  0.00  0.00    +0.006 C 
BRANCH  29  30
ATOM     30  C   UNL     1     -10.351  17.265  66.006  0.00  0.00    +0.031 C 
BRANCH  30  31
ATOM     31  C   UNL     1     -10.097  18.528  66.788  0.00  0.00    +0.127 C 
ATOM     32  O   UNL     1     -10.793  18.459  67.998  0.00  0.00    -0.226 OA
ATOM     33  C   UNL     1      -8.615  18.635  67.116  0.00  0.00    +0.033 C 
ATOM     34  C   UNL     1     -10.457  19.756  66.000  0.00  0.00    +0.033 C 
ENDBRANCH  30  31
ENDBRANCH  29  30
ENDBRANCH  28  29
ENDBRANCH  26  28
BRANCH  26  35
ATOM     35  C   UNL     1     -10.659  13.614  64.767  0.00  0.00    +0.151 C 
BRANCH  35  36
ATOM     36  C   UNL     1     -12.116  13.829  64.501  0.00  0.00    +0.320 C 
ATOM     37  O   UNL     1     -12.523  14.950  64.066  0.00  0.00    -0.250 OA
BRANCH  36  39
ATOM     38  C   UNL     1     -12.402  11.721  63.327  0.00  0.00    +0.256 C 
ATOM     39  O   UNL     1     -12.910  12.734  64.144  0.00  0.00    -0.444 OA
ENDBRANCH  36  39
ENDBRANCH  35  36
ENDBRANCH  26  35
ENDBRANCH  24  26
ENDBRANCH  23  24
ENDBRANCH   1  23
TORSDOF 11
ENDMDL
MODEL 4
REMARK VINA RESULT:      -6.9      4.679      7.743
REMARK  Name = 
REMARK  11 active torsions:
REMARK  status: ('A' for Active; 'I' for Inactive)
REMARK    1  A    between atoms: O_2  and  C_3
REMARK    2  A    between atoms: C_3  and  C_5
REMARK    3  A    between atoms: C_5  and  C_6
REMARK    4  A    between atoms: C_6  and  C_8
REMARK    5  A    between atoms: C_6  and  C_15
REMARK    6  A    between atoms: C_8  and  C_9
REMARK    7  A    between atoms: C_9  and  C_10
REMARK    8  A    between atoms: C_10  and  C_11
REMARK    9  A    between atoms: C_15  and  O_17
REMARK   10  A    between atoms: O_17  and  C_18
REMARK   11  A    between atoms: C_19  and  O_20
REMARK                            x       y       z     vdW  Elec       q    Type
REMARK                         _______ _______ _______ _____ _____    ______ ____
ROOT
ATOM      1  C   UNL     1      -7.199  14.361  68.126  0.00  0.00    +0.230 C 
ATOM      2  C   UNL     1      -7.167  15.863  69.020  0.00  0.00    +0.087 C 
ATOM      3  C   UNL     1      -5.543  15.735  69.087  0.00  0.00    +0.074 C 
ATOM      4  N   UNL     1      -5.012  16.734  69.913  0.00  0.00    -0.271 NA
ATOM      5  C   UNL     1      -5.648  18.020  69.876  0.00  0.00    +0.077 C 
ATOM      6  C   UNL     1      -5.422  18.549  68.464  0.00  0.00    +0.043 C 
ATOM      7  C   UNL     1      -6.570  18.017  67.659  0.00  0.00    -0.021 A 
ATOM      8  C   UNL     1      -7.028  18.983  66.771  0.00  0.00    +0.036 A 
ATOM      9  C   UNL     1      -8.374  19.030  66.490  0.00  0.00    +0.176 A 
ATOM     10  O   UNL     1      -9.235  20.036  66.042  0.00  0.00    -0.435 OA
ATOM     11  C   UNL     1     -10.561  19.569  66.250  0.00  0.00    +0.429 C 
ATOM     12  O   UNL     1     -10.361  18.160  66.180  0.00  0.00    -0.435 OA
ATOM     13  C   UNL     1      -9.070  17.844  66.596  0.00  0.00    +0.176 A 
ATOM     14  C   UNL     1      -8.486  16.744  67.207  0.00  0.00    +0.036 A 
ATOM     15  C   UNL     1      -3.674  16.926  69.398  0.00  0.00    +0.072 C 
ATOM     16  C   UNL     1      -3.650  16.500  67.964  0.00  0.00    +0.019 C 
ATOM     17  C   UNL     1      -4.979  15.794  67.727  0.00  0.00    +0.021 C 
ATOM     18  C   UNL     1      -5.389  14.356  69.574  0.00  0.00    +0.024 C 
ATOM     19  C   UNL     1      -7.177  16.763  67.679  0.00  0.00    -0.018 A 
ATOM     20  C   UNL     1      -6.432  13.608  69.364  0.00  0.00    +0.153 C 
ENDROOT
BRANCH  20  21
ATOM     21  O   UNL     1      -6.611  12.232  69.492  0.00  0.00    -0.472 OA
ATOM     22  C   UNL     1      -6.020  11.352  68.568  0.00  0.00    +0.252 C 
ENDBRANCH  20  21
BRANCH   1  23
ATOM     23  O   UNL     1      -8.611  13.960  68.651  0.00  0.00    -0.442 OA
BRANCH  23  24
ATOM     24  C   UNL     1      -9.482  13.414  67.772  0.00  0.00    +0.346 C 
ATOM     25  O   UNL     1      -9.108  12.493  67.012  0.00  0.00    -0.247 OA
BRANCH  24  26
ATOM     26  C   UNL     1     -10.926  13.788  67.928  0.00  0.00    +0.225 C 
ATOM     27  O   UNL     1     -11.732  12.672  68.107  0.00  0.00    -0.214 OA
BRANCH  26  28
ATOM     28  C   UNL     1     -11.033  14.639  69.188  0.00  0.00    +0.042 C 
BRANCH  28  29
ATOM     29  C   UNL     1     -12.265  14.328  69.989  0.00  0.00    +0.006 C 
BRANCH  29  30
ATOM     30  C   UNL     1     -12.836  15.525  70.699  0.00  0.00    +0.031 C 
BRANCH  30  31
ATOM     31  C   UNL     1     -13.697  15.158  71.880  0.00  0.00    +0.127 C 
ATOM     32  O   UNL     1     -15.001  15.604  71.647  0.00  0.00    -0.226 OA
ATOM     33  C   UNL     1     -13.748  13.643  72.022  0.00  0.00    +0.033 C 
ATOM     34  C   UNL     1     -13.140  15.696  73.168  0.00  0.00    +0.033 C 
ENDBRANCH  30  31
ENDBRANCH  29  30
ENDBRANCH  28  29
ENDBRANCH  26  28
BRANCH  26  35
ATOM     35  C   UNL     1     -11.389  14.647  66.784  0.00  0.00    +0.151 C 
BRANCH  35  36
ATOM     36  C   UNL     1     -12.045  13.856  65.696  0.00  0.00    +0.320 C 
ATOM     37  O   UNL     1     -13.269  14.045  65.423  0.00  0.00    -0.250 OA
BRANCH  36  39
ATOM     38  C   UNL     1     -11.830  12.609  63.621  0.00  0.00    +0.256 C 
ATOM     39  O   UNL     1     -11.266  13.396  64.629  0.00  0.00    -0.444 OA
ENDBRANCH  36  39
ENDBRANCH  35  36
ENDBRANCH  26  35
ENDBRANCH  24  26
ENDBRANCH  23  24
ENDBRANCH   1  23
TORSDOF 11
ENDMDL
MODEL 5
REMARK VINA RESULT:      -6.8      2.596      7.294
REMARK  Name = 
REMARK  11 active torsions:
REMARK  status: ('A' for Active; 'I' for Inactive)
REMARK    1  A    between atoms: O_2  and  C_3
REMARK    2  A    between atoms: C_3  and  C_5
REMARK    3  A    between atoms: C_5  and  C_6
REMARK    4  A    between atoms: C_6  and  C_8
REMARK    5  A    between atoms: C_6  and  C_15
REMARK    6  A    between atoms: C_8  and  C_9
REMARK    7  A    between atoms: C_9  and  C_10
REMARK    8  A    between atoms: C_10  and  C_11
REMARK    9  A    between atoms: C_15  and  O_17
REMARK   10  A    between atoms: O_17  and  C_18
REMARK   11  A    between atoms: C_19  and  O_20
REMARK                            x       y       z     vdW  Elec       q    Type
REMARK                         _______ _______ _______ _____ _____    ______ ____
ROOT
ATOM      1  C   UNL     1     -11.479  11.119  68.092  0.00  0.00    +0.230 C 
ATOM      2  C   UNL     1     -10.391  12.485  68.155  0.00  0.00    +0.087 C 
ATOM      3  C   UNL     1     -10.622  12.683  66.553  0.00  0.00    +0.074 C 
ATOM      4  N   UNL     1      -9.759  13.671  66.058  0.00  0.00    -0.271 NA
ATOM      5  C   UNL     1      -9.496  14.795  66.909  0.00  0.00    +0.077 C 
ATOM      6  C   UNL     1     -10.831  15.515  67.063  0.00  0.00    +0.043 C 
ATOM      7  C   UNL     1     -11.497  14.855  68.233  0.00  0.00    -0.021 A 
ATOM      8  C   UNL     1     -12.140  15.802  69.021  0.00  0.00    +0.036 A 
ATOM      9  C   UNL     1     -12.177  15.604  70.383  0.00  0.00    +0.176 A 
ATOM     10  O   UNL     1     -12.317  16.458  71.482  0.00  0.00    -0.435 OA
ATOM     11  C   UNL     1     -11.957  15.710  72.635  0.00  0.00    +0.429 C 
ATOM     12  O   UNL     1     -12.269  14.389  72.203  0.00  0.00    -0.435 OA
ATOM     13  C   UNL     1     -12.131  14.298  70.821  0.00  0.00    +0.176 A 
ATOM     14  C   UNL     1     -11.800  13.277  69.940  0.00  0.00    +0.036 A 
ATOM     15  C   UNL     1     -10.461  14.188  64.904  0.00  0.00    +0.072 C 
ATOM     16  C   UNL     1     -11.925  13.940  65.086  0.00  0.00    +0.019 C 
ATOM     17  C   UNL     1     -12.034  13.009  66.287  0.00  0.00    +0.021 C 
ATOM     18  C   UNL     1     -10.379  11.319  66.062  0.00  0.00    +0.024 C 
ATOM     19  C   UNL     1     -11.560  13.509  68.589  0.00  0.00    -0.018 A 
ATOM     20  C   UNL     1     -10.516  10.402  66.975  0.00  0.00    +0.153 C 
ENDROOT
BRANCH  20  21
ATOM     21  O   UNL     1     -10.567   9.013  66.876  0.00  0.00    -0.472 OA
ATOM     22  C   UNL     1      -9.386   8.272  66.691  0.00  0.00    +0.252 C 
ENDBRANCH  20  21
BRANCH   1  23
ATOM     23  O   UNL     1     -10.786  10.382  69.279  0.00  0.00    -0.442 OA
BRANCH  23  24
ATOM     24  C   UNL     1     -11.576   9.788  70.202  0.00  0.00    +0.346 C 
ATOM     25  O   UNL     1     -12.761  10.162  70.345  0.00  0.00    -0.247 OA
BRANCH  24  26
ATOM     26  C   UNL     1     -11.046   8.539  70.844  0.00  0.00    +0.225 C 
ATOM     27  O   UNL     1     -10.883   7.514  69.921  0.00  0.00    -0.214 OA
BRANCH  26  28
ATOM     28  C   UNL     1      -9.669   8.876  71.404  0.00  0.00    +0.042 C 
BRANCH  28  29
ATOM     29  C   UNL     1      -9.491   8.396  72.817  0.00  0.00    +0.006 C 
BRANCH  29  30
ATOM     30  C   UNL     1      -8.368   7.408  72.976  0.00  0.00    +0.031 C 
BRANCH  30  31
ATOM     31  C   UNL     1      -8.838   6.041  73.408  0.00  0.00    +0.127 C 
ATOM     32  O   UNL     1      -9.373   5.376  72.302  0.00  0.00    -0.226 OA
ATOM     33  C   UNL     1      -7.650   5.228  73.903  0.00  0.00    +0.033 C 
ATOM     34  C   UNL     1      -9.815   6.119  74.547  0.00  0.00    +0.033 C 
ENDBRANCH  30  31
ENDBRANCH  29  30
ENDBRANCH  28  29
ENDBRANCH  26  28
BRANCH  26  35
ATOM     35  C   UNL     1     -11.900   8.125  72.010  0.00  0.00    +0.151 C 
BRANCH  35  36
ATOM     36  C   UNL     1     -12.751   6.932  71.707  0.00  0.00    +0.320 C 
ATOM     37  O   UNL     1     -12.541   5.833  72.307  0.00  0.00    -0.250 OA
BRANCH  36  39
ATOM     38  C   UNL     1     -14.931   7.969  71.992  0.00  0.00    +0.256 C 
ATOM     39  O   UNL     1     -14.069   7.129  71.281  0.00  0.00    -0.444 OA
ENDBRANCH  36  39
ENDBRANCH  35  36
ENDBRANCH  26  35
ENDBRANCH  24  26
ENDBRANCH  23  24
ENDBRANCH   1  23
TORSDOF 11
ENDMDL
MODEL 6
REMARK VINA RESULT:      -6.8      2.535      7.759
REMARK  Name = 
REMARK  11 active torsions:
REMARK  status: ('A' for Active; 'I' for Inactive)
REMARK    1  A    between atoms: O_2  and  C_3
REMARK    2  A    between atoms: C_3  and  C_5
REMARK    3  A    between atoms: C_5  and  C_6
REMARK    4  A    between atoms: C_6  and  C_8
REMARK    5  A    between atoms: C_6  and  C_15
REMARK    6  A    between atoms: C_8  and  C_9
REMARK    7  A    between atoms: C_9  and  C_10
REMARK    8  A    between atoms: C_10  and  C_11
REMARK    9  A    between atoms: C_15  and  O_17
REMARK   10  A    between atoms: O_17  and  C_18
REMARK   11  A    between atoms: C_19  and  O_20
REMARK                            x       y       z     vdW  Elec       q    Type
REMARK                         _______ _______ _______ _____ _____    ______ ____
ROOT
ATOM      1  C   UNL     1     -11.807  11.115  68.724  0.00  0.00    +0.230 C 
ATOM      2  C   UNL     1     -10.684  12.405  69.083  0.00  0.00    +0.087 C 
ATOM      3  C   UNL     1     -10.667  12.771  67.494  0.00  0.00    +0.074 C 
ATOM      4  N   UNL     1      -9.700  13.751  67.233  0.00  0.00    -0.271 NA
ATOM      5  C   UNL     1      -9.519  14.772  68.225  0.00  0.00    +0.077 C 
ATOM      6  C   UNL     1     -10.831  15.547  68.261  0.00  0.00    +0.043 C 
ATOM      7  C   UNL     1     -11.690  14.815  69.248  0.00  0.00    -0.021 A 
ATOM      8  C   UNL     1     -12.403  15.716  70.031  0.00  0.00    +0.036 A 
ATOM      9  C   UNL     1     -12.648  15.390  71.345  0.00  0.00    +0.176 A 
ATOM     10  O   UNL     1     -12.914  16.141  72.495  0.00  0.00    -0.435 OA
ATOM     11  C   UNL     1     -12.760  15.265  73.604  0.00  0.00    +0.429 C 
ATOM     12  O   UNL     1     -13.059  14.012  72.998  0.00  0.00    -0.435 OA
ATOM     13  C   UNL     1     -12.723  14.047  71.647  0.00  0.00    +0.176 A 
ATOM     14  C   UNL     1     -12.307  13.100  70.722  0.00  0.00    +0.036 A 
ATOM     15  C   UNL     1     -10.202  14.416  66.050  0.00  0.00    +0.072 C 
ATOM     16  C   UNL     1     -11.685  14.235  65.995  0.00  0.00    +0.019 C 
ATOM     17  C   UNL     1     -12.010  13.200  67.064  0.00  0.00    +0.021 C 
ATOM     18  C   UNL     1     -10.411  11.449  66.904  0.00  0.00    +0.024 C 
ATOM     19  C   UNL     1     -11.861  13.447  69.451  0.00  0.00    -0.018 A 
ATOM     20  C   UNL     1     -10.720  10.457  67.688  0.00  0.00    +0.153 C 
ENDROOT
BRANCH  20  21
ATOM     21  O   UNL     1     -10.812   9.090  67.439  0.00  0.00    -0.472 OA
ATOM     22  C   UNL     1     -10.141   8.521  66.342  0.00  0.00    +0.252 C 
ENDBRANCH  20  21
BRANCH   1  23
ATOM     23  O   UNL     1     -11.328  10.229  69.915  0.00  0.00    -0.442 OA
BRANCH  23  24
ATOM     24  C   UNL     1     -12.265   9.552  70.616  0.00  0.00    +0.346 C 
ATOM     25  O   UNL     1     -13.457   9.932  70.596  0.00  0.00    -0.247 OA
BRANCH  24  26
ATOM     26  C   UNL     1     -11.855   8.229  71.192  0.00  0.00    +0.225 C 
ATOM     27  O   UNL     1     -12.925   7.349  71.278  0.00  0.00    -0.214 OA
BRANCH  26  28
ATOM     28  C   UNL     1     -10.837   7.622  70.234  0.00  0.00    +0.042 C 
BRANCH  28  29
ATOM     29  C   UNL     1     -11.296   6.310  69.664  0.00  0.00    +0.006 C 
BRANCH  29  30
ATOM     30  C   UNL     1     -10.356   5.170  69.952  0.00  0.00    +0.031 C 
BRANCH  30  31
ATOM     31  C   UNL     1      -9.552   4.747  68.749  0.00  0.00    +0.127 C 
ATOM     32  O   UNL     1      -8.281   5.321  68.828  0.00  0.00    -0.226 OA
ATOM     33  C   UNL     1      -9.375   3.235  68.761  0.00  0.00    +0.033 C 
ATOM     34  C   UNL     1     -10.247   5.092  67.462  0.00  0.00    +0.033 C 
ENDBRANCH  30  31
ENDBRANCH  29  30
ENDBRANCH  28  29
ENDBRANCH  26  28
BRANCH  26  35
ATOM     35  C   UNL     1     -11.156   8.406  72.512  0.00  0.00    +0.151 C 
BRANCH  35  36
ATOM     36  C   UNL     1      -9.742   7.920  72.486  0.00  0.00    +0.320 C 
ATOM     37  O   UNL     1      -8.783   8.751  72.499  0.00  0.00    -0.250 OA
BRANCH  36  39
ATOM     38  C   UNL     1     -10.148   6.192  74.146  0.00  0.00    +0.256 C 
ATOM     39  O   UNL     1      -9.444   6.669  73.038  0.00  0.00    -0.444 OA
ENDBRANCH  36  39
ENDBRANCH  35  36
ENDBRANCH  26  35
ENDBRANCH  24  26
ENDBRANCH  23  24
ENDBRANCH   1  23
TORSDOF 11
ENDMDL
MODEL 7
REMARK VINA RESULT:      -6.7      5.795      9.420
REMARK  Name = 
REMARK  11 active torsions:
REMARK  status: ('A' for Active; 'I' for Inactive)
REMARK    1  A    between atoms: O_2  and  C_3
REMARK    2  A    between atoms: C_3  and  C_5
REMARK    3  A    between atoms: C_5  and  C_6
REMARK    4  A    between atoms: C_6  and  C_8
REMARK    5  A    between atoms: C_6  and  C_15
REMARK    6  A    between atoms: C_8  and  C_9
REMARK    7  A    between atoms: C_9  and  C_10
REMARK    8  A    between atoms: C_10  and  C_11
REMARK    9  A    between atoms: C_15  and  O_17
REMARK   10  A    between atoms: O_17  and  C_18
REMARK   11  A    between atoms: C_19  and  O_20
REMARK                            x       y       z     vdW  Elec       q    Type
REMARK                         _______ _______ _______ _____ _____    ______ ____
ROOT
ATOM      1  C   UNL     1      -8.445  18.450  68.481  0.00  0.00    +0.230 C 
ATOM      2  C   UNL     1      -6.909  18.064  67.743  0.00  0.00    +0.087 C 
ATOM      3  C   UNL     1      -6.431  19.594  68.046  0.00  0.00    +0.074 C 
ATOM      4  N   UNL     1      -5.187  19.840  67.449  0.00  0.00    -0.271 NA
ATOM      5  C   UNL     1      -4.241  18.761  67.440  0.00  0.00    +0.077 C 
ATOM      6  C   UNL     1      -3.903  18.500  68.904  0.00  0.00    +0.043 C 
ATOM      7  C   UNL     1      -4.936  17.519  69.373  0.00  0.00    -0.021 A 
ATOM      8  C   UNL     1      -4.357  16.567  70.205  0.00  0.00    +0.036 A 
ATOM      9  C   UNL     1      -4.844  15.281  70.167  0.00  0.00    +0.176 A 
ATOM     10  O   UNL     1      -4.302  14.031  70.482  0.00  0.00    -0.435 OA
ATOM     11  C   UNL     1      -5.175  13.052  69.935  0.00  0.00    +0.429 C 
ATOM     12  O   UNL     1      -6.408  13.764  69.935  0.00  0.00    -0.435 OA
ATOM     13  C   UNL     1      -6.166  15.130  69.808  0.00  0.00    +0.176 A 
ATOM     14  C   UNL     1      -6.868  16.196  69.263  0.00  0.00    +0.036 A 
ATOM     15  C   UNL     1      -4.613  20.879  68.275  0.00  0.00    +0.072 C 
ATOM     16  C   UNL     1      -5.229  20.800  69.636  0.00  0.00    +0.019 C 
ATOM     17  C   UNL     1      -6.395  19.828  69.500  0.00  0.00    +0.021 C 
ATOM     18  C   UNL     1      -7.563  20.356  67.500  0.00  0.00    +0.024 C 
ATOM     19  C   UNL     1      -6.303  17.458  69.112  0.00  0.00    -0.018 A 
ATOM     20  C   UNL     1      -8.660  19.663  67.399  0.00  0.00    +0.153 C 
ENDROOT
BRANCH  20  21
ATOM     21  O   UNL     1      -9.968  20.057  67.124  0.00  0.00    -0.472 OA
ATOM     22  C   UNL     1     -10.524  19.831  65.853  0.00  0.00    +0.252 C 
ENDBRANCH  20  21
BRANCH   1  23
ATOM     23  O   UNL     1      -9.236  17.426  67.611  0.00  0.00    -0.442 OA
BRANCH  23  24
ATOM     24  C   UNL     1     -10.261  16.761  68.192  0.00  0.00    +0.346 C 
ATOM     25  O   UNL     1     -11.077  17.377  68.912  0.00  0.00    -0.247 OA
BRANCH  24  26
ATOM     26  C   UNL     1     -10.495  15.350  67.739  0.00  0.00    +0.225 C 
ATOM     27  O   UNL     1     -11.765  15.185  67.203  0.00  0.00    -0.214 OA
BRANCH  26  28
ATOM     28  C   UNL     1      -9.488  15.065  66.631  0.00  0.00    +0.042 C 
BRANCH  28  29
ATOM     29  C   UNL     1     -10.147  14.621  65.355  0.00  0.00    +0.006 C 
BRANCH  29  30
ATOM     30  C   UNL     1     -10.101  13.132  65.145  0.00  0.00    +0.031 C 
BRANCH  30  31
ATOM     31  C   UNL     1     -11.426  12.554  64.716  0.00  0.00    +0.127 C 
ATOM     32  O   UNL     1     -12.114  12.110  65.848  0.00  0.00    -0.226 OA
ATOM     33  C   UNL     1     -12.268  13.641  64.062  0.00  0.00    +0.033 C 
ATOM     34  C   UNL     1     -11.257  11.464  63.695  0.00  0.00    +0.033 C 
ENDBRANCH  30  31
ENDBRANCH  29  30
ENDBRANCH  28  29
ENDBRANCH  26  28
BRANCH  26  35
ATOM     35  C   UNL     1     -10.212  14.372  68.845  0.00  0.00    +0.151 C 
BRANCH  35  36
ATOM     36  C   UNL     1     -11.457  13.887  69.518  0.00  0.00    +0.320 C 
ATOM     37  O   UNL     1     -11.858  12.697  69.332  0.00  0.00    -0.250 OA
BRANCH  36  39
ATOM     38  C   UNL     1     -12.997  15.204  70.860  0.00  0.00    +0.256 C 
ATOM     39  O   UNL     1     -11.828  14.448  70.745  0.00  0.00    -0.444 OA
ENDBRANCH  36  39
ENDBRANCH  35  36
ENDBRANCH  26  35
ENDBRANCH  24  26
ENDBRANCH  23  24
ENDBRANCH   1  23
TORSDOF 11
ENDMDL
MODEL 8
REMARK VINA RESULT:      -6.6      2.462      5.004
REMARK  Name = 
REMARK  11 active torsions:
REMARK  status: ('A' for Active; 'I' for Inactive)
REMARK    1  A    between atoms: O_2  and  C_3
REMARK    2  A    between atoms: C_3  and  C_5
REMARK    3  A    between atoms: C_5  and  C_6
REMARK    4  A    between atoms: C_6  and  C_8
REMARK    5  A    between atoms: C_6  and  C_15
REMARK    6  A    between atoms: C_8  and  C_9
REMARK    7  A    between atoms: C_9  and  C_10
REMARK    8  A    between atoms: C_10  and  C_11
REMARK    9  A    between atoms: C_15  and  O_17
REMARK   10  A    between atoms: O_17  and  C_18
REMARK   11  A    between atoms: C_19  and  O_20
REMARK                            x       y       z     vdW  Elec       q    Type
REMARK                         _______ _______ _______ _____ _____    ______ ____
ROOT
ATOM      1  C   UNL     1     -11.763  10.808  69.167  0.00  0.00    +0.230 C 
ATOM      2  C   UNL     1     -10.371  10.035  69.889  0.00  0.00    +0.087 C 
ATOM      3  C   UNL     1     -11.355   9.456  71.053  0.00  0.00    +0.074 C 
ATOM      4  N   UNL     1     -10.603   8.823  72.052  0.00  0.00    -0.271 NA
ATOM      5  C   UNL     1      -9.446   8.086  71.632  0.00  0.00    +0.077 C 
ATOM      6  C   UNL     1      -9.978   6.935  70.786  0.00  0.00    +0.043 C 
ATOM      7  C   UNL     1     -10.067   7.483  69.393  0.00  0.00    -0.021 A 
ATOM      8  C   UNL     1      -9.657   6.529  68.470  0.00  0.00    +0.036 A 
ATOM      9  C   UNL     1      -8.996   6.954  67.340  0.00  0.00    +0.176 A 
ATOM     10  O   UNL     1      -8.098   6.344  66.457  0.00  0.00    -0.435 OA
ATOM     11  C   UNL     1      -7.518   7.381  65.676  0.00  0.00    +0.429 C 
ATOM     12  O   UNL     1      -8.556   8.355  65.714  0.00  0.00    -0.435 OA
ATOM     13  C   UNL     1      -9.285   8.226  66.894  0.00  0.00    +0.176 A 
ATOM     14  C   UNL     1      -9.997   9.103  67.700  0.00  0.00    +0.036 A 
ATOM     15  C   UNL     1     -11.523   7.856  72.609  0.00  0.00    +0.072 C 
ATOM     16  C   UNL     1     -12.550   7.524  71.574  0.00  0.00    +0.019 C 
ATOM     17  C   UNL     1     -12.351   8.545  70.460  0.00  0.00    +0.021 C 
ATOM     18  C   UNL     1     -12.059  10.680  71.462  0.00  0.00    +0.024 C 
ATOM     19  C   UNL     1     -10.495   8.731  68.944  0.00  0.00    -0.018 A 
ATOM     20  C   UNL     1     -12.036  11.621  70.565  0.00  0.00    +0.153 C 
ENDROOT
BRANCH  20  21
ATOM     21  O   UNL     1     -12.733  12.825  70.484  0.00  0.00    -0.472 OA
ATOM     22  C   UNL     1     -13.036  13.548  71.651  0.00  0.00    +0.252 C 
ENDBRANCH  20  21
BRANCH   1  23
ATOM     23  O   UNL     1     -10.926  11.975  68.558  0.00  0.00    -0.442 OA
BRANCH  23  24
ATOM     24  C   UNL     1     -11.318  12.480  67.367  0.00  0.00    +0.346 C 
ATOM     25  O   UNL     1     -12.089  11.823  66.632  0.00  0.00    -0.247 OA
BRANCH  24  26
ATOM     26  C   UNL     1     -10.990  13.920  67.100  0.00  0.00    +0.225 C 
ATOM     27  O   UNL     1     -12.046  14.759  67.426  0.00  0.00    -0.214 OA
BRANCH  26  28
ATOM     28  C   UNL     1      -9.817  14.283  68.003  0.00  0.00    +0.042 C 
BRANCH  28  29
ATOM     29  C   UNL     1     -10.114  15.467  68.881  0.00  0.00    +0.006 C 
BRANCH  29  30
ATOM     30  C   UNL     1      -9.083  16.558  68.782  0.00  0.00    +0.031 C 
BRANCH  30  31
ATOM     31  C   UNL     1      -9.553  17.746  67.982  0.00  0.00    +0.127 C 
ATOM     32  O   UNL     1     -10.949  17.796  68.022  0.00  0.00    -0.226 OA
ATOM     33  C   UNL     1      -9.030  19.027  68.617  0.00  0.00    +0.033 C 
ATOM     34  C   UNL     1      -9.030  17.715  66.574  0.00  0.00    +0.033 C 
ENDBRANCH  30  31
ENDBRANCH  29  30
ENDBRANCH  28  29
ENDBRANCH  26  28
BRANCH  26  35
ATOM     35  C   UNL     1     -10.523  14.115  65.684  0.00  0.00    +0.151 C 
BRANCH  35  36
ATOM     36  C   UNL     1     -11.484  14.920  64.867  0.00  0.00    +0.320 C 
ATOM     37  O   UNL     1     -11.154  16.073  64.452  0.00  0.00    -0.250 OA
BRANCH  36  39
ATOM     38  C   UNL     1     -12.101  13.042  63.452  0.00  0.00    +0.256 C 
ATOM     39  O   UNL     1     -12.421  14.253  64.070  0.00  0.00    -0.444 OA
ENDBRANCH  36  39
ENDBRANCH  35  36
ENDBRANCH  26  35
ENDBRANCH  24  26
ENDBRANCH  23  24
ENDBRANCH   1  23
TORSDOF 11
ENDMDL
MODEL 9
REMARK VINA RESULT:      -6.6      3.263      5.086
REMARK  Name = 
REMARK  11 active torsions:
REMARK  status: ('A' for Active; 'I' for Inactive)
REMARK    1  A    between atoms: O_2  and  C_3
REMARK    2  A    between atoms: C_3  and  C_5
REMARK    3  A    between atoms: C_5  and  C_6
REMARK    4  A    between atoms: C_6  and  C_8
REMARK    5  A    between atoms: C_6  and  C_15
REMARK    6  A    between atoms: C_8  and  C_9
REMARK    7  A    between atoms: C_9  and  C_10
REMARK    8  A    between atoms: C_10  and  C_11
REMARK    9  A    between atoms: C_15  and  O_17
REMARK   10  A    between atoms: O_17  and  C_18
REMARK   11  A    between atoms: C_19  and  O_20
REMARK                            x       y       z     vdW  Elec       q    Type
REMARK                         _______ _______ _______ _____ _____    ______ ____
ROOT
ATOM      1  C   UNL     1     -10.316  13.562  66.486  0.00  0.00    +0.230 C 
ATOM      2  C   UNL     1     -10.226  12.445  67.827  0.00  0.00    +0.087 C 
ATOM      3  C   UNL     1     -10.470  11.228  66.770  0.00  0.00    +0.074 C 
ATOM      4  N   UNL     1     -10.639  10.018  67.455  0.00  0.00    -0.271 NA
ATOM      5  C   UNL     1      -9.849   9.819  68.637  0.00  0.00    +0.077 C 
ATOM      6  C   UNL     1      -8.401   9.776  68.160  0.00  0.00    +0.043 C 
ATOM      7  C   UNL     1      -7.946  11.204  68.161  0.00  0.00    -0.021 A 
ATOM      8  C   UNL     1      -6.641  11.297  68.630  0.00  0.00    +0.036 A 
ATOM      9  C   UNL     1      -6.286  12.406  69.363  0.00  0.00    +0.176 A 
ATOM     10  O   UNL     1      -5.293  12.660  70.315  0.00  0.00    -0.435 OA
ATOM     11  C   UNL     1      -5.629  13.889  70.944  0.00  0.00    +0.429 C 
ATOM     12  O   UNL     1      -6.367  14.526  69.907  0.00  0.00    -0.435 OA
ATOM     13  C   UNL     1      -6.980  13.568  69.104  0.00  0.00    +0.176 A 
ATOM     14  C   UNL     1      -8.139  13.534  68.341  0.00  0.00    +0.036 A 
ATOM     15  C   UNL     1     -10.202   9.023  66.501  0.00  0.00    +0.072 C 
ATOM     16  C   UNL     1      -9.251   9.667  65.543  0.00  0.00    +0.019 C 
ATOM     17  C   UNL     1      -9.350  11.163  65.814  0.00  0.00    +0.021 C 
ATOM     18  C   UNL     1     -11.649  11.719  66.042  0.00  0.00    +0.024 C 
ATOM     19  C   UNL     1      -8.615  12.361  67.764  0.00  0.00    -0.018 A 
ATOM     20  C   UNL     1     -11.815  13.007  66.124  0.00  0.00    +0.153 C 
ENDROOT
BRANCH  20  21
ATOM     21  O   UNL     1     -12.671  13.864  65.435  0.00  0.00    -0.472 OA
ATOM     22  C   UNL     1     -12.367  14.266  64.122  0.00  0.00    +0.252 C 
ENDBRANCH  20  21
BRANCH   1  23
ATOM     23  O   UNL     1     -10.871  14.728  67.361  0.00  0.00    -0.442 OA
BRANCH  23  24
ATOM     24  C   UNL     1     -10.409  15.976  67.120  0.00  0.00    +0.346 C 
ATOM     25  O   UNL     1     -10.443  16.441  65.959  0.00  0.00    -0.247 OA
BRANCH  24  26
ATOM     26  C   UNL     1     -10.100  16.826  68.317  0.00  0.00    +0.225 C 
ATOM     27  O   UNL     1     -10.941  17.928  68.398  0.00  0.00    -0.214 OA
BRANCH  26  28
ATOM     28  C   UNL     1     -10.348  15.966  69.550  0.00  0.00    +0.042 C 
BRANCH  28  29
ATOM     29  C   UNL     1     -11.800  15.923  69.938  0.00  0.00    +0.006 C 
BRANCH  29  30
ATOM     30  C   UNL     1     -12.024  15.992  71.424  0.00  0.00    +0.031 C 
BRANCH  30  31
ATOM     31  C   UNL     1     -12.931  14.903  71.938  0.00  0.00    +0.127 C 
ATOM     32  O   UNL     1     -12.514  13.679  71.409  0.00  0.00    -0.226 OA
ATOM     33  C   UNL     1     -12.812  14.814  73.453  0.00  0.00    +0.033 C 
ATOM     34  C   UNL     1     -14.375  15.187  71.632  0.00  0.00    +0.033 C 
ENDBRANCH  30  31
ENDBRANCH  29  30
ENDBRANCH  28  29
ENDBRANCH  26  28
BRANCH  26  35
ATOM     35  C   UNL     1      -8.648  17.215  68.344  0.00  0.00    +0.151 C 
BRANCH  35  36
ATOM     36  C   UNL     1      -8.404  18.574  67.768  0.00  0.00    +0.320 C 
ATOM     37  O   UNL     1      -8.006  19.519  68.517  0.00  0.00    -0.250 OA
BRANCH  36  39
ATOM     38  C   UNL     1      -6.953  17.941  65.925  0.00  0.00    +0.256 C 
ATOM     39  O   UNL     1      -8.024  18.685  66.427  0.00  0.00    -0.444 OA
ENDBRANCH  36  39
ENDBRANCH  35  36
ENDBRANCH  26  35
ENDBRANCH  24  26
ENDBRANCH  23  24
ENDBRANCH   1  23
TORSDOF 11
ENDMDL
