MODEL 1
REMARK VINA RESULT:      -8.0      0.000      0.000
REMARK  Name = 
REMARK  10 active torsions:
REMARK  status: ('A' for Active; 'I' for Inactive)
REMARK    1  A    between atoms: C_2  and  O_3
REMARK    2  A    between atoms: O_3  and  C_4
REMARK    3  A    between atoms: C_4  and  C_6
REMARK    4  A    between atoms: C_6  and  C_7
REMARK    5  A    between atoms: C_6  and  N_15
REMARK    6  A    between atoms: C_7  and  C_8
REMARK    7  A    between atoms: C_8  and  C_9
REMARK    8  A    between atoms: N_15  and  CA_16
REMARK    9  A    between atoms: CA_16  and  C_18
REMARK   10  A    between atoms: C_29  and  C_30
REMARK                            x       y       z     vdW  Elec       q    Type
REMARK                         _______ _______ _______ _____ _____    ______ ____
ROOT
ATOM      1  CA  ALA A   1     -11.607  15.402  68.149  0.00  0.00    +0.149 C 
ATOM      2  CB  ALA A   1     -10.003  15.755  67.945  0.00  0.00    +0.029 C 
ENDROOT
BRANCH   1   3
ATOM      3  C   ALA A   1     -11.545  14.222  67.046  0.00  0.00    +0.242 C 
ATOM      4  N   UNK A   2     -10.383  14.331  66.295  0.00  0.00    -0.266 N 
ATOM      5  C   UNK A   2     -10.449  14.370  64.721  0.00  0.00    +0.184 C 
ATOM      6  C   UNK A   2     -11.331  12.972  64.672  0.00  0.00    +0.058 C 
ATOM      7  C   UNK A   2     -10.414  11.917  65.148  0.00  0.00    -0.022 A 
ATOM      8  C   UNK A   2      -9.780  12.068  66.375  0.00  0.00    -0.006 A 
ATOM      9  C   UNK A   2      -9.557  10.978  67.190  0.00  0.00    -0.003 A 
ATOM     10  C   UNK A   2      -9.600   9.739  66.563  0.00  0.00    -0.000 A 
ATOM     11  C   UNK A   2      -9.713   9.642  65.180  0.00  0.00    -0.000 A 
ATOM     12  C   UNK A   2     -10.269  10.706  64.482  0.00  0.00    -0.004 A 
ATOM     13  C   UNK A   2      -9.289  13.444  66.694  0.00  0.00    +0.120 C 
ATOM     14  O   ALA A   1     -12.580  13.607  66.808  0.00  0.00    -0.273 OA
BRANCH   5  15
ATOM     15  C   UNK A   2     -11.726  15.369  64.690  0.00  0.00    +0.383 C 
ATOM     16  O   UNK A   2     -11.201  16.629  64.340  0.00  0.00    -0.244 OA
ATOM     17  O   UNK A   2     -12.669  15.069  63.932  0.00  0.00    -0.244 OA
ENDBRANCH   5  15
ENDBRANCH   1   3
BRANCH   1  18
ATOM     18  N   ALA A   1     -11.329  14.414  69.340  0.00  0.00    -0.201 NA
BRANCH  18  19
ATOM     19  C   UNK A   0     -12.642  14.492  70.215  0.00  0.00    +0.172 C 
BRANCH  19  20
ATOM     20  C   UNK A   0     -11.999  15.266  71.491  0.00  0.00    +0.333 C 
ATOM     21  O   UNK A   0     -11.569  16.381  71.049  0.00  0.00    -0.249 OA
BRANCH  20  22
ATOM     22  O   UNK A   0     -12.964  15.507  72.479  0.00  0.00    -0.448 OA
BRANCH  22  24
ATOM     23  C   UNK A   0     -12.431  15.633  74.407  0.00  0.00    +0.051 C 
ATOM     24  C   UNK A   0     -12.575  15.224  73.799  0.00  0.00    +0.209 C 
ENDBRANCH  22  24
ENDBRANCH  20  22
ENDBRANCH  19  20
BRANCH  19  25
ATOM     25  C   UNK A   0     -12.390  12.989  70.841  0.00  0.00    +0.033 C 
BRANCH  25  26
ATOM     26  C   UNK A   0     -11.770  12.130  69.841  0.00  0.00    +0.028 C 
BRANCH  26  27
ATOM     27  C   UNK A   0     -11.934  10.699  70.200  0.00  0.00    -0.022 A 
ATOM     28  C   UNK A   0     -10.791   9.925  70.373  0.00  0.00    -0.004 A 
ATOM     29  C   UNK A   0     -10.784   8.944  71.357  0.00  0.00    -0.000 A 
ATOM     30  C   UNK A   0     -11.864   8.749  72.195  0.00  0.00    -0.000 A 
ATOM     31  C   UNK A   0     -13.040   9.445  71.940  0.00  0.00    -0.000 A 
ATOM     32  C   UNK A   0     -13.091  10.262  70.815  0.00  0.00    -0.004 A 
ENDBRANCH  26  27
ENDBRANCH  25  26
ENDBRANCH  19  25
ENDBRANCH  18  19
ENDBRANCH   1  18
TORSDOF 10
ENDMDL
MODEL 2
REMARK VINA RESULT:      -7.8      3.732      7.046
REMARK  Name = 
REMARK  10 active torsions:
REMARK  status: ('A' for Active; 'I' for Inactive)
REMARK    1  A    between atoms: C_2  and  O_3
REMARK    2  A    between atoms: O_3  and  C_4
REMARK    3  A    between atoms: C_4  and  C_6
REMARK    4  A    between atoms: C_6  and  C_7
REMARK    5  A    between atoms: C_6  and  N_15
REMARK    6  A    between atoms: C_7  and  C_8
REMARK    7  A    between atoms: C_8  and  C_9
REMARK    8  A    between atoms: N_15  and  CA_16
REMARK    9  A    between atoms: CA_16  and  C_18
REMARK   10  A    between atoms: C_29  and  C_30
REMARK                            x       y       z     vdW  Elec       q    Type
REMARK                         _______ _______ _______ _____ _____    ______ ____
ROOT
ATOM      1  CA  ALA A   1      -8.701  16.032  67.431  0.00  0.00    +0.149 C 
ATOM      2  CB  ALA A   1      -7.253  15.255  67.236  0.00  0.00    +0.029 C 
ENDROOT
BRANCH   1   3
ATOM      3  C   ALA A   1      -8.066  17.447  66.975  0.00  0.00    +0.242 C 
ATOM      4  N   UNK A   2      -8.237  18.391  67.978  0.00  0.00    -0.266 N 
ATOM      5  C   UNK A   2      -8.908  19.781  67.661  0.00  0.00    +0.184 C 
ATOM      6  C   UNK A   2      -7.842  20.074  66.430  0.00  0.00    +0.058 C 
ATOM      7  C   UNK A   2      -6.529  20.244  67.085  0.00  0.00    -0.022 A 
ATOM      8  C   UNK A   2      -6.057  19.250  67.933  0.00  0.00    -0.006 A 
ATOM      9  C   UNK A   2      -4.713  18.945  67.979  0.00  0.00    -0.003 A 
ATOM     10  C   UNK A   2      -3.857  19.924  67.488  0.00  0.00    -0.000 A 
ATOM     11  C   UNK A   2      -4.339  21.176  67.122  0.00  0.00    -0.000 A 
ATOM     12  C   UNK A   2      -5.677  21.297  66.773  0.00  0.00    -0.004 A 
ATOM     13  C   UNK A   2      -7.072  18.620  68.834  0.00  0.00    +0.120 C 
ATOM     14  O   ALA A   1      -7.807  17.601  65.785  0.00  0.00    -0.273 OA
BRANCH   5  15
ATOM     15  C   UNK A   2     -10.064  19.135  66.726  0.00  0.00    +0.383 C 
ATOM     16  O   UNK A   2     -11.121  18.829  67.604  0.00  0.00    -0.244 OA
ATOM     17  O   UNK A   2     -10.479  19.822  65.773  0.00  0.00    -0.244 OA
ENDBRANCH   5  15
ENDBRANCH   1   3
BRANCH   1  18
ATOM     18  N   ALA A   1      -9.183  15.687  65.974  0.00  0.00    -0.201 NA
BRANCH  18  19
ATOM     19  C   UNK A   0     -10.237  14.530  66.186  0.00  0.00    +0.172 C 
BRANCH  19  20
ATOM     20  C   UNK A   0     -11.390  15.113  65.200  0.00  0.00    +0.333 C 
ATOM     21  O   UNK A   0     -10.875  16.117  64.608  0.00  0.00    -0.249 OA
BRANCH  20  22
ATOM     22  O   UNK A   0     -11.769  14.163  64.242  0.00  0.00    -0.448 OA
BRANCH  22  24
ATOM     23  C   UNK A   0     -12.630  12.370  64.490  0.00  0.00    +0.051 C 
ATOM     24  C   UNK A   0     -12.196  12.921  64.744  0.00  0.00    +0.209 C 
ENDBRANCH  22  24
ENDBRANCH  20  22
ENDBRANCH  19  20
BRANCH  19  25
ATOM     25  C   UNK A   0     -10.851  15.250  67.535  0.00  0.00    +0.033 C 
BRANCH  25  26
ATOM     26  C   UNK A   0     -11.767  14.343  68.211  0.00  0.00    +0.028 C 
BRANCH  26  27
ATOM     27  C   UNK A   0     -11.617  14.442  69.685  0.00  0.00    -0.022 A 
ATOM     28  C   UNK A   0     -11.257  15.670  70.231  0.00  0.00    -0.004 A 
ATOM     29  C   UNK A   0     -11.800  16.051  71.452  0.00  0.00    -0.000 A 
ATOM     30  C   UNK A   0     -12.723  15.263  72.113  0.00  0.00    -0.000 A 
ATOM     31  C   UNK A   0     -12.988  13.990  71.619  0.00  0.00    -0.000 A 
ATOM     32  C   UNK A   0     -12.267  13.549  70.514  0.00  0.00    -0.004 A 
ENDBRANCH  26  27
ENDBRANCH  25  26
ENDBRANCH  19  25
ENDBRANCH  18  19
ENDBRANCH   1  18
TORSDOF 10
ENDMDL
MODEL 3
REMARK VINA RESULT:      -7.7      3.682      6.915
REMARK  Name = 
REMARK  10 active torsions:
REMARK  status: ('A' for Active; 'I' for Inactive)
REMARK    1  A    between atoms: C_2  and  O_3
REMARK    2  A    between atoms: O_3  and  C_4
REMARK    3  A    between atoms: C_4  and  C_6
REMARK    4  A    between atoms: C_6  and  C_7
REMARK    5  A    between atoms: C_6  and  N_15
REMARK    6  A    between atoms: C_7  and  C_8
REMARK    7  A    between atoms: C_8  and  C_9
REMARK    8  A    between atoms: N_15  and  CA_16
REMARK    9  A    between atoms: CA_16  and  C_18
REMARK   10  A    between atoms: C_29  and  C_30
REMARK                            x       y       z     vdW  Elec       q    Type
REMARK                         _______ _______ _______ _____ _____    ______ ____
ROOT
ATOM      1  CA  ALA A   1      -9.056  16.157  67.062  0.00  0.00    +0.149 C 
ATOM      2  CB  ALA A   1      -7.663  15.292  66.841  0.00  0.00    +0.029 C 
ENDROOT
BRANCH   1   3
ATOM      3  C   ALA A   1      -8.296  17.558  66.788  0.00  0.00    +0.242 C 
ATOM      4  N   UNK A   2      -8.433  18.397  67.884  0.00  0.00    -0.266 N 
ATOM      5  C   UNK A   2      -8.981  19.864  67.704  0.00  0.00    +0.184 C 
ATOM      6  C   UNK A   2      -7.848  20.201  66.547  0.00  0.00    +0.058 C 
ATOM      7  C   UNK A   2      -6.553  20.191  67.257  0.00  0.00    -0.022 A 
ATOM      8  C   UNK A   2      -6.192  19.076  68.003  0.00  0.00    -0.006 A 
ATOM      9  C   UNK A   2      -4.879  18.659  68.055  0.00  0.00    -0.003 A 
ATOM     10  C   UNK A   2      -3.931  19.613  67.703  0.00  0.00    -0.000 A 
ATOM     11  C   UNK A   2      -4.300  20.932  67.464  0.00  0.00    -0.000 A 
ATOM     12  C   UNK A   2      -5.610  21.199  67.091  0.00  0.00    -0.004 A 
ATOM     13  C   UNK A   2      -7.287  18.436  68.796  0.00  0.00    +0.120 C 
ATOM     14  O   ALA A   1      -7.980  17.819  65.631  0.00  0.00    -0.273 OA
BRANCH   5  15
ATOM     15  C   UNK A   2     -10.146  19.420  66.668  0.00  0.00    +0.383 C 
ATOM     16  O   UNK A   2     -11.286  19.201  67.465  0.00  0.00    -0.244 OA
ATOM     17  O   UNK A   2     -10.413  20.204  65.737  0.00  0.00    -0.244 OA
ENDBRANCH   5  15
ENDBRANCH   1   3
BRANCH   1  18
ATOM     18  N   ALA A   1      -9.494  16.007  65.560  0.00  0.00    -0.201 NA
BRANCH  18  19
ATOM     19  C   UNK A   0     -10.525  14.811  65.581  0.00  0.00    +0.172 C 
BRANCH  19  20
ATOM     20  C   UNK A   0     -11.740  15.567  64.811  0.00  0.00    +0.333 C 
ATOM     21  O   UNK A   0     -11.208  16.531  64.169  0.00  0.00    -0.249 OA
BRANCH  20  22
ATOM     22  O   UNK A   0     -12.379  14.711  63.904  0.00  0.00    -0.448 OA
BRANCH  22  24
ATOM     23  C   UNK A   0     -12.093  12.760  63.547  0.00  0.00    +0.051 C 
ATOM     24  C   UNK A   0     -12.038  13.351  63.999  0.00  0.00    +0.209 C 
ENDBRANCH  22  24
ENDBRANCH  20  22
ENDBRANCH  19  20
BRANCH  19  25
ATOM     25  C   UNK A   0     -11.060  15.216  67.086  0.00  0.00    +0.033 C 
BRANCH  25  26
ATOM     26  C   UNK A   0     -12.104  14.294  67.509  0.00  0.00    +0.028 C 
BRANCH  26  27
ATOM     27  C   UNK A   0     -11.538  13.200  68.338  0.00  0.00    -0.022 A 
ATOM     28  C   UNK A   0     -11.857  13.164  69.692  0.00  0.00    -0.004 A 
ATOM     29  C   UNK A   0     -12.040  11.932  70.309  0.00  0.00    -0.000 A 
ATOM     30  C   UNK A   0     -11.957  10.748  69.603  0.00  0.00    -0.000 A 
ATOM     31  C   UNK A   0     -11.525  10.787  68.282  0.00  0.00    -0.000 A 
ATOM     32  C   UNK A   0     -11.140  12.014  67.752  0.00  0.00    -0.004 A 
ENDBRANCH  26  27
ENDBRANCH  25  26
ENDBRANCH  19  25
ENDBRANCH  18  19
ENDBRANCH   1  18
TORSDOF 10
ENDMDL
MODEL 4
REMARK VINA RESULT:      -7.6      3.720      6.867
REMARK  Name = 
REMARK  10 active torsions:
REMARK  status: ('A' for Active; 'I' for Inactive)
REMARK    1  A    between atoms: C_2  and  O_3
REMARK    2  A    between atoms: O_3  and  C_4
REMARK    3  A    between atoms: C_4  and  C_6
REMARK    4  A    between atoms: C_6  and  C_7
REMARK    5  A    between atoms: C_6  and  N_15
REMARK    6  A    between atoms: C_7  and  C_8
REMARK    7  A    between atoms: C_8  and  C_9
REMARK    8  A    between atoms: N_15  and  CA_16
REMARK    9  A    between atoms: CA_16  and  C_18
REMARK   10  A    between atoms: C_29  and  C_30
REMARK                            x       y       z     vdW  Elec       q    Type
REMARK                         _______ _______ _______ _____ _____    ______ ____
ROOT
ATOM      1  CA  ALA A   1      -9.276  16.602  68.706  0.00  0.00    +0.149 C 
ATOM      2  CB  ALA A   1      -7.986  15.586  68.908  0.00  0.00    +0.029 C 
ENDROOT
BRANCH   1   3
ATOM      3  C   ALA A   1      -8.429  17.575  67.731  0.00  0.00    +0.242 C 
ATOM      4  N   UNK A   2      -8.490  18.883  68.193  0.00  0.00    -0.266 N 
ATOM      5  C   UNK A   2      -8.941  20.048  67.233  0.00  0.00    +0.184 C 
ATOM      6  C   UNK A   2      -7.809  19.627  66.104  0.00  0.00    +0.058 C 
ATOM      7  C   UNK A   2      -6.505  19.920  66.733  0.00  0.00    -0.022 A 
ATOM      8  C   UNK A   2      -6.207  19.368  67.973  0.00  0.00    -0.006 A 
ATOM      9  C   UNK A   2      -4.924  18.962  68.272  0.00  0.00    -0.003 A 
ATOM     10  C   UNK A   2      -3.921  19.506  67.479  0.00  0.00    -0.000 A 
ATOM     11  C   UNK A   2      -4.205  20.505  66.554  0.00  0.00    -0.000 A 
ATOM     12  C   UNK A   2      -5.500  20.611  66.066  0.00  0.00    -0.004 A 
ATOM     13  C   UNK A   2      -7.329  19.335  68.962  0.00  0.00    +0.120 C 
ATOM     14  O   ALA A   1      -8.116  17.145  66.626  0.00  0.00    -0.273 OA
BRANCH   5  15
ATOM     15  C   UNK A   2     -10.151  19.190  66.579  0.00  0.00    +0.383 C 
ATOM     16  O   UNK A   2     -11.237  19.350  67.462  0.00  0.00    -0.244 OA
ATOM     17  O   UNK A   2     -10.494  19.478  65.416  0.00  0.00    -0.244 OA
ENDBRANCH   5  15
ENDBRANCH   1   3
BRANCH   1  18
ATOM     18  N   ALA A   1      -9.857  15.770  67.505  0.00  0.00    -0.201 NA
BRANCH  18  19
ATOM     19  C   UNK A   0     -10.077  14.329  68.111  0.00  0.00    +0.172 C 
BRANCH  19  20
ATOM     20  C   UNK A   0     -10.468  13.575  66.725  0.00  0.00    +0.333 C 
ATOM     21  O   UNK A   0     -10.391  12.327  66.966  0.00  0.00    -0.249 OA
BRANCH  20  22
ATOM     22  O   UNK A   0     -11.776  13.884  66.329  0.00  0.00    -0.448 OA
BRANCH  22  24
ATOM     23  C   UNK A   0     -12.118  13.874  64.354  0.00  0.00    +0.051 C 
ATOM     24  C   UNK A   0     -12.121  13.526  65.015  0.00  0.00    +0.209 C 
ENDBRANCH  22  24
ENDBRANCH  20  22
ENDBRANCH  19  20
BRANCH  19  25
ATOM     25  C   UNK A   0     -11.639  14.668  68.513  0.00  0.00    +0.033 C 
BRANCH  25  26
ATOM     26  C   UNK A   0     -11.942  14.129  69.831  0.00  0.00    +0.028 C 
BRANCH  26  27
ATOM     27  C   UNK A   0     -12.537  15.173  70.704  0.00  0.00    -0.022 A 
ATOM     28  C   UNK A   0     -13.857  15.017  71.115  0.00  0.00    -0.004 A 
ATOM     29  C   UNK A   0     -14.217  15.425  72.394  0.00  0.00    -0.000 A 
ATOM     30  C   UNK A   0     -13.290  15.939  73.280  0.00  0.00    -0.000 A 
ATOM     31  C   UNK A   0     -12.003  16.198  72.822  0.00  0.00    -0.000 A 
ATOM     32  C   UNK A   0     -11.727  15.983  71.476  0.00  0.00    -0.004 A 
ENDBRANCH  26  27
ENDBRANCH  25  26
ENDBRANCH  19  25
ENDBRANCH  18  19
ENDBRANCH   1  18
TORSDOF 10
ENDMDL
MODEL 5
REMARK VINA RESULT:      -7.4      2.533      4.769
REMARK  Name = 
REMARK  10 active torsions:
REMARK  status: ('A' for Active; 'I' for Inactive)
REMARK    1  A    between atoms: C_2  and  O_3
REMARK    2  A    between atoms: O_3  and  C_4
REMARK    3  A    between atoms: C_4  and  C_6
REMARK    4  A    between atoms: C_6  and  C_7
REMARK    5  A    between atoms: C_6  and  N_15
REMARK    6  A    between atoms: C_7  and  C_8
REMARK    7  A    between atoms: C_8  and  C_9
REMARK    8  A    between atoms: N_15  and  CA_16
REMARK    9  A    between atoms: CA_16  and  C_18
REMARK   10  A    between atoms: C_29  and  C_30
REMARK                            x       y       z     vdW  Elec       q    Type
REMARK                         _______ _______ _______ _____ _____    ______ ____
ROOT
ATOM      1  CA  ALA A   1     -11.623  14.417  66.554  0.00  0.00    +0.149 C 
ATOM      2  CB  ALA A   1     -11.088  15.177  65.185  0.00  0.00    +0.029 C 
ENDROOT
BRANCH   1   3
ATOM      3  C   ALA A   1     -10.679  13.134  66.278  0.00  0.00    +0.242 C 
ATOM      4  N   UNK A   2     -11.459  12.010  66.043  0.00  0.00    -0.266 N 
ATOM      5  C   UNK A   2     -11.227  10.689  66.870  0.00  0.00    +0.184 C 
ATOM      6  C   UNK A   2      -9.619  10.668  66.484  0.00  0.00    +0.058 C 
ATOM      7  C   UNK A   2      -9.571  10.412  65.031  0.00  0.00    -0.022 A 
ATOM      8  C   UNK A   2     -10.284  11.236  64.169  0.00  0.00    -0.006 A 
ATOM      9  C   UNK A   2      -9.777  11.564  62.929  0.00  0.00    -0.003 A 
ATOM     10  C   UNK A   2      -8.783  10.722  62.444  0.00  0.00    -0.000 A 
ATOM     11  C   UNK A   2      -8.449   9.551  63.116  0.00  0.00    -0.000 A 
ATOM     12  C   UNK A   2      -8.722   9.462  64.474  0.00  0.00    -0.004 A 
ATOM     13  C   UNK A   2     -11.643  11.653  64.635  0.00  0.00    +0.120 C 
ATOM     14  O   ALA A   1      -9.494  13.218  66.586  0.00  0.00    -0.273 OA
BRANCH   5  15
ATOM     15  C   UNK A   2     -11.047  11.471  68.278  0.00  0.00    +0.383 C 
ATOM     16  O   UNK A   2     -12.304  11.390  68.909  0.00  0.00    -0.244 OA
ATOM     17  O   UNK A   2     -10.152  11.068  69.046  0.00  0.00    -0.244 OA
ENDBRANCH   5  15
ENDBRANCH   1   3
BRANCH   1  18
ATOM     18  N   ALA A   1     -10.548  15.113  67.467  0.00  0.00    -0.201 NA
BRANCH  18  19
ATOM     19  C   UNK A   0     -11.312  16.354  68.077  0.00  0.00    +0.172 C 
BRANCH  19  20
ATOM     20  C   UNK A   0     -10.136  17.454  67.856  0.00  0.00    +0.333 C 
ATOM     21  O   UNK A   0      -9.081  16.794  67.582  0.00  0.00    -0.249 OA
BRANCH  20  22
ATOM     22  O   UNK A   0     -10.432  18.307  66.784  0.00  0.00    -0.448 OA
BRANCH  22  24
ATOM     23  C   UNK A   0      -9.997  20.126  67.503  0.00  0.00    +0.051 C 
ATOM     24  C   UNK A   0     -10.414  19.683  67.071  0.00  0.00    +0.209 C 
ENDBRANCH  22  24
ENDBRANCH  20  22
ENDBRANCH  19  20
BRANCH  19  25
ATOM     25  C   UNK A   0     -10.838  15.972  69.609  0.00  0.00    +0.033 C 
BRANCH  25  26
ATOM     26  C   UNK A   0     -11.256  14.616  69.936  0.00  0.00    +0.028 C 
BRANCH  26  27
ATOM     27  C   UNK A   0     -11.990  14.587  71.227  0.00  0.00    -0.022 A 
ATOM     28  C   UNK A   0     -11.583  15.452  72.238  0.00  0.00    -0.004 A 
ATOM     29  C   UNK A   0     -12.543  16.022  73.065  0.00  0.00    -0.000 A 
ATOM     30  C   UNK A   0     -13.892  15.787  72.880  0.00  0.00    -0.000 A 
ATOM     31  C   UNK A   0     -14.280  14.834  71.945  0.00  0.00    -0.000 A 
ATOM     32  C   UNK A   0     -13.288  14.120  71.281  0.00  0.00    -0.004 A 
ENDBRANCH  26  27
ENDBRANCH  25  26
ENDBRANCH  19  25
ENDBRANCH  18  19
ENDBRANCH   1  18
TORSDOF 10
ENDMDL
MODEL 6
REMARK VINA RESULT:      -7.3      2.272      4.799
REMARK  Name = 
REMARK  10 active torsions:
REMARK  status: ('A' for Active; 'I' for Inactive)
REMARK    1  A    between atoms: C_2  and  O_3
REMARK    2  A    between atoms: O_3  and  C_4
REMARK    3  A    between atoms: C_4  and  C_6
REMARK    4  A    between atoms: C_6  and  C_7
REMARK    5  A    between atoms: C_6  and  N_15
REMARK    6  A    between atoms: C_7  and  C_8
REMARK    7  A    between atoms: C_8  and  C_9
REMARK    8  A    between atoms: N_15  and  CA_16
REMARK    9  A    between atoms: CA_16  and  C_18
REMARK   10  A    between atoms: C_29  and  C_30
REMARK                            x       y       z     vdW  Elec       q    Type
REMARK                         _______ _______ _______ _____ _____    ______ ____
ROOT
ATOM      1  CA  ALA A   1     -10.422  10.368  69.440  0.00  0.00    +0.149 C 
ATOM      2  CB  ALA A   1     -10.429   8.798  68.916  0.00  0.00    +0.029 C 
ENDROOT
BRANCH   1   3
ATOM      3  C   ALA A   1     -10.686  10.926  67.945  0.00  0.00    +0.242 C 
ATOM      4  N   UNK A   2      -9.659  11.780  67.567  0.00  0.00    -0.266 N 
ATOM      5  C   UNK A   2      -9.979  13.228  67.036  0.00  0.00    +0.184 C 
ATOM      6  C   UNK A   2     -11.019  12.637  65.894  0.00  0.00    +0.058 C 
ATOM      7  C   UNK A   2     -10.169  11.889  64.945  0.00  0.00    -0.022 A 
ATOM      8  C   UNK A   2      -9.327  10.892  65.423  0.00  0.00    -0.006 A 
ATOM      9  C   UNK A   2      -9.105   9.747  64.688  0.00  0.00    -0.003 A 
ATOM     10  C   UNK A   2      -9.400   9.835  63.333  0.00  0.00    -0.000 A 
ATOM     11  C   UNK A   2      -9.750  11.052  62.756  0.00  0.00    -0.000 A 
ATOM     12  C   UNK A   2     -10.283  12.044  63.569  0.00  0.00    -0.004 A 
ATOM     13  C   UNK A   2      -8.628  11.187  66.713  0.00  0.00    +0.120 C 
ATOM     14  O   ALA A   1     -11.812  10.793  67.476  0.00  0.00    -0.273 OA
BRANCH   5  15
ATOM     15  C   UNK A   2     -11.114  13.509  68.160  0.00  0.00    +0.383 C 
ATOM     16  O   UNK A   2     -10.446  14.183  69.200  0.00  0.00    -0.244 OA
ATOM     17  O   UNK A   2     -12.122  14.151  67.807  0.00  0.00    -0.244 OA
ENDBRANCH   5  15
ENDBRANCH   1   3
BRANCH   1  18
ATOM     18  N   ALA A   1     -11.954  10.351  69.792  0.00  0.00    -0.201 NA
BRANCH  18  19
ATOM     19  C   UNK A   0     -11.999  10.746  71.320  0.00  0.00    +0.172 C 
BRANCH  19  20
ATOM     20  C   UNK A   0     -13.305   9.869  71.726  0.00  0.00    +0.333 C 
ATOM     21  O   UNK A   0     -13.739   9.358  70.643  0.00  0.00    -0.249 OA
BRANCH  20  22
ATOM     22  O   UNK A   0     -12.970   8.839  72.615  0.00  0.00    -0.448 OA
BRANCH  22  24
ATOM     23  C   UNK A   0     -11.428   7.566  72.472  0.00  0.00    +0.051 C 
ATOM     24  C   UNK A   0     -11.702   8.259  72.434  0.00  0.00    +0.209 C 
ENDBRANCH  22  24
ENDBRANCH  20  22
ENDBRANCH  19  20
BRANCH  19  25
ATOM     25  C   UNK A   0     -12.861  12.115  71.005  0.00  0.00    +0.033 C 
BRANCH  25  26
ATOM     26  C   UNK A   0     -13.520  12.579  72.218  0.00  0.00    +0.028 C 
BRANCH  26  27
ATOM     27  C   UNK A   0     -13.453  14.059  72.322  0.00  0.00    -0.022 A 
ATOM     28  C   UNK A   0     -12.858  14.616  73.449  0.00  0.00    -0.004 A 
ATOM     29  C   UNK A   0     -12.109  15.779  73.311  0.00  0.00    -0.000 A 
ATOM     30  C   UNK A   0     -11.904  16.367  72.078  0.00  0.00    -0.000 A 
ATOM     31  C   UNK A   0     -12.595  15.871  70.979  0.00  0.00    -0.000 A 
ATOM     32  C   UNK A   0     -13.507  14.841  71.184  0.00  0.00    -0.004 A 
ENDBRANCH  26  27
ENDBRANCH  25  26
ENDBRANCH  19  25
ENDBRANCH  18  19
ENDBRANCH   1  18
TORSDOF 10
ENDMDL
MODEL 7
REMARK VINA RESULT:      -7.2      2.849      6.910
REMARK  Name = 
REMARK  10 active torsions:
REMARK  status: ('A' for Active; 'I' for Inactive)
REMARK    1  A    between atoms: C_2  and  O_3
REMARK    2  A    between atoms: O_3  and  C_4
REMARK    3  A    between atoms: C_4  and  C_6
REMARK    4  A    between atoms: C_6  and  C_7
REMARK    5  A    between atoms: C_6  and  N_15
REMARK    6  A    between atoms: C_7  and  C_8
REMARK    7  A    between atoms: C_8  and  C_9
REMARK    8  A    between atoms: N_15  and  CA_16
REMARK    9  A    between atoms: CA_16  and  C_18
REMARK   10  A    between atoms: C_29  and  C_30
REMARK                            x       y       z     vdW  Elec       q    Type
REMARK                         _______ _______ _______ _____ _____    ______ ____
ROOT
ATOM      1  CA  ALA A   1     -10.284  12.619  68.205  0.00  0.00    +0.149 C 
ATOM      2  CB  ALA A   1     -11.767  12.916  68.878  0.00  0.00    +0.029 C 
ENDROOT
BRANCH   1   3
ATOM      3  C   ALA A   1     -10.598  11.038  68.076  0.00  0.00    +0.242 C 
ATOM      4  N   UNK A   2      -9.439  10.304  68.286  0.00  0.00    -0.266 N 
ATOM      5  C   UNK A   2      -8.971   9.230  67.232  0.00  0.00    +0.184 C 
ATOM      6  C   UNK A   2     -10.441   8.474  67.272  0.00  0.00    +0.058 C 
ATOM      7  C   UNK A   2     -10.542   7.893  68.627  0.00  0.00    -0.022 A 
ATOM      8  C   UNK A   2     -10.368   8.713  69.735  0.00  0.00    -0.006 A 
ATOM      9  C   UNK A   2     -11.109   8.514  70.880  0.00  0.00    -0.003 A 
ATOM     10  C   UNK A   2     -11.684   7.255  71.014  0.00  0.00    -0.000 A 
ATOM     11  C   UNK A   2     -11.392   6.238  70.112  0.00  0.00    -0.000 A 
ATOM     12  C   UNK A   2     -10.950   6.582  68.841  0.00  0.00    -0.004 A 
ATOM     13  C   UNK A   2      -9.284   9.738  69.628  0.00  0.00    +0.120 C 
ATOM     14  O   ALA A   1     -11.655  10.705  67.550  0.00  0.00    -0.273 OA
BRANCH   5  15
ATOM     15  C   UNK A   2      -9.308  10.174  65.957  0.00  0.00    +0.383 C 
ATOM     16  O   UNK A   2      -8.084  10.779  65.611  0.00  0.00    -0.244 OA
ATOM     17  O   UNK A   2      -9.816   9.627  64.959  0.00  0.00    -0.244 OA
ENDBRANCH   5  15
ENDBRANCH   1   3
BRANCH   1  18
ATOM     18  N   ALA A   1     -10.789  12.920  66.746  0.00  0.00    -0.201 NA
BRANCH  18  19
ATOM     19  C   UNK A   0     -11.588  14.274  66.891  0.00  0.00    +0.172 C 
BRANCH  19  20
ATOM     20  C   UNK A   0     -12.604  14.053  65.642  0.00  0.00    +0.333 C 
ATOM     21  O   UNK A   0     -12.152  14.765  64.686  0.00  0.00    -0.249 OA
BRANCH  20  22
ATOM     22  O   UNK A   0     -12.632  12.711  65.239  0.00  0.00    -0.448 OA
BRANCH  22  24
ATOM     23  C   UNK A   0     -12.369  11.873  63.438  0.00  0.00    +0.051 C 
ATOM     24  C   UNK A   0     -12.460  12.479  63.864  0.00  0.00    +0.209 C 
ENDBRANCH  22  24
ENDBRANCH  20  22
ENDBRANCH  19  20
BRANCH  19  25
ATOM     25  C   UNK A   0     -10.474  15.099  65.999  0.00  0.00    +0.033 C 
BRANCH  25  26
ATOM     26  C   UNK A   0      -9.633  15.905  66.874  0.00  0.00    +0.028 C 
BRANCH  26  27
ATOM     27  C   UNK A   0     -10.255  17.229  67.129  0.00  0.00    -0.022 A 
ATOM     28  C   UNK A   0     -10.113  17.793  68.393  0.00  0.00    -0.004 A 
ATOM     29  C   UNK A   0      -9.959  19.170  68.505  0.00  0.00    -0.000 A 
ATOM     30  C   UNK A   0      -9.898  19.985  67.391  0.00  0.00    -0.000 A 
ATOM     31  C   UNK A   0     -10.157  19.430  66.143  0.00  0.00    -0.000 A 
ATOM     32  C   UNK A   0     -10.522  18.089  66.082  0.00  0.00    -0.004 A 
ENDBRANCH  26  27
ENDBRANCH  25  26
ENDBRANCH  19  25
ENDBRANCH  18  19
ENDBRANCH   1  18
TORSDOF 10
ENDMDL
MODEL 8
REMARK VINA RESULT:      -7.2      3.784      6.530
REMARK  Name = 
REMARK  10 active torsions:
REMARK  status: ('A' for Active; 'I' for Inactive)
REMARK    1  A    between atoms: C_2  and  O_3
REMARK    2  A    between atoms: O_3  and  C_4
REMARK    3  A    between atoms: C_4  and  C_6
REMARK    4  A    between atoms: C_6  and  C_7
REMARK    5  A    between atoms: C_6  and  N_15
REMARK    6  A    between atoms: C_7  and  C_8
REMARK    7  A    between atoms: C_8  and  C_9
REMARK    8  A    between atoms: N_15  and  CA_16
REMARK    9  A    between atoms: CA_16  and  C_18
REMARK   10  A    between atoms: C_29  and  C_30
REMARK                            x       y       z     vdW  Elec       q    Type
REMARK                         _______ _______ _______ _____ _____    ______ ____
ROOT
ATOM      1  CA  ALA A   1      -8.905  16.590  68.792  0.00  0.00    +0.149 C 
ATOM      2  CB  ALA A   1      -7.475  15.797  69.044  0.00  0.00    +0.029 C 
ENDROOT
BRANCH   1   3
ATOM      3  C   ALA A   1      -8.222  17.602  67.731  0.00  0.00    +0.242 C 
ATOM      4  N   UNK A   2      -8.360  18.912  68.165  0.00  0.00    -0.266 N 
ATOM      5  C   UNK A   2      -8.983  20.007  67.218  0.00  0.00    +0.184 C 
ATOM      6  C   UNK A   2      -7.909  19.649  66.012  0.00  0.00    +0.058 C 
ATOM      7  C   UNK A   2      -6.590  20.068  66.529  0.00  0.00    -0.022 A 
ATOM      8  C   UNK A   2      -6.152  19.581  67.754  0.00  0.00    -0.006 A 
ATOM      9  C   UNK A   2      -4.819  19.293  67.960  0.00  0.00    -0.003 A 
ATOM     10  C   UNK A   2      -3.930  19.896  67.078  0.00  0.00    -0.000 A 
ATOM     11  C   UNK A   2      -4.369  20.839  66.155  0.00  0.00    -0.000 A 
ATOM     12  C   UNK A   2      -5.703  20.822  65.770  0.00  0.00    -0.004 A 
ATOM     13  C   UNK A   2      -7.187  19.483  68.830  0.00  0.00    +0.120 C 
ATOM     14  O   ALA A   1      -7.960  17.166  66.614  0.00  0.00    -0.273 OA
BRANCH   5  15
ATOM     15  C   UNK A   2     -10.161  19.031  66.682  0.00  0.00    +0.383 C 
ATOM     16  O   UNK A   2     -11.246  19.248  67.553  0.00  0.00    -0.244 OA
ATOM     17  O   UNK A   2     -10.524  19.169  65.498  0.00  0.00    -0.244 OA
ENDBRANCH   5  15
ENDBRANCH   1   3
BRANCH   1  18
ATOM     18  N   ALA A   1      -9.363  15.591  67.668  0.00  0.00    -0.201 NA
BRANCH  18  19
ATOM     19  C   UNK A   0     -10.934  15.754  67.630  0.00  0.00    +0.172 C 
BRANCH  19  20
ATOM     20  C   UNK A   0     -11.201  15.587  69.224  0.00  0.00    +0.333 C 
ATOM     21  O   UNK A   0     -12.274  16.228  69.473  0.00  0.00    -0.249 OA
BRANCH  20  22
ATOM     22  O   UNK A   0     -11.382  14.241  69.572  0.00  0.00    -0.448 OA
BRANCH  22  24
ATOM     23  C   UNK A   0     -12.538  13.524  71.044  0.00  0.00    +0.051 C 
ATOM     24  C   UNK A   0     -12.021  14.005  70.801  0.00  0.00    +0.209 C 
ENDBRANCH  22  24
ENDBRANCH  20  22
ENDBRANCH  19  20
BRANCH  19  25
ATOM     25  C   UNK A   0     -11.154  14.155  67.299  0.00  0.00    +0.033 C 
BRANCH  25  26
ATOM     26  C   UNK A   0     -12.175  13.994  66.273  0.00  0.00    +0.028 C 
BRANCH  26  27
ATOM     27  C   UNK A   0     -12.048  12.675  65.603  0.00  0.00    -0.022 A 
ATOM     28  C   UNK A   0     -12.297  12.600  64.236  0.00  0.00    -0.004 A 
ATOM     29  C   UNK A   0     -11.534  11.738  63.458  0.00  0.00    -0.000 A 
ATOM     30  C   UNK A   0     -10.508  10.989  63.999  0.00  0.00    -0.000 A 
ATOM     31  C   UNK A   0     -10.343  10.982  65.379  0.00  0.00    -0.000 A 
ATOM     32  C   UNK A   0     -11.258  11.686  66.155  0.00  0.00    -0.004 A 
ENDBRANCH  26  27
ENDBRANCH  25  26
ENDBRANCH  19  25
ENDBRANCH  18  19
ENDBRANCH   1  18
TORSDOF 10
ENDMDL
MODEL 9
REMARK VINA RESULT:      -7.1      3.390      6.742
REMARK  Name = 
REMARK  10 active torsions:
REMARK  status: ('A' for Active; 'I' for Inactive)
REMARK    1  A    between atoms: C_2  and  O_3
REMARK    2  A    between atoms: O_3  and  C_4
REMARK    3  A    between atoms: C_4  and  C_6
REMARK    4  A    between atoms: C_6  and  C_7
REMARK    5  A    between atoms: C_6  and  N_15
REMARK    6  A    between atoms: C_7  and  C_8
REMARK    7  A    between atoms: C_8  and  C_9
REMARK    8  A    between atoms: N_15  and  CA_16
REMARK    9  A    between atoms: CA_16  and  C_18
REMARK   10  A    between atoms: C_29  and  C_30
REMARK                            x       y       z     vdW  Elec       q    Type
REMARK                         _______ _______ _______ _____ _____    ______ ____
ROOT
ATOM      1  CA  ALA A   1      -9.297  15.017  66.591  0.00  0.00    +0.149 C 
ATOM      2  CB  ALA A   1     -10.161  16.214  65.843  0.00  0.00    +0.029 C 
ENDROOT
BRANCH   1   3
ATOM      3  C   ALA A   1      -8.491  16.089  67.495  0.00  0.00    +0.242 C 
ATOM      4  N   UNK A   2      -7.156  16.123  67.117  0.00  0.00    -0.266 N 
ATOM      5  C   UNK A   2      -6.017  15.935  68.190  0.00  0.00    +0.184 C 
ATOM      6  C   UNK A   2      -6.635  17.144  69.134  0.00  0.00    +0.058 C 
ATOM      7  C   UNK A   2      -6.443  18.383  68.354  0.00  0.00    -0.022 A 
ATOM      8  C   UNK A   2      -6.938  18.456  67.057  0.00  0.00    -0.006 A 
ATOM      9  C   UNK A   2      -7.460  19.634  66.568  0.00  0.00    -0.003 A 
ATOM     10  C   UNK A   2      -7.083  20.787  67.248  0.00  0.00    -0.000 A 
ATOM     11  C   UNK A   2      -6.125  20.740  68.256  0.00  0.00    -0.000 A 
ATOM     12  C   UNK A   2      -5.913  19.538  68.916  0.00  0.00    -0.004 A 
ATOM     13  C   UNK A   2      -6.781  17.222  66.226  0.00  0.00    +0.120 C 
ATOM     14  O   ALA A   1      -9.027  16.487  68.525  0.00  0.00    -0.273 OA
BRANCH   5  15
ATOM     15  C   UNK A   2      -6.782  14.726  68.952  0.00  0.00    +0.383 C 
ATOM     16  O   UNK A   2      -6.262  13.545  68.387  0.00  0.00    -0.244 OA
ATOM     17  O   UNK A   2      -6.693  14.685  70.194  0.00  0.00    -0.244 OA
ENDBRANCH   5  15
ENDBRANCH   1   3
BRANCH   1  18
ATOM     18  N   ALA A   1     -10.395  14.791  67.693  0.00  0.00    -0.201 NA
BRANCH  18  19
ATOM     19  C   UNK A   0     -10.161  13.302  68.165  0.00  0.00    +0.172 C 
BRANCH  19  20
ATOM     20  C   UNK A   0     -10.629  12.571  66.791  0.00  0.00    +0.333 C 
ATOM     21  O   UNK A   0     -10.260  11.355  66.893  0.00  0.00    -0.249 OA
BRANCH  20  22
ATOM     22  O   UNK A   0     -12.022  12.614  66.640  0.00  0.00    -0.448 OA
BRANCH  22  24
ATOM     23  C   UNK A   0     -12.214  13.249  64.748  0.00  0.00    +0.051 C 
ATOM     24  C   UNK A   0     -12.491  12.897  65.345  0.00  0.00    +0.209 C 
ENDBRANCH  22  24
ENDBRANCH  20  22
ENDBRANCH  19  20
BRANCH  19  25
ATOM     25  C   UNK A   0     -11.652  13.222  68.862  0.00  0.00    +0.033 C 
BRANCH  25  26
ATOM     26  C   UNK A   0     -12.053  14.540  69.332  0.00  0.00    +0.028 C 
BRANCH  26  27
ATOM     27  C   UNK A   0     -12.360  14.512  70.785  0.00  0.00    -0.022 A 
ATOM     28  C   UNK A   0     -11.509  15.189  71.653  0.00  0.00    -0.004 A 
ATOM     29  C   UNK A   0     -12.048  15.833  72.761  0.00  0.00    -0.000 A 
ATOM     30  C   UNK A   0     -13.409  15.855  72.995  0.00  0.00    -0.000 A 
ATOM     31  C   UNK A   0     -14.237  15.081  72.190  0.00  0.00    -0.000 A 
ATOM     32  C   UNK A   0     -13.648  14.274  71.222  0.00  0.00    -0.004 A 
ENDBRANCH  26  27
ENDBRANCH  25  26
ENDBRANCH  19  25
ENDBRANCH  18  19
ENDBRANCH   1  18
TORSDOF 10
ENDMDL
