MODEL 1
REMARK VINA RESULT:      -8.2      0.000      0.000
REMARK  Name = 
REMARK  2 active torsions:
REMARK  status: ('A' for Active; 'I' for Inactive)
REMARK    1  A    between atoms: C_26  and  C_27
REMARK    2  A    between atoms: C_27  and  C_29
REMARK                            x       y       z     vdW  Elec       q    Type
REMARK                         _______ _______ _______ _____ _____    ______ ____
ROOT
ATOM      1  C   UNL     1     -12.070  13.072  69.955  0.00  0.00    +0.061 C 
ATOM      2  C   UNL     1     -11.591  14.314  69.485  0.00  0.00    +0.188 C 
ATOM      3  O   UNL     1     -12.071  14.605  68.215  0.00  0.00    -0.330 OA
ATOM      4  C   UNL     1     -11.052  14.473  67.326  0.00  0.00    +0.172 C 
ATOM      5  C   UNL     1     -10.162  13.368  68.157  0.00  0.00    +0.149 C 
ATOM      6  C   UNL     1      -8.718  13.946  67.589  0.00  0.00    +0.033 C 
ATOM      7  C   UNL     1      -8.980  15.435  68.143  0.00  0.00    +0.008 C 
ATOM      8  C   UNL     1      -7.901  16.238  67.115  0.00  0.00    +0.033 C 
ATOM      9  C   UNL     1      -8.288  17.655  67.755  0.00  0.00    +0.164 C 
ATOM     10  C   UNL     1      -9.678  18.130  67.024  0.00  0.00    +0.182 C 
ATOM     11  C   UNL     1     -10.624  16.855  67.433  0.00  0.00    +0.038 C 
ATOM     12  O   UNL     1      -9.293  17.581  65.662  0.00  0.00    -0.220 OA
ATOM     13  F   UNL     1      -8.488  17.586  69.059  0.00  0.00    -0.237 F 
ATOM     14  C   UNL     1      -7.266  18.637  67.293  0.00  0.00    +0.046 C 
ATOM     15  C   UNL     1      -6.032  18.326  68.083  0.00  0.00    -0.039 C 
ATOM     16  C   UNL     1      -5.787  19.011  69.176  0.00  0.00    +0.029 C 
ATOM     17  C   UNL     1      -5.817  20.473  69.028  0.00  0.00    +0.173 C 
ATOM     18  C   UNL     1      -6.383  20.934  67.719  0.00  0.00    +0.070 C 
ATOM     19  O   UNL     1      -5.392  21.259  69.896  0.00  0.00    -0.291 OA
ATOM     20  C   UNL     1      -5.577  16.927  67.845  0.00  0.00    +0.022 C 
ATOM     21  C   UNL     1      -6.855  18.410  65.852  0.00  0.00    +0.007 C 
ATOM     22  C   UNL     1      -7.613  20.059  67.508  0.00  0.00    +0.014 C 
ATOM     23  C   UNL     1      -6.686  15.991  68.158  0.00  0.00    +0.007 C 
ATOM     24  C   UNL     1     -10.169  15.587  67.060  0.00  0.00    +0.034 C 
ATOM     25  C   UNL     1      -9.631  15.239  65.710  0.00  0.00    +0.003 C 
ATOM     26  O   UNL     1     -10.215  14.216  69.415  0.00  0.00    -0.334 OA
ATOM     27  C   UNL     1     -12.054  15.350  70.472  0.00  0.00    +0.061 C 
ENDROOT
BRANCH   4  28
ATOM     28  C   UNL     1     -11.376  13.589  66.149  0.00  0.00    +0.193 C 
ATOM     29  O   UNL     1     -11.308  12.362  66.248  0.00  0.00    -0.292 OA
BRANCH  28  30
ATOM     30  C   UNL     1     -12.461  13.973  65.176  0.00  0.00    +0.161 C 
ATOM     31 CL   UNL     1     -12.230  13.193  63.603  0.00  0.00    -0.105 Cl
ENDBRANCH  28  30
ENDBRANCH   4  28
TORSDOF 2
ENDMDL
MODEL 2
REMARK VINA RESULT:      -7.4      2.569      6.784
REMARK  Name = 
REMARK  2 active torsions:
REMARK  status: ('A' for Active; 'I' for Inactive)
REMARK    1  A    between atoms: C_26  and  C_27
REMARK    2  A    between atoms: C_27  and  C_29
REMARK                            x       y       z     vdW  Elec       q    Type
REMARK                         _______ _______ _______ _____ _____    ______ ____
ROOT
ATOM      1  C   UNL     1      -5.049  19.079  69.566  0.00  0.00    +0.061 C 
ATOM      2  C   UNL     1      -5.774  18.085  68.874  0.00  0.00    +0.188 C 
ATOM      3  O   UNL     1      -5.929  18.401  67.530  0.00  0.00    -0.330 OA
ATOM      4  C   UNL     1      -7.224  18.751  67.314  0.00  0.00    +0.172 C 
ATOM      5  C   UNL     1      -7.572  19.296  68.826  0.00  0.00    +0.149 C 
ATOM      6  C   UNL     1      -9.156  18.818  68.750  0.00  0.00    +0.033 C 
ATOM      7  C   UNL     1      -8.783  17.280  68.454  0.00  0.00    +0.008 C 
ATOM      8  C   UNL     1     -10.260  16.832  67.758  0.00  0.00    +0.033 C 
ATOM      9  C   UNL     1      -9.733  15.341  67.506  0.00  0.00    +0.164 C 
ATOM     10  C   UNL     1      -8.849  15.389  66.125  0.00  0.00    +0.182 C 
ATOM     11  C   UNL     1      -7.730  16.498  66.581  0.00  0.00    +0.038 C 
ATOM     12  O   UNL     1      -9.757  16.389  65.434  0.00  0.00    -0.220 OA
ATOM     13  F   UNL     1      -8.970  14.898  68.490  0.00  0.00    -0.237 F 
ATOM     14  C   UNL     1     -10.921  14.509  67.163  0.00  0.00    +0.046 C 
ATOM     15  C   UNL     1     -11.651  14.309  68.456  0.00  0.00    -0.039 C 
ATOM     16  C   UNL     1     -11.434  13.213  69.146  0.00  0.00    +0.029 C 
ATOM     17  C   UNL     1     -11.578  11.955  68.399  0.00  0.00    +0.173 C 
ATOM     18  C   UNL     1     -11.686  12.145  66.917  0.00  0.00    +0.070 C 
ATOM     19  O   UNL     1     -11.629  10.836  68.944  0.00  0.00    -0.291 OA
ATOM     20  C   UNL     1     -12.063  15.612  69.051  0.00  0.00    +0.022 C 
ATOM     21  C   UNL     1     -11.910  15.247  66.285  0.00  0.00    +0.007 C 
ATOM     22  C   UNL     1     -10.617  13.181  66.587  0.00  0.00    +0.014 C 
ATOM     23  C   UNL     1     -10.866  16.474  69.217  0.00  0.00    +0.007 C 
ATOM     24  C   UNL     1      -8.211  17.737  67.013  0.00  0.00    +0.034 C 
ATOM     25  C   UNL     1      -9.266  18.532  66.313  0.00  0.00    +0.003 C 
ATOM     26  O   UNL     1      -7.028  18.024  69.451  0.00  0.00    -0.334 OA
ATOM     27  C   UNL     1      -4.998  16.806  69.026  0.00  0.00    +0.061 C 
ENDROOT
BRANCH   4  28
ATOM     28  C   UNL     1      -7.394  20.071  66.607  0.00  0.00    +0.193 C 
ATOM     29  O   UNL     1      -7.388  21.127  67.241  0.00  0.00    -0.292 OA
BRANCH  28  30
ATOM     30  C   UNL     1      -6.813  20.286  65.233  0.00  0.00    +0.161 C 
ATOM     31 CL   UNL     1      -5.124  20.812  65.317  0.00  0.00    -0.105 Cl
ENDBRANCH  28  30
ENDBRANCH   4  28
TORSDOF 2
ENDMDL
MODEL 3
REMARK VINA RESULT:      -7.1      2.289      3.683
REMARK  Name = 
REMARK  2 active torsions:
REMARK  status: ('A' for Active; 'I' for Inactive)
REMARK    1  A    between atoms: C_26  and  C_27
REMARK    2  A    between atoms: C_27  and  C_29
REMARK                            x       y       z     vdW  Elec       q    Type
REMARK                         _______ _______ _______ _____ _____    ______ ____
ROOT
ATOM      1  C   UNL     1     -12.438  12.563  65.262  0.00  0.00    +0.061 C 
ATOM      2  C   UNL     1     -11.222  13.235  65.514  0.00  0.00    +0.188 C 
ATOM      3  O   UNL     1     -10.524  12.662  66.569  0.00  0.00    -0.330 OA
ATOM      4  C   UNL     1     -10.597  13.495  67.641  0.00  0.00    +0.172 C 
ATOM      5  C   UNL     1     -12.024  14.225  67.270  0.00  0.00    +0.149 C 
ATOM      6  C   UNL     1     -11.585  15.669  67.950  0.00  0.00    +0.033 C 
ATOM      7  C   UNL     1     -10.275  15.821  67.028  0.00  0.00    +0.008 C 
ATOM      8  C   UNL     1      -9.434  16.899  68.027  0.00  0.00    +0.033 C 
ATOM      9  C   UNL     1      -8.192  16.927  67.017  0.00  0.00    +0.164 C 
ATOM     10  C   UNL     1      -7.299  15.590  67.343  0.00  0.00    +0.182 C 
ATOM     11  C   UNL     1      -8.446  14.450  67.069  0.00  0.00    +0.038 C 
ATOM     12  O   UNL     1      -7.528  15.653  68.842  0.00  0.00    -0.220 OA
ATOM     13  F   UNL     1      -8.566  16.896  65.750  0.00  0.00    -0.237 F 
ATOM     14  C   UNL     1      -7.322  18.068  67.424  0.00  0.00    +0.046 C 
ATOM     15  C   UNL     1      -8.048  19.298  66.973  0.00  0.00    -0.039 C 
ATOM     16  C   UNL     1      -7.732  19.836  65.818  0.00  0.00    +0.029 C 
ATOM     17  C   UNL     1      -6.302  20.110  65.616  0.00  0.00    +0.173 C 
ATOM     18  C   UNL     1      -5.418  19.486  66.653  0.00  0.00    +0.070 C 
ATOM     19  O   UNL     1      -5.862  20.813  64.686  0.00  0.00    -0.291 OA
ATOM     20  C   UNL     1      -9.392  19.396  67.609  0.00  0.00    +0.022 C 
ATOM     21  C   UNL     1      -7.230  18.217  68.928  0.00  0.00    +0.007 C 
ATOM     22  C   UNL     1      -5.970  18.076  66.825  0.00  0.00    +0.014 C 
ATOM     23  C   UNL     1     -10.162  18.161  67.318  0.00  0.00    +0.007 C 
ATOM     24  C   UNL     1      -9.630  14.558  67.803  0.00  0.00    +0.034 C 
ATOM     25  C   UNL     1      -9.700  14.816  69.274  0.00  0.00    +0.003 C 
ATOM     26  O   UNL     1     -11.544  14.533  65.863  0.00  0.00    -0.334 OA
ATOM     27  C   UNL     1     -10.418  13.153  64.246  0.00  0.00    +0.061 C 
ENDROOT
BRANCH   4  28
ATOM     28  C   UNL     1     -11.066  12.827  68.907  0.00  0.00    +0.193 C 
ATOM     29  O   UNL     1     -12.163  13.104  69.395  0.00  0.00    -0.292 OA
BRANCH  28  30
ATOM     30  C   UNL     1     -10.723  11.386  69.186  0.00  0.00    +0.161 C 
ATOM     31 CL   UNL     1     -11.726  10.719  70.485  0.00  0.00    -0.105 Cl
ENDBRANCH  28  30
ENDBRANCH   4  28
TORSDOF 2
ENDMDL
MODEL 4
REMARK VINA RESULT:      -7.0      2.369      4.019
REMARK  Name = 
REMARK  2 active torsions:
REMARK  status: ('A' for Active; 'I' for Inactive)
REMARK    1  A    between atoms: C_26  and  C_27
REMARK    2  A    between atoms: C_27  and  C_29
REMARK                            x       y       z     vdW  Elec       q    Type
REMARK                         _______ _______ _______ _____ _____    ______ ____
ROOT
ATOM      1  C   UNL     1      -8.737  10.088  65.827  0.00  0.00    +0.061 C 
ATOM      2  C   UNL     1      -8.449  11.283  66.521  0.00  0.00    +0.188 C 
ATOM      3  O   UNL     1      -8.915  11.247  67.828  0.00  0.00    -0.330 OA
ATOM      4  C   UNL     1      -9.992  12.069  67.928  0.00  0.00    +0.172 C 
ATOM      5  C   UNL     1     -10.497  11.980  66.365  0.00  0.00    +0.149 C 
ATOM      6  C   UNL     1     -11.078  13.530  66.352  0.00  0.00    +0.033 C 
ATOM      7  C   UNL     1      -9.661  14.173  66.764  0.00  0.00    +0.008 C 
ATOM      8  C   UNL     1     -10.258  15.635  67.374  0.00  0.00    +0.033 C 
ATOM      9  C   UNL     1      -8.781  16.126  67.749  0.00  0.00    +0.164 C 
ATOM     10  C   UNL     1      -8.412  15.427  69.187  0.00  0.00    +0.182 C 
ATOM     11  C   UNL     1      -8.576  13.855  68.751  0.00  0.00    +0.038 C 
ATOM     12  O   UNL     1      -9.816  15.558  69.750  0.00  0.00    -0.220 OA
ATOM     13  F   UNL     1      -7.881  15.765  66.852  0.00  0.00    -0.237 F 
ATOM     14  C   UNL     1      -8.868  17.583  68.052  0.00  0.00    +0.046 C 
ATOM     15  C   UNL     1      -9.031  18.254  66.723  0.00  0.00    -0.039 C 
ATOM     16  C   UNL     1      -7.969  18.730  66.115  0.00  0.00    +0.029 C 
ATOM     17  C   UNL     1      -7.126  19.625  66.921  0.00  0.00    +0.173 C 
ATOM     18  C   UNL     1      -7.476  19.630  68.379  0.00  0.00    +0.070 C 
ATOM     19  O   UNL     1      -6.219  20.331  66.441  0.00  0.00    -0.291 OA
ATOM     20  C   UNL     1     -10.258  17.777  66.024  0.00  0.00    +0.022 C 
ATOM     21  C   UNL     1     -10.129  17.942  68.810  0.00  0.00    +0.007 C 
ATOM     22  C   UNL     1      -7.684  18.160  68.725  0.00  0.00    +0.014 C 
ATOM     23  C   UNL     1     -10.207  16.300  65.897  0.00  0.00    +0.007 C 
ATOM     24  C   UNL     1      -9.809  13.476  68.214  0.00  0.00    +0.034 C 
ATOM     25  C   UNL     1     -11.139  13.848  68.787  0.00  0.00    +0.003 C 
ATOM     26  O   UNL     1      -9.103  12.303  65.857  0.00  0.00    -0.334 OA
ATOM     27  C   UNL     1      -6.953  11.438  66.500  0.00  0.00    +0.061 C 
ENDROOT
BRANCH   4  28
ATOM     28  C   UNL     1     -11.205  11.421  68.542  0.00  0.00    +0.193 C 
ATOM     29  O   UNL     1     -12.062  10.893  67.831  0.00  0.00    -0.292 OA
BRANCH  28  30
ATOM     30  C   UNL     1     -11.103  10.694  69.859  0.00  0.00    +0.161 C 
ATOM     31 CL   UNL     1     -12.438  11.122  70.943  0.00  0.00    -0.105 Cl
ENDBRANCH  28  30
ENDBRANCH   4  28
TORSDOF 2
ENDMDL
MODEL 5
REMARK VINA RESULT:      -6.9      2.553      6.699
REMARK  Name = 
REMARK  2 active torsions:
REMARK  status: ('A' for Active; 'I' for Inactive)
REMARK    1  A    between atoms: C_26  and  C_27
REMARK    2  A    between atoms: C_27  and  C_29
REMARK                            x       y       z     vdW  Elec       q    Type
REMARK                         _______ _______ _______ _____ _____    ______ ____
ROOT
ATOM      1  C   UNL     1      -6.206  18.131  69.238  0.00  0.00    +0.061 C 
ATOM      2  C   UNL     1      -6.827  17.363  68.229  0.00  0.00    +0.188 C 
ATOM      3  O   UNL     1      -7.678  18.132  67.445  0.00  0.00    -0.330 OA
ATOM      4  C   UNL     1      -8.961  17.805  67.749  0.00  0.00    +0.172 C 
ATOM      5  C   UNL     1      -8.713  17.310  69.298  0.00  0.00    +0.149 C 
ATOM      6  C   UNL     1      -9.918  16.176  69.242  0.00  0.00    +0.033 C 
ATOM      7  C   UNL     1      -9.277  15.410  67.979  0.00  0.00    +0.008 C 
ATOM      8  C   UNL     1     -10.691  14.641  67.455  0.00  0.00    +0.033 C 
ATOM      9  C   UNL     1      -9.915  13.968  66.226  0.00  0.00    +0.164 C 
ATOM     10  C   UNL     1      -9.838  15.107  65.047  0.00  0.00    +0.182 C 
ATOM     11  C   UNL     1      -9.035  16.272  65.876  0.00  0.00    +0.038 C 
ATOM     12  O   UNL     1     -11.220  15.668  65.329  0.00  0.00    -0.220 OA
ATOM     13  F   UNL     1      -8.688  13.593  66.543  0.00  0.00    -0.237 F 
ATOM     14  C   UNL     1     -10.808  12.912  65.670  0.00  0.00    +0.046 C 
ATOM     15  C   UNL     1     -10.752  11.786  66.657  0.00  0.00    -0.039 C 
ATOM     16  C   UNL     1      -9.916  10.796  66.446  0.00  0.00    +0.029 C 
ATOM     17  C   UNL     1      -9.999  10.169  65.119  0.00  0.00    +0.173 C 
ATOM     18  C   UNL     1     -10.836  10.937  64.142  0.00  0.00    +0.070 C 
ATOM     19  O   UNL     1      -9.446   9.090  64.834  0.00  0.00    -0.291 OA
ATOM     20  C   UNL     1     -11.214  12.225  68.004  0.00  0.00    +0.022 C 
ATOM     21  C   UNL     1     -12.264  13.330  65.662  0.00  0.00    +0.007 C 
ATOM     22  C   UNL     1     -10.418  12.389  64.343  0.00  0.00    +0.014 C 
ATOM     23  C   UNL     1     -10.406  13.390  68.444  0.00  0.00    +0.007 C 
ATOM     24  C   UNL     1      -9.612  16.705  67.072  0.00  0.00    +0.034 C 
ATOM     25  C   UNL     1     -11.057  17.047  67.247  0.00  0.00    +0.003 C 
ATOM     26  O   UNL     1      -7.581  16.396  68.865  0.00  0.00    -0.334 OA
ATOM     27  C   UNL     1      -5.721  16.785  67.391  0.00  0.00    +0.061 C 
ENDROOT
BRANCH   4  28
ATOM     28  C   UNL     1      -9.834  18.988  68.081  0.00  0.00    +0.193 C 
ATOM     29  O   UNL     1     -10.044  19.305  69.253  0.00  0.00    -0.292 OA
BRANCH  28  30
ATOM     30  C   UNL     1      -9.830  20.214  67.204  0.00  0.00    +0.161 C 
ATOM     31 CL   UNL     1     -10.590  19.895  65.636  0.00  0.00    -0.105 Cl
ENDBRANCH  28  30
ENDBRANCH   4  28
TORSDOF 2
ENDMDL
MODEL 6
REMARK VINA RESULT:      -6.8      2.575      7.099
REMARK  Name = 
REMARK  2 active torsions:
REMARK  status: ('A' for Active; 'I' for Inactive)
REMARK    1  A    between atoms: C_26  and  C_27
REMARK    2  A    between atoms: C_27  and  C_29
REMARK                            x       y       z     vdW  Elec       q    Type
REMARK                         _______ _______ _______ _____ _____    ______ ____
ROOT
ATOM      1  C   UNL     1      -4.561  21.233  70.638  0.00  0.00    +0.061 C 
ATOM      2  C   UNL     1      -5.120  19.994  70.254  0.00  0.00    +0.188 C 
ATOM      3  O   UNL     1      -4.365  19.371  69.269  0.00  0.00    -0.330 OA
ATOM      4  C   UNL     1      -5.043  19.442  68.094  0.00  0.00    +0.172 C 
ATOM      5  C   UNL     1      -5.899  20.812  68.403  0.00  0.00    +0.149 C 
ATOM      6  C   UNL     1      -7.206  20.324  67.511  0.00  0.00    +0.033 C 
ATOM      7  C   UNL     1      -7.409  18.971  68.360  0.00  0.00    +0.008 C 
ATOM      8  C   UNL     1      -8.286  18.116  67.191  0.00  0.00    +0.033 C 
ATOM      9  C   UNL     1      -8.382  16.834  68.147  0.00  0.00    +0.164 C 
ATOM     10  C   UNL     1      -6.963  16.028  67.985  0.00  0.00    +0.182 C 
ATOM     11  C   UNL     1      -5.941  17.221  68.455  0.00  0.00    +0.038 C 
ATOM     12  O   UNL     1      -6.829  16.312  66.500  0.00  0.00    -0.220 OA
ATOM     13  F   UNL     1      -8.551  17.158  69.417  0.00  0.00    -0.237 F 
ATOM     14  C   UNL     1      -9.402  15.922  67.555  0.00  0.00    +0.046 C 
ATOM     15  C   UNL     1     -10.724  16.562  67.849  0.00  0.00    -0.039 C 
ATOM     16  C   UNL     1     -11.399  16.172  68.906  0.00  0.00    +0.029 C 
ATOM     17  C   UNL     1     -11.614  14.723  69.021  0.00  0.00    +0.173 C 
ATOM     18  C   UNL     1     -10.801  13.915  68.055  0.00  0.00    +0.070 C 
ATOM     19  O   UNL     1     -12.413  14.209  69.827  0.00  0.00    -0.291 OA
ATOM     20  C   UNL     1     -10.810  17.924  67.250  0.00  0.00    +0.022 C 
ATOM     21  C   UNL     1      -9.334  15.882  66.042  0.00  0.00    +0.007 C 
ATOM     22  C   UNL     1      -9.415  14.548  68.103  0.00  0.00    +0.014 C 
ATOM     23  C   UNL     1      -9.675  18.746  67.738  0.00  0.00    +0.007 C 
ATOM     24  C   UNL     1      -6.015  18.426  67.751  0.00  0.00    +0.034 C 
ATOM     25  C   UNL     1      -6.068  18.542  66.262  0.00  0.00    +0.003 C 
ATOM     26  O   UNL     1      -6.373  20.260  69.736  0.00  0.00    -0.334 OA
ATOM     27  C   UNL     1      -5.168  19.146  71.495  0.00  0.00    +0.061 C 
ENDROOT
BRANCH   4  28
ATOM     28  C   UNL     1      -4.233  19.996  66.950  0.00  0.00    +0.193 C 
ATOM     29  O   UNL     1      -4.179  21.210  66.750  0.00  0.00    -0.292 OA
BRANCH  28  30
ATOM     30  C   UNL     1      -2.936  19.343  66.542  0.00  0.00    +0.161 C 
ATOM     31 CL   UNL     1      -2.770  19.276  64.779  0.00  0.00    -0.105 Cl
ENDBRANCH  28  30
ENDBRANCH   4  28
TORSDOF 2
ENDMDL
MODEL 7
REMARK VINA RESULT:      -6.6      2.879      7.085
REMARK  Name = 
REMARK  2 active torsions:
REMARK  status: ('A' for Active; 'I' for Inactive)
REMARK    1  A    between atoms: C_26  and  C_27
REMARK    2  A    between atoms: C_27  and  C_29
REMARK                            x       y       z     vdW  Elec       q    Type
REMARK                         _______ _______ _______ _____ _____    ______ ____
ROOT
ATOM      1  C   UNL     1      -4.137  18.769  65.933  0.00  0.00    +0.061 C 
ATOM      2  C   UNL     1      -5.507  18.428  65.940  0.00  0.00    +0.188 C 
ATOM      3  O   UNL     1      -6.189  19.051  66.978  0.00  0.00    -0.330 OA
ATOM      4  C   UNL     1      -6.492  18.119  67.919  0.00  0.00    +0.172 C 
ATOM      5  C   UNL     1      -5.259  17.074  67.616  0.00  0.00    +0.149 C 
ATOM      6  C   UNL     1      -6.148  15.738  68.024  0.00  0.00    +0.033 C 
ATOM      7  C   UNL     1      -7.299  16.048  66.942  0.00  0.00    +0.008 C 
ATOM      8  C   UNL     1      -8.527  15.137  67.669  0.00  0.00    +0.033 C 
ATOM      9  C   UNL     1      -9.567  15.557  66.527  0.00  0.00    +0.164 C 
ATOM     10  C   UNL     1     -10.130  17.043  66.936  0.00  0.00    +0.182 C 
ATOM     11  C   UNL     1      -8.704  17.852  66.966  0.00  0.00    +0.038 C 
ATOM     12  O   UNL     1     -10.155  16.758  68.427  0.00  0.00    -0.220 OA
ATOM     13  F   UNL     1      -9.011  15.623  65.330  0.00  0.00    -0.237 F 
ATOM     14  C   UNL     1     -10.749  14.659  66.660  0.00  0.00    +0.046 C 
ATOM     15  C   UNL     1     -10.301  13.333  66.124  0.00  0.00    -0.039 C 
ATOM     16  C   UNL     1     -10.564  13.030  64.874  0.00  0.00    +0.029 C 
ATOM     17  C   UNL     1     -11.969  13.178  64.469  0.00  0.00    +0.173 C 
ATOM     18  C   UNL     1     -12.813  13.902  65.474  0.00  0.00    +0.070 C 
ATOM     19  O   UNL     1     -12.427  12.727  63.401  0.00  0.00    -0.291 OA
ATOM     20  C   UNL     1      -9.137  12.806  66.892  0.00  0.00    +0.022 C 
ATOM     21  C   UNL     1     -11.103  14.378  68.105  0.00  0.00    +0.007 C 
ATOM     22  C   UNL     1     -11.952  15.083  65.911  0.00  0.00    +0.014 C 
ATOM     23  C   UNL     1      -8.044  13.810  66.875  0.00  0.00    +0.007 C 
ATOM     24  C   UNL     1      -7.711  17.348  67.811  0.00  0.00    +0.034 C 
ATOM     25  C   UNL     1      -7.933  16.922  69.227  0.00  0.00    +0.003 C 
ATOM     26  O   UNL     1      -5.582  17.062  66.132  0.00  0.00    -0.334 OA
ATOM     27  C   UNL     1      -6.063  18.863  64.612  0.00  0.00    +0.061 C 
ENDROOT
BRANCH   4  28
ATOM     28  C   UNL     1      -6.067  18.494  69.315  0.00  0.00    +0.193 C 
ATOM     29  O   UNL     1      -4.979  18.123  69.760  0.00  0.00    -0.292 OA
BRANCH  28  30
ATOM     30  C   UNL     1      -6.437  19.835  69.896  0.00  0.00    +0.161 C 
ATOM     31 CL   UNL     1      -5.732  20.063  71.505  0.00  0.00    -0.105 Cl
ENDBRANCH  28  30
ENDBRANCH   4  28
TORSDOF 2
ENDMDL
MODEL 8
REMARK VINA RESULT:      -6.6      4.884      7.661
REMARK  Name = 
REMARK  2 active torsions:
REMARK  status: ('A' for Active; 'I' for Inactive)
REMARK    1  A    between atoms: C_26  and  C_27
REMARK    2  A    between atoms: C_27  and  C_29
REMARK                            x       y       z     vdW  Elec       q    Type
REMARK                         _______ _______ _______ _____ _____    ______ ____
ROOT
ATOM      1  C   UNL     1     -10.888   5.623  69.484  0.00  0.00    +0.061 C 
ATOM      2  C   UNL     1     -10.518   6.713  68.666  0.00  0.00    +0.188 C 
ATOM      3  O   UNL     1      -9.150   6.948  68.707  0.00  0.00    -0.330 OA
ATOM      4  C   UNL     1      -8.927   8.085  69.416  0.00  0.00    +0.172 C 
ATOM      5  C   UNL     1     -10.265   8.030  70.370  0.00  0.00    +0.149 C 
ATOM      6  C   UNL     1     -10.407   9.677  70.451  0.00  0.00    +0.033 C 
ATOM      7  C   UNL     1     -10.495   9.850  68.853  0.00  0.00    +0.008 C 
ATOM      8  C   UNL     1     -10.025  11.475  68.788  0.00  0.00    +0.033 C 
ATOM      9  C   UNL     1     -10.135  11.482  67.190  0.00  0.00    +0.164 C 
ATOM     10  C   UNL     1      -8.738  10.830  66.626  0.00  0.00    +0.182 C 
ATOM     11  C   UNL     1      -8.828   9.368  67.364  0.00  0.00    +0.038 C 
ATOM     12  O   UNL     1      -7.867  11.467  67.694  0.00  0.00    -0.220 OA
ATOM     13  F   UNL     1     -11.153  10.766  66.747  0.00  0.00    -0.237 F 
ATOM     14  C   UNL     1     -10.086  12.907  66.754  0.00  0.00    +0.046 C 
ATOM     15  C   UNL     1     -11.428  13.474  67.107  0.00  0.00    -0.039 C 
ATOM     16  C   UNL     1     -12.363  13.517  66.186  0.00  0.00    +0.029 C 
ATOM     17  C   UNL     1     -11.974  14.151  64.918  0.00  0.00    +0.173 C 
ATOM     18  C   UNL     1     -10.501  14.400  64.796  0.00  0.00    +0.070 C 
ATOM     19  O   UNL     1     -12.790  14.472  64.033  0.00  0.00    -0.291 OA
ATOM     20  C   UNL     1     -11.691  13.369  68.570  0.00  0.00    +0.022 C 
ATOM     21  C   UNL     1      -9.107  13.728  67.567  0.00  0.00    +0.007 C 
ATOM     22  C   UNL     1      -9.855  13.118  65.309  0.00  0.00    +0.014 C 
ATOM     23  C   UNL     1     -11.560  11.952  68.991  0.00  0.00    +0.007 C 
ATOM     24  C   UNL     1      -8.954   9.372  68.755  0.00  0.00    +0.034 C 
ATOM     25  C   UNL     1      -8.136  10.212  69.683  0.00  0.00    +0.003 C 
ATOM     26  O   UNL     1     -11.164   7.828  69.163  0.00  0.00    -0.334 OA
ATOM     27  C   UNL     1     -10.948   6.362  67.268  0.00  0.00    +0.061 C 
ENDROOT
BRANCH   4  28
ATOM     28  C   UNL     1      -7.915   7.931  70.523  0.00  0.00    +0.193 C 
ATOM     29  O   UNL     1      -8.281   7.775  71.690  0.00  0.00    -0.292 OA
BRANCH  28  30
ATOM     30  C   UNL     1      -6.620   7.198  70.282  0.00  0.00    +0.161 C 
ATOM     31 CL   UNL     1      -5.857   7.709  68.767  0.00  0.00    -0.105 Cl
ENDBRANCH  28  30
ENDBRANCH   4  28
TORSDOF 2
ENDMDL
MODEL 9
REMARK VINA RESULT:      -6.5      4.077      7.896
REMARK  Name = 
REMARK  2 active torsions:
REMARK  status: ('A' for Active; 'I' for Inactive)
REMARK    1  A    between atoms: C_26  and  C_27
REMARK    2  A    between atoms: C_27  and  C_29
REMARK                            x       y       z     vdW  Elec       q    Type
REMARK                         _______ _______ _______ _____ _____    ______ ____
ROOT
ATOM      1  C   UNL     1     -11.358  15.936  64.376  0.00  0.00    +0.061 C 
ATOM      2  C   UNL     1     -11.473  14.663  64.976  0.00  0.00    +0.188 C 
ATOM      3  O   UNL     1     -11.994  14.743  66.261  0.00  0.00    -0.330 OA
ATOM      4  C   UNL     1     -10.999  14.489  67.150  0.00  0.00    +0.172 C 
ATOM      5  C   UNL     1      -9.732  14.990  66.227  0.00  0.00    +0.149 C 
ATOM      6  C   UNL     1      -8.684  13.883  66.875  0.00  0.00    +0.033 C 
ATOM      7  C   UNL     1      -9.602  12.625  66.467  0.00  0.00    +0.008 C 
ATOM      8  C   UNL     1      -8.969  11.526  67.589  0.00  0.00    +0.033 C 
ATOM      9  C   UNL     1      -9.968  10.380  67.088  0.00  0.00    +0.164 C 
ATOM     10  C   UNL     1     -11.401  10.653  67.839  0.00  0.00    +0.182 C 
ATOM     11  C   UNL     1     -11.687  12.171  67.288  0.00  0.00    +0.038 C 
ATOM     12  O   UNL     1     -10.771  11.099  69.145  0.00  0.00    -0.220 OA
ATOM     13  F   UNL     1     -10.156  10.404  65.780  0.00  0.00    -0.237 F 
ATOM     14  C   UNL     1      -9.482   9.093  67.663  0.00  0.00    +0.046 C 
ATOM     15  C   UNL     1      -8.264   8.739  66.867  0.00  0.00    -0.039 C 
ATOM     16  C   UNL     1      -8.385   7.914  65.852  0.00  0.00    +0.029 C 
ATOM     17  C   UNL     1      -9.063   6.643  66.145  0.00  0.00    +0.173 C 
ATOM     18  C   UNL     1      -9.736   6.615  67.484  0.00  0.00    +0.070 C 
ATOM     19  O   UNL     1      -9.062   5.670  65.367  0.00  0.00    -0.291 OA
ATOM     20  C   UNL     1      -7.223   9.800  66.971  0.00  0.00    +0.022 C 
ATOM     21  C   UNL     1      -8.971   9.250  69.080  0.00  0.00    +0.007 C 
ATOM     22  C   UNL     1     -10.436   7.966  67.585  0.00  0.00    +0.014 C 
ATOM     23  C   UNL     1      -7.803  11.099  66.548  0.00  0.00    +0.007 C 
ATOM     24  C   UNL     1     -10.701  13.128  67.540  0.00  0.00    +0.034 C 
ATOM     25  C   UNL     1     -10.024  13.327  68.858  0.00  0.00    +0.003 C 
ATOM     26  O   UNL     1     -10.197  14.139  65.059  0.00  0.00    -0.334 OA
ATOM     27  C   UNL     1     -12.381  13.855  64.091  0.00  0.00    +0.061 C 
ENDROOT
BRANCH   4  28
ATOM     28  C   UNL     1     -10.856  15.533  68.227  0.00  0.00    +0.193 C 
ATOM     29  O   UNL     1     -10.173  16.542  68.037  0.00  0.00    -0.292 OA
BRANCH  28  30
ATOM     30  C   UNL     1     -12.008  15.852  69.145  0.00  0.00    +0.161 C 
ATOM     31 CL   UNL     1     -11.488  15.938  70.836  0.00  0.00    -0.105 Cl
ENDBRANCH  28  30
ENDBRANCH   4  28
TORSDOF 2
ENDMDL
