MODEL 1
REMARK VINA RESULT:      -6.7      0.000      0.000
REMARK  Name = 
REMARK  4 active torsions:
REMARK  status: ('A' for Active; 'I' for Inactive)
REMARK    1  A    between atoms: CA_6  and  N_7
REMARK    2  A    between atoms: C_8  and  CA_10
REMARK    3  A    between atoms: CA_10  and  C_12
REMARK    4  A    between atoms: CA_22  and  C_23
REMARK                            x       y       z     vdW  Elec       q    Type
REMARK                         _______ _______ _______ _____ _____    ______ ____
ROOT
ATOM      1  C   UNL     1      -6.746  17.541  69.105  0.00  0.00    +0.013 C 
ATOM      2  C   UNL     1      -7.117  18.773  68.627  0.00  0.00    +0.068 C 
ATOM      3  CA  UNL     1      -6.803  18.694  66.982  0.00  0.00    +0.189 C 
ATOM      4  N   UNL     1      -8.061  17.761  66.701  0.00  0.00    -0.259 N 
ATOM      5  C   UNL     1      -9.214  18.732  66.857  0.00  0.00    +0.153 C 
ATOM      6  CA  UNL     1     -10.149  17.318  66.835  0.00  0.00    +0.200 C 
ATOM      7  C   UNL     1      -8.721  16.562  67.007  0.00  0.00    +0.249 C 
ATOM      8  O   UNL     1      -8.608  15.404  66.564  0.00  0.00    -0.273 OA
ATOM      9  S   UNL     1      -8.824  19.006  68.708  0.00  0.00    -0.118 S 
ATOM     10  C   UNL     1      -6.177  19.779  69.162  0.00  0.00    +0.013 C 
ENDROOT
BRANCH   3  11
ATOM     11  C   UNL     1      -7.556  20.107  66.606  0.00  0.00    +0.383 C 
ATOM     12  OXT UNL     1      -7.965  19.993  65.296  0.00  0.00    -0.244 OA
ATOM     13  O   UNL     1      -7.191  21.107  67.198  0.00  0.00    -0.244 OA
ENDBRANCH   3  11
BRANCH   6  14
ATOM     14  N   UNL     1     -10.489  17.245  68.403  0.00  0.00    -0.194 NA
ATOM     15  C   UNL     1     -11.070  15.997  68.678  0.00  0.00    +0.264 C 
ATOM     16  O   UNL     1     -11.954  15.455  68.026  0.00  0.00    -0.271 OA
BRANCH  15  17
ATOM     17  CA  UNL     1     -10.230  15.028  69.706  0.00  0.00    +0.191 C 
ATOM     18  N   UNL     1     -10.577  13.703  68.852  0.00  0.00    -0.118 NA
BRANCH  17  19
ATOM     19  C   UNL     1     -11.510  14.883  70.711  0.00  0.00    +0.004 A 
ATOM     20  C   UNL     1     -12.215  13.769  70.763  0.00  0.00    +0.001 A 
ATOM     21  C   UNL     1     -13.500  13.888  71.295  0.00  0.00    +0.042 A 
ATOM     22  C   UNL     1     -13.972  15.122  71.732  0.00  0.00    +0.196 A 
ATOM     23  O   UNL     1     -15.266  15.551  71.451  0.00  0.00    -0.287 OA
ATOM     24  C   UNL     1     -12.963  15.968  72.190  0.00  0.00    +0.042 A 
ATOM     25  C   UNL     1     -11.704  15.906  71.588  0.00  0.00    +0.001 A 
ENDBRANCH  17  19
ENDBRANCH  15  17
ENDBRANCH   6  14
TORSDOF 4
ENDMDL
MODEL 2
REMARK VINA RESULT:      -6.6      0.957      1.339
REMARK  Name = 
REMARK  4 active torsions:
REMARK  status: ('A' for Active; 'I' for Inactive)
REMARK    1  A    between atoms: CA_6  and  N_7
REMARK    2  A    between atoms: C_8  and  CA_10
REMARK    3  A    between atoms: CA_10  and  C_12
REMARK    4  A    between atoms: CA_22  and  C_23
REMARK                            x       y       z     vdW  Elec       q    Type
REMARK                         _______ _______ _______ _____ _____    ______ ____
ROOT
ATOM      1  C   UNL     1      -6.867  17.388  69.183  0.00  0.00    +0.013 C 
ATOM      2  C   UNL     1      -7.279  18.604  68.697  0.00  0.00    +0.068 C 
ATOM      3  CA  UNL     1      -6.835  18.580  67.081  0.00  0.00    +0.189 C 
ATOM      4  N   UNL     1      -8.006  17.577  66.688  0.00  0.00    -0.259 N 
ATOM      5  C   UNL     1      -9.227  18.470  66.768  0.00  0.00    +0.153 C 
ATOM      6  CA  UNL     1     -10.065  17.001  66.651  0.00  0.00    +0.200 C 
ATOM      7  C   UNL     1      -8.609  16.332  66.921  0.00  0.00    +0.249 C 
ATOM      8  O   UNL     1      -8.388  15.193  66.469  0.00  0.00    -0.273 OA
ATOM      9  S   UNL     1      -8.998  18.728  68.649  0.00  0.00    -0.118 S 
ATOM     10  C   UNL     1      -6.449  19.656  69.320  0.00  0.00    +0.013 C 
ENDROOT
BRANCH   3  11
ATOM     11  C   UNL     1      -7.646  19.951  66.671  0.00  0.00    +0.383 C 
ATOM     12  OXT UNL     1      -7.975  19.825  65.339  0.00  0.00    -0.244 OA
ATOM     13  O   UNL     1      -7.373  20.966  67.287  0.00  0.00    -0.244 OA
ENDBRANCH   3  11
BRANCH   6  14
ATOM     14  N   UNL     1     -10.519  16.873  68.186  0.00  0.00    -0.194 NA
ATOM     15  C   UNL     1     -11.161  15.637  68.362  0.00  0.00    +0.264 C 
ATOM     16  O   UNL     1     -12.014  15.158  67.626  0.00  0.00    -0.271 OA
BRANCH  15  17
ATOM     17  CA  UNL     1     -10.431  14.594  69.401  0.00  0.00    +0.191 C 
ATOM     18  N   UNL     1     -11.231  13.327  68.802  0.00  0.00    -0.118 NA
BRANCH  17  19
ATOM     19  C   UNL     1     -11.523  14.904  70.575  0.00  0.00    +0.004 A 
ATOM     20  C   UNL     1     -11.647  16.112  71.093  0.00  0.00    +0.001 A 
ATOM     21  C   UNL     1     -12.263  16.178  72.343  0.00  0.00    +0.042 A 
ATOM     22  C   UNL     1     -12.705  15.018  72.974  0.00  0.00    +0.196 A 
ATOM     23  O   UNL     1     -12.503  14.804  74.335  0.00  0.00    -0.287 OA
ATOM     24  C   UNL     1     -13.075  14.013  72.083  0.00  0.00    +0.042 A 
ATOM     25  C   UNL     1     -12.390  13.898  70.871  0.00  0.00    +0.001 A 
ENDBRANCH  17  19
ENDBRANCH  15  17
ENDBRANCH   6  14
TORSDOF 4
ENDMDL
MODEL 3
REMARK VINA RESULT:      -6.5      3.643      5.527
REMARK  Name = 
REMARK  4 active torsions:
REMARK  status: ('A' for Active; 'I' for Inactive)
REMARK    1  A    between atoms: CA_6  and  N_7
REMARK    2  A    between atoms: C_8  and  CA_10
REMARK    3  A    between atoms: CA_10  and  C_12
REMARK    4  A    between atoms: CA_22  and  C_23
REMARK                            x       y       z     vdW  Elec       q    Type
REMARK                         _______ _______ _______ _____ _____    ______ ____
ROOT
ATOM      1  C   UNL     1      -3.148  19.600  68.354  0.00  0.00    +0.013 C 
ATOM      2  C   UNL     1      -3.276  19.580  69.720  0.00  0.00    +0.068 C 
ATOM      3  CA  UNL     1      -3.700  21.150  70.124  0.00  0.00    +0.189 C 
ATOM      4  N   UNL     1      -5.185  20.979  69.580  0.00  0.00    -0.259 N 
ATOM      5  C   UNL     1      -5.809  20.096  70.642  0.00  0.00    +0.153 C 
ATOM      6  CA  UNL     1      -7.062  19.956  69.509  0.00  0.00    +0.200 C 
ATOM      7  C   UNL     1      -6.002  20.647  68.490  0.00  0.00    +0.249 C 
ATOM      8  O   UNL     1      -6.446  21.317  67.539  0.00  0.00    -0.273 OA
ATOM      9  S   UNL     1      -4.636  18.645  70.224  0.00  0.00    -0.118 S 
ATOM     10  C   UNL     1      -1.938  19.367  70.307  0.00  0.00    +0.013 C 
ENDROOT
BRANCH   3  11
ATOM     11  C   UNL     1      -4.058  20.822  71.695  0.00  0.00    +0.383 C 
ATOM     12  OXT UNL     1      -4.665  21.951  72.200  0.00  0.00    -0.244 OA
ATOM     13  O   UNL     1      -3.340  20.029  72.276  0.00  0.00    -0.244 OA
ENDBRANCH   3  11
BRANCH   6  14
ATOM     14  N   UNL     1      -6.740  18.469  68.994  0.00  0.00    -0.194 NA
ATOM     15  C   UNL     1      -7.785  18.049  68.157  0.00  0.00    +0.264 C 
ATOM     16  O   UNL     1      -8.982  18.169  68.385  0.00  0.00    -0.271 OA
BRANCH  15  17
ATOM     17  CA  UNL     1      -7.371  17.739  66.597  0.00  0.00    +0.191 C 
ATOM     18  N   UNL     1      -8.702  18.454  66.029  0.00  0.00    -0.118 NA
BRANCH  17  19
ATOM     19  C   UNL     1      -8.031  16.246  66.655  0.00  0.00    +0.004 A 
ATOM     20  C   UNL     1      -9.134  15.960  65.989  0.00  0.00    +0.001 A 
ATOM     21  C   UNL     1      -9.841  14.842  66.434  0.00  0.00    +0.042 A 
ATOM     22  C   UNL     1      -9.378  14.101  67.518  0.00  0.00    +0.196 A 
ATOM     23  O   UNL     1     -10.240  13.642  68.511  0.00  0.00    -0.287 OA
ATOM     24  C   UNL     1      -7.992  14.131  67.656  0.00  0.00    +0.042 A 
ATOM     25  C   UNL     1      -7.303  15.291  67.293  0.00  0.00    +0.001 A 
ENDBRANCH  17  19
ENDBRANCH  15  17
ENDBRANCH   6  14
TORSDOF 4
ENDMDL
MODEL 4
REMARK VINA RESULT:      -6.4      2.577      6.923
REMARK  Name = 
REMARK  4 active torsions:
REMARK  status: ('A' for Active; 'I' for Inactive)
REMARK    1  A    between atoms: CA_6  and  N_7
REMARK    2  A    between atoms: C_8  and  CA_10
REMARK    3  A    between atoms: CA_10  and  C_12
REMARK    4  A    between atoms: CA_22  and  C_23
REMARK                            x       y       z     vdW  Elec       q    Type
REMARK                         _______ _______ _______ _____ _____    ______ ____
ROOT
ATOM      1  C   UNL     1     -11.802  15.937  68.789  0.00  0.00    +0.013 C 
ATOM      2  C   UNL     1     -11.356  14.643  68.686  0.00  0.00    +0.068 C 
ATOM      3  CA  UNL     1     -12.038  14.078  67.264  0.00  0.00    +0.189 C 
ATOM      4  N   UNL     1     -11.041  14.918  66.352  0.00  0.00    -0.259 N 
ATOM      5  C   UNL     1      -9.742  14.155  66.520  0.00  0.00    +0.153 C 
ATOM      6  CA  UNL     1      -9.074  15.515  65.762  0.00  0.00    +0.200 C 
ATOM      7  C   UNL     1     -10.529  16.185  66.036  0.00  0.00    +0.249 C 
ATOM      8  O   UNL     1     -10.922  17.081  65.266  0.00  0.00    -0.273 OA
ATOM      9  S   UNL     1      -9.659  14.571  68.385  0.00  0.00    -0.118 S 
ATOM     10  C   UNL     1     -11.980  13.852  69.766  0.00  0.00    +0.013 C 
ENDROOT
BRANCH   3  11
ATOM     11  C   UNL     1     -11.174  12.680  67.214  0.00  0.00    +0.383 C 
ATOM     12  OXT UNL     1     -11.153  12.282  65.896  0.00  0.00    -0.244 OA
ATOM     13  O   UNL     1     -11.185  11.982  68.212  0.00  0.00    -0.244 OA
ENDBRANCH   3  11
BRANCH   6  14
ATOM     14  N   UNL     1      -8.408  16.194  67.056  0.00  0.00    -0.194 NA
ATOM     15  C   UNL     1      -7.969  17.482  66.710  0.00  0.00    +0.264 C 
ATOM     16  O   UNL     1      -7.341  17.782  65.703  0.00  0.00    -0.271 OA
BRANCH  15  17
ATOM     17  CA  UNL     1      -8.692  18.722  67.511  0.00  0.00    +0.191 C 
ATOM     18  N   UNL     1      -8.599  19.697  66.229  0.00  0.00    -0.118 NA
BRANCH  17  19
ATOM     19  C   UNL     1      -7.273  19.210  68.158  0.00  0.00    +0.004 A 
ATOM     20  C   UNL     1      -6.605  18.443  68.999  0.00  0.00    +0.001 A 
ATOM     21  C   UNL     1      -5.676  19.095  69.810  0.00  0.00    +0.042 A 
ATOM     22  C   UNL     1      -5.494  20.472  69.709  0.00  0.00    +0.196 A 
ATOM     23  O   UNL     1      -5.361  21.276  70.838  0.00  0.00    -0.287 OA
ATOM     24  C   UNL     1      -5.756  20.971  68.435  0.00  0.00    +0.042 A 
ATOM     25  C   UNL     1      -6.754  20.367  67.666  0.00  0.00    +0.001 A 
ENDBRANCH  17  19
ENDBRANCH  15  17
ENDBRANCH   6  14
TORSDOF 4
ENDMDL
MODEL 5
REMARK VINA RESULT:      -6.4      3.238      4.285
REMARK  Name = 
REMARK  4 active torsions:
REMARK  status: ('A' for Active; 'I' for Inactive)
REMARK    1  A    between atoms: CA_6  and  N_7
REMARK    2  A    between atoms: C_8  and  CA_10
REMARK    3  A    between atoms: CA_10  and  C_12
REMARK    4  A    between atoms: CA_22  and  C_23
REMARK                            x       y       z     vdW  Elec       q    Type
REMARK                         _______ _______ _______ _____ _____    ______ ____
ROOT
ATOM      1  C   UNL     1     -10.466  17.352  68.482  0.00  0.00    +0.013 C 
ATOM      2  C   UNL     1      -9.836  17.886  67.386  0.00  0.00    +0.068 C 
ATOM      3  CA  UNL     1      -8.357  18.415  67.971  0.00  0.00    +0.189 C 
ATOM      4  N   UNL     1      -7.778  16.937  68.084  0.00  0.00    -0.259 N 
ATOM      5  C   UNL     1      -7.544  16.578  66.630  0.00  0.00    +0.153 C 
ATOM      6  CA  UNL     1      -7.332  15.017  67.255  0.00  0.00    +0.200 C 
ATOM      7  C   UNL     1      -7.946  15.652  68.619  0.00  0.00    +0.249 C 
ATOM      8  O   UNL     1      -7.617  15.145  69.707  0.00  0.00    -0.273 OA
ATOM      9  S   UNL     1      -9.412  16.674  66.235  0.00  0.00    -0.118 S 
ATOM     10  C   UNL     1     -10.563  19.107  66.984  0.00  0.00    +0.013 C 
ENDROOT
BRANCH   3  11
ATOM     11  C   UNL     1      -7.706  18.737  66.495  0.00  0.00    +0.383 C 
ATOM     12  OXT UNL     1      -6.339  18.674  66.651  0.00  0.00    -0.244 OA
ATOM     13  O   UNL     1      -8.347  19.453  65.747  0.00  0.00    -0.244 OA
ENDBRANCH   3  11
BRANCH   6  14
ATOM     14  N   UNL     1      -8.738  14.393  66.794  0.00  0.00    -0.194 NA
ATOM     15  C   UNL     1      -8.758  13.032  67.137  0.00  0.00    +0.264 C 
ATOM     16  O   UNL     1      -7.854  12.228  66.945  0.00  0.00    -0.271 OA
BRANCH  15  17
ATOM     17  CA  UNL     1      -9.909  12.585  68.222  0.00  0.00    +0.191 C 
ATOM     18  N   UNL     1      -9.681  11.016  67.923  0.00  0.00    -0.118 NA
BRANCH  17  19
ATOM     19  C   UNL     1     -11.102  12.763  67.121  0.00  0.00    +0.004 A 
ATOM     20  C   UNL     1     -11.313  11.854  66.188  0.00  0.00    +0.001 A 
ATOM     21  C   UNL     1     -12.028  12.284  65.070  0.00  0.00    +0.042 A 
ATOM     22  C   UNL     1     -12.473  13.600  64.980  0.00  0.00    +0.196 A 
ATOM     23  O   UNL     1     -12.372  14.328  63.798  0.00  0.00    -0.287 OA
ATOM     24  C   UNL     1     -12.733  14.180  66.221  0.00  0.00    +0.042 A 
ATOM     25  C   UNL     1     -11.950  13.810  67.317  0.00  0.00    +0.001 A 
ENDBRANCH  17  19
ENDBRANCH  15  17
ENDBRANCH   6  14
TORSDOF 4
ENDMDL
MODEL 6
REMARK VINA RESULT:      -6.4      3.599      4.569
REMARK  Name = 
REMARK  4 active torsions:
REMARK  status: ('A' for Active; 'I' for Inactive)
REMARK    1  A    between atoms: CA_6  and  N_7
REMARK    2  A    between atoms: C_8  and  CA_10
REMARK    3  A    between atoms: CA_10  and  C_12
REMARK    4  A    between atoms: CA_22  and  C_23
REMARK                            x       y       z     vdW  Elec       q    Type
REMARK                         _______ _______ _______ _____ _____    ______ ____
ROOT
ATOM      1  C   UNL     1      -8.157  14.894  68.239  0.00  0.00    +0.013 C 
ATOM      2  C   UNL     1      -9.102  15.807  67.844  0.00  0.00    +0.068 C 
ATOM      3  CA  UNL     1      -9.019  15.797  66.170  0.00  0.00    +0.189 C 
ATOM      4  N   UNL     1      -9.752  14.389  66.058  0.00  0.00    -0.259 N 
ATOM      5  C   UNL     1     -11.183  14.751  66.398  0.00  0.00    +0.153 C 
ATOM      6  CA  UNL     1     -11.380  13.070  66.486  0.00  0.00    +0.200 C 
ATOM      7  C   UNL     1      -9.756  13.038  66.433  0.00  0.00    +0.249 C 
ATOM      8  O   UNL     1      -9.199  12.032  65.955  0.00  0.00    -0.273 OA
ATOM      9  S   UNL     1     -10.703  15.259  68.178  0.00  0.00    -0.118 S 
ATOM     10  C   UNL     1      -8.647  17.150  68.256  0.00  0.00    +0.013 C 
ENDROOT
BRANCH   3  11
ATOM     11  C   UNL     1     -10.368  16.707  65.936  0.00  0.00    +0.383 C 
ATOM     12  OXT UNL     1     -10.825  16.408  64.672  0.00  0.00    -0.244 OA
ATOM     13  O   UNL     1     -10.434  17.769  66.529  0.00  0.00    -0.244 OA
ENDBRANCH   3  11
BRANCH   6  14
ATOM     14  N   UNL     1     -11.429  12.928  68.085  0.00  0.00    -0.194 NA
ATOM     15  C   UNL     1     -11.451  11.564  68.413  0.00  0.00    +0.264 C 
ATOM     16  O   UNL     1     -12.154  10.709  67.890  0.00  0.00    -0.271 OA
BRANCH  15  17
ATOM     17  CA  UNL     1     -10.166  11.016  69.278  0.00  0.00    +0.191 C 
ATOM     18  N   UNL     1     -10.059   9.668  68.398  0.00  0.00    -0.118 NA
BRANCH  17  19
ATOM     19  C   UNL     1     -11.135  10.360  70.418  0.00  0.00    +0.004 A 
ATOM     20  C   UNL     1     -10.899   9.156  70.906  0.00  0.00    +0.001 A 
ATOM     21  C   UNL     1     -11.983   8.525  71.516  0.00  0.00    +0.042 A 
ATOM     22  C   UNL     1     -13.221   9.157  71.585  0.00  0.00    +0.196 A 
ATOM     23  O   UNL     1     -14.407   8.473  71.333  0.00  0.00    -0.287 OA
ATOM     24  C   UNL     1     -13.129  10.547  71.628  0.00  0.00    +0.042 A 
ATOM     25  C   UNL     1     -12.092  11.177  70.937  0.00  0.00    +0.001 A 
ENDBRANCH  17  19
ENDBRANCH  15  17
ENDBRANCH   6  14
TORSDOF 4
ENDMDL
MODEL 7
REMARK VINA RESULT:      -6.2      5.252      6.558
REMARK  Name = 
REMARK  4 active torsions:
REMARK  status: ('A' for Active; 'I' for Inactive)
REMARK    1  A    between atoms: CA_6  and  N_7
REMARK    2  A    between atoms: C_8  and  CA_10
REMARK    3  A    between atoms: CA_10  and  C_12
REMARK    4  A    between atoms: CA_22  and  C_23
REMARK                            x       y       z     vdW  Elec       q    Type
REMARK                         _______ _______ _______ _____ _____    ______ ____
ROOT
ATOM      1  C   UNL     1      -9.807  14.285  67.375  0.00  0.00    +0.013 C 
ATOM      2  C   UNL     1     -10.873  14.181  66.516  0.00  0.00    +0.068 C 
ATOM      3  CA  UNL     1     -10.182  13.798  65.038  0.00  0.00    +0.189 C 
ATOM      4  N   UNL     1      -9.872  12.300  65.475  0.00  0.00    -0.259 N 
ATOM      5  C   UNL     1     -11.253  11.676  65.460  0.00  0.00    +0.153 C 
ATOM      6  CA  UNL     1     -10.470  10.401  66.256  0.00  0.00    +0.200 C 
ATOM      7  C   UNL     1      -9.244  11.457  66.403  0.00  0.00    +0.249 C 
ATOM      8  O   UNL     1      -8.085  11.010  66.482  0.00  0.00    -0.273 OA
ATOM      9  S   UNL     1     -11.856  12.810  66.876  0.00  0.00    -0.118 S 
ATOM     10  C   UNL     1     -11.460  15.524  66.343  0.00  0.00    +0.013 C 
ENDROOT
BRANCH   3  11
ATOM     11  C   UNL     1     -11.601  13.460  64.278  0.00  0.00    +0.383 C 
ATOM     12  OXT UNL     1     -11.315  12.511  63.323  0.00  0.00    -0.244 OA
ATOM     13  O   UNL     1     -12.433  14.349  64.233  0.00  0.00    -0.244 OA
ENDBRANCH   3  11
BRANCH   6  14
ATOM     14  N   UNL     1     -11.021  10.681  67.738  0.00  0.00    -0.194 NA
ATOM     15  C   UNL     1     -10.663   9.603  68.561  0.00  0.00    +0.264 C 
ATOM     16  O   UNL     1     -10.779   8.416  68.283  0.00  0.00    -0.271 OA
BRANCH  15  17
ATOM     17  CA  UNL     1      -9.657   9.961  69.810  0.00  0.00    +0.191 C 
ATOM     18  N   UNL     1      -8.986   8.494  69.783  0.00  0.00    -0.118 NA
BRANCH  17  19
ATOM     19  C   UNL     1     -10.794   9.572  70.917  0.00  0.00    +0.004 A 
ATOM     20  C   UNL     1     -10.601   8.593  71.781  0.00  0.00    +0.001 A 
ATOM     21  C   UNL     1     -11.751   8.062  72.365  0.00  0.00    +0.042 A 
ATOM     22  C   UNL     1     -13.008   8.559  72.030  0.00  0.00    +0.196 A 
ATOM     23  O   UNL     1     -14.092   7.716  71.803  0.00  0.00    -0.287 OA
ATOM     24  C   UNL     1     -12.988   9.903  71.662  0.00  0.00    +0.042 A 
ATOM     25  C   UNL     1     -11.868  10.405  70.994  0.00  0.00    +0.001 A 
ENDBRANCH  17  19
ENDBRANCH  15  17
ENDBRANCH   6  14
TORSDOF 4
ENDMDL
MODEL 8
REMARK VINA RESULT:      -6.2      3.125      7.193
REMARK  Name = 
REMARK  4 active torsions:
REMARK  status: ('A' for Active; 'I' for Inactive)
REMARK    1  A    between atoms: CA_6  and  N_7
REMARK    2  A    between atoms: C_8  and  CA_10
REMARK    3  A    between atoms: CA_10  and  C_12
REMARK    4  A    between atoms: CA_22  and  C_23
REMARK                            x       y       z     vdW  Elec       q    Type
REMARK                         _______ _______ _______ _____ _____    ______ ____
ROOT
ATOM      1  C   UNL     1      -9.412  11.994  68.076  0.00  0.00    +0.013 C 
ATOM      2  C   UNL     1      -9.739  12.113  66.749  0.00  0.00    +0.068 C 
ATOM      3  CA  UNL     1     -11.373  11.746  66.687  0.00  0.00    +0.189 C 
ATOM      4  N   UNL     1     -11.797  13.138  67.329  0.00  0.00    -0.259 N 
ATOM      5  C   UNL     1     -11.546  14.102  66.187  0.00  0.00    +0.153 C 
ATOM      6  CA  UNL     1     -11.766  15.275  67.390  0.00  0.00    +0.200 C 
ATOM      7  C   UNL     1     -11.660  14.017  68.413  0.00  0.00    +0.249 C 
ATOM      8  O   UNL     1     -12.243  14.096  69.510  0.00  0.00    -0.273 OA
ATOM      9  S   UNL     1      -9.666  13.752  66.214  0.00  0.00    -0.118 S 
ATOM     10  C   UNL     1      -9.061  11.032  66.006  0.00  0.00    +0.013 C 
ENDROOT
BRANCH   3  11
ATOM     11  C   UNL     1     -11.584  12.212  65.124  0.00  0.00    +0.383 C 
ATOM     12  OXT UNL     1     -12.916  12.537  64.991  0.00  0.00    -0.244 OA
ATOM     13  O   UNL     1     -10.841  11.724  64.291  0.00  0.00    -0.244 OA
ENDBRANCH   3  11
BRANCH   6  14
ATOM     14  N   UNL     1     -10.228  15.694  67.587  0.00  0.00    -0.194 NA
ATOM     15  C   UNL     1     -10.094  17.060  67.295  0.00  0.00    +0.264 C 
ATOM     16  O   UNL     1     -10.571  17.639  66.327  0.00  0.00    -0.271 OA
BRANCH  15  17
ATOM     17  CA  UNL     1      -9.604  18.012  68.542  0.00  0.00    +0.191 C 
ATOM     18  N   UNL     1     -10.508  19.252  68.042  0.00  0.00    -0.118 NA
BRANCH  17  19
ATOM     19  C   UNL     1      -8.265  18.484  67.734  0.00  0.00    +0.004 A 
ATOM     20  C   UNL     1      -8.088  19.743  67.380  0.00  0.00    +0.001 A 
ATOM     21  C   UNL     1      -7.172  19.962  66.350  0.00  0.00    +0.042 A 
ATOM     22  C   UNL     1      -6.508  18.892  65.757  0.00  0.00    +0.196 A 
ATOM     23  O   UNL     1      -6.333  18.814  64.378  0.00  0.00    -0.287 OA
ATOM     24  C   UNL     1      -6.320  17.813  66.619  0.00  0.00    +0.042 A 
ATOM     25  C   UNL     1      -7.289  17.547  67.589  0.00  0.00    +0.001 A 
ENDBRANCH  17  19
ENDBRANCH  15  17
ENDBRANCH   6  14
TORSDOF 4
ENDMDL
MODEL 9
REMARK VINA RESULT:      -6.1      3.544      5.235
REMARK  Name = 
REMARK  4 active torsions:
REMARK  status: ('A' for Active; 'I' for Inactive)
REMARK    1  A    between atoms: CA_6  and  N_7
REMARK    2  A    between atoms: C_8  and  CA_10
REMARK    3  A    between atoms: CA_10  and  C_12
REMARK    4  A    between atoms: CA_22  and  C_23
REMARK                            x       y       z     vdW  Elec       q    Type
REMARK                         _______ _______ _______ _____ _____    ______ ____
ROOT
ATOM      1  C   UNL     1     -10.520  18.636  66.811  0.00  0.00    +0.013 C 
ATOM      2  C   UNL     1      -9.158  18.463  66.811  0.00  0.00    +0.068 C 
ATOM      3  CA  UNL     1      -8.696  18.779  68.391  0.00  0.00    +0.189 C 
ATOM      4  N   UNL     1      -9.275  17.396  68.926  0.00  0.00    -0.259 N 
ATOM      5  C   UNL     1      -8.264  16.403  68.390  0.00  0.00    +0.153 C 
ATOM      6  CA  UNL     1      -9.425  15.264  68.864  0.00  0.00    +0.200 C 
ATOM      7  C   UNL     1     -10.394  16.558  69.031  0.00  0.00    +0.249 C 
ATOM      8  O   UNL     1     -11.324  16.498  69.857  0.00  0.00    -0.273 OA
ATOM      9  S   UNL     1      -8.721  16.811  66.578  0.00  0.00    -0.118 S 
ATOM     10  C   UNL     1      -8.555  19.539  65.999  0.00  0.00    +0.013 C 
ENDROOT
BRANCH   3  11
ATOM     11  C   UNL     1      -7.148  18.254  68.215  0.00  0.00    +0.383 C 
ATOM     12  OXT UNL     1      -6.707  17.912  69.473  0.00  0.00    -0.244 OA
ATOM     13  O   UNL     1      -6.504  18.719  67.291  0.00  0.00    -0.244 OA
ENDBRANCH   3  11
BRANCH   6  14
ATOM     14  N   UNL     1      -9.997  14.900  67.408  0.00  0.00    -0.194 NA
ATOM     15  C   UNL     1     -10.359  13.544  67.396  0.00  0.00    +0.264 C 
ATOM     16  O   UNL     1      -9.689  12.616  67.833  0.00  0.00    -0.271 OA
BRANCH  15  17
ATOM     17  CA  UNL     1     -11.952  13.231  67.140  0.00  0.00    +0.191 C 
ATOM     18  N   UNL     1     -11.923  11.934  68.099  0.00  0.00    -0.118 NA
BRANCH  17  19
ATOM     19  C   UNL     1     -11.631  12.398  65.772  0.00  0.00    +0.004 A 
ATOM     20  C   UNL     1     -11.063  11.207  65.814  0.00  0.00    +0.001 A 
ATOM     21  C   UNL     1     -10.446  10.786  64.635  0.00  0.00    +0.042 A 
ATOM     22  C   UNL     1     -10.449  11.601  63.506  0.00  0.00    +0.196 A 
ATOM     23  O   UNL     1      -9.314  11.761  62.717  0.00  0.00    -0.287 OA
ATOM     24  C   UNL     1     -11.562  12.436  63.433  0.00  0.00    +0.042 A 
ATOM     25  C   UNL     1     -12.118  12.927  64.617  0.00  0.00    +0.001 A 
ENDBRANCH  17  19
ENDBRANCH  15  17
ENDBRANCH   6  14
TORSDOF 4
ENDMDL
