MODEL 1
REMARK VINA RESULT:      -4.8      0.000      0.000
REMARK  Name = 
REMARK  2 active torsions:
REMARK  status: ('A' for Active; 'I' for Inactive)
REMARK    1  A    between atoms: C_2  and  C_4
REMARK    2  A    between atoms: C_4  and  C_5
REMARK                            x       y       z     vdW  Elec       q    Type
REMARK                         _______ _______ _______ _____ _____    ______ ____
ROOT
ATOM      1  C   UNL     1     -12.265  15.213  70.635  0.00  0.00    -0.021 A 
ATOM      2  C   UNL     1     -11.720  15.988  69.607  0.00  0.00    -0.001 A 
ATOM      3  C   UNL     1     -11.558  15.493  68.343  0.00  0.00    +0.042 A 
ATOM      4  C   UNL     1     -11.700  14.155  68.102  0.00  0.00    +0.196 A 
ATOM      5  O   UNL     1     -12.091  13.701  66.837  0.00  0.00    -0.287 OA
ATOM      6  C   UNL     1     -11.986  13.322  69.159  0.00  0.00    +0.042 A 
ATOM      7  C   UNL     1     -12.110  13.843  70.413  0.00  0.00    -0.001 A 
ENDROOT
BRANCH   1   8
ATOM      8  C   UNL     1     -11.886  15.658  72.013  0.00  0.00    +0.045 C 
BRANCH   8  10
ATOM      9  C   UNL     1     -12.517  15.617  74.286  0.00  0.00    +0.021 C 
ATOM     10  C   UNL     1     -12.993  14.849  72.917  0.00  0.00    +0.096 C 
ATOM     11  N   UNL     1     -14.104  15.923  72.625  0.00  0.00    -0.133 NA
ENDBRANCH   8  10
ENDBRANCH   1   8
TORSDOF 2
ENDMDL
MODEL 2
REMARK VINA RESULT:      -4.7      1.317      1.669
REMARK  Name = 
REMARK  2 active torsions:
REMARK  status: ('A' for Active; 'I' for Inactive)
REMARK    1  A    between atoms: C_2  and  C_4
REMARK    2  A    between atoms: C_4  and  C_5
REMARK                            x       y       z     vdW  Elec       q    Type
REMARK                         _______ _______ _______ _____ _____    ______ ____
ROOT
ATOM      1  C   UNL     1     -12.432  14.066  70.645  0.00  0.00    -0.021 A 
ATOM      2  C   UNL     1     -11.662  14.238  69.491  0.00  0.00    -0.001 A 
ATOM      3  C   UNL     1     -11.431  13.209  68.622  0.00  0.00    +0.042 A 
ATOM      4  C   UNL     1     -11.742  11.925  68.974  0.00  0.00    +0.196 A 
ATOM      5  O   UNL     1     -12.048  10.976  67.991  0.00  0.00    -0.287 OA
ATOM      6  C   UNL     1     -12.271  11.694  70.223  0.00  0.00    +0.042 A 
ATOM      7  C   UNL     1     -12.459  12.739  71.078  0.00  0.00    -0.001 A 
ENDROOT
BRANCH   1   8
ATOM      8  C   UNL     1     -12.154  15.059  71.730  0.00  0.00    +0.045 C 
BRANCH   8  10
ATOM      9  C   UNL     1     -12.493  15.441  74.033  0.00  0.00    +0.021 C 
ATOM     10  C   UNL     1     -13.279  14.628  72.845  0.00  0.00    +0.096 C 
ATOM     11  N   UNL     1     -14.179  15.872  72.504  0.00  0.00    -0.133 NA
ENDBRANCH   8  10
ENDBRANCH   1   8
TORSDOF 2
ENDMDL
MODEL 3
REMARK VINA RESULT:      -4.6      4.081      4.980
REMARK  Name = 
REMARK  2 active torsions:
REMARK  status: ('A' for Active; 'I' for Inactive)
REMARK    1  A    between atoms: C_2  and  C_4
REMARK    2  A    between atoms: C_4  and  C_5
REMARK                            x       y       z     vdW  Elec       q    Type
REMARK                         _______ _______ _______ _____ _____    ______ ____
ROOT
ATOM      1  C   UNL     1     -11.829  14.279  67.220  0.00  0.00    -0.021 A 
ATOM      2  C   UNL     1     -10.768  15.180  67.097  0.00  0.00    -0.001 A 
ATOM      3  C   UNL     1     -10.572  15.908  65.957  0.00  0.00    +0.042 A 
ATOM      4  C   UNL     1     -11.262  15.603  64.816  0.00  0.00    +0.196 A 
ATOM      5  O   UNL     1     -11.519  16.592  63.860  0.00  0.00    -0.287 OA
ATOM      6  C   UNL     1     -12.136  14.541  64.839  0.00  0.00    +0.042 A 
ATOM      7  C   UNL     1     -12.284  13.815  65.984  0.00  0.00    -0.001 A 
ENDROOT
BRANCH   1   8
ATOM      8  C   UNL     1     -11.612  13.201  68.237  0.00  0.00    +0.045 C 
BRANCH   8  10
ATOM      9  C   UNL     1      -9.878  11.632  67.926  0.00  0.00    +0.021 C 
ATOM     10  C   UNL     1     -11.355  11.902  67.266  0.00  0.00    +0.096 C 
ATOM     11  N   UNL     1     -12.057  10.929  68.284  0.00  0.00    -0.133 NA
ENDBRANCH   8  10
ENDBRANCH   1   8
TORSDOF 2
ENDMDL
MODEL 4
REMARK VINA RESULT:      -4.5      2.447      3.292
REMARK  Name = 
REMARK  2 active torsions:
REMARK  status: ('A' for Active; 'I' for Inactive)
REMARK    1  A    between atoms: C_2  and  C_4
REMARK    2  A    between atoms: C_4  and  C_5
REMARK                            x       y       z     vdW  Elec       q    Type
REMARK                         _______ _______ _______ _____ _____    ______ ____
ROOT
ATOM      1  C   UNL     1     -12.385  13.331  70.982  0.00  0.00    -0.021 A 
ATOM      2  C   UNL     1     -13.095  12.353  71.684  0.00  0.00    -0.001 A 
ATOM      3  C   UNL     1     -12.907  11.020  71.448  0.00  0.00    +0.042 A 
ATOM      4  C   UNL     1     -12.197  10.607  70.354  0.00  0.00    +0.196 A 
ATOM      5  O   UNL     1     -11.526   9.378  70.370  0.00  0.00    -0.287 OA
ATOM      6  C   UNL     1     -11.699  11.558  69.494  0.00  0.00    +0.042 A 
ATOM      7  C   UNL     1     -11.932  12.878  69.742  0.00  0.00    -0.001 A 
ENDROOT
BRANCH   1   8
ATOM      8  C   UNL     1     -13.052  14.671  70.940  0.00  0.00    +0.045 C 
BRANCH   8  10
ATOM      9  C   UNL     1     -13.415  15.797  72.981  0.00  0.00    +0.021 C 
ATOM     10  C   UNL     1     -14.105  14.536  72.192  0.00  0.00    +0.096 C 
ATOM     11  N   UNL     1     -15.155  15.470  71.486  0.00  0.00    -0.133 NA
ENDBRANCH   8  10
ENDBRANCH   1   8
TORSDOF 2
ENDMDL
MODEL 5
REMARK VINA RESULT:      -4.5      3.095      4.871
REMARK  Name = 
REMARK  2 active torsions:
REMARK  status: ('A' for Active; 'I' for Inactive)
REMARK    1  A    between atoms: C_2  and  C_4
REMARK    2  A    between atoms: C_4  and  C_5
REMARK                            x       y       z     vdW  Elec       q    Type
REMARK                         _______ _______ _______ _____ _____    ______ ____
ROOT
ATOM      1  C   UNL     1     -12.584  14.433  70.515  0.00  0.00    -0.021 A 
ATOM      2  C   UNL     1     -13.054  13.717  71.620  0.00  0.00    -0.001 A 
ATOM      3  C   UNL     1     -13.160  14.292  72.856  0.00  0.00    +0.042 A 
ATOM      4  C   UNL     1     -12.587  15.509  73.102  0.00  0.00    +0.196 A 
ATOM      5  O   UNL     1     -13.112  16.351  74.090  0.00  0.00    -0.287 OA
ATOM      6  C   UNL     1     -11.888  16.126  72.090  0.00  0.00    +0.042 A 
ATOM      7  C   UNL     1     -11.774  15.510  70.879  0.00  0.00    -0.001 A 
ENDROOT
BRANCH   1   8
ATOM      8  C   UNL     1     -12.018  13.582  69.421  0.00  0.00    +0.045 C 
BRANCH   8  10
ATOM      9  C   UNL     1     -10.015  13.705  68.180  0.00  0.00    +0.021 C 
ATOM     10  C   UNL     1     -11.266  14.715  68.501  0.00  0.00    +0.096 C 
ATOM     11  N   UNL     1     -12.042  14.265  67.209  0.00  0.00    -0.133 NA
ENDBRANCH   8  10
ENDBRANCH   1   8
TORSDOF 2
ENDMDL
MODEL 6
REMARK VINA RESULT:      -4.4      4.783      5.581
REMARK  Name = 
REMARK  2 active torsions:
REMARK  status: ('A' for Active; 'I' for Inactive)
REMARK    1  A    between atoms: C_2  and  C_4
REMARK    2  A    between atoms: C_4  and  C_5
REMARK                            x       y       z     vdW  Elec       q    Type
REMARK                         _______ _______ _______ _____ _____    ______ ____
ROOT
ATOM      1  C   UNL     1     -10.082  14.858  65.866  0.00  0.00    -0.021 A 
ATOM      2  C   UNL     1     -10.671  13.990  66.789  0.00  0.00    -0.001 A 
ATOM      3  C   UNL     1     -11.786  13.262  66.480  0.00  0.00    +0.042 A 
ATOM      4  C   UNL     1     -12.498  13.539  65.346  0.00  0.00    +0.196 A 
ATOM      5  O   UNL     1     -13.249  12.536  64.721  0.00  0.00    -0.287 OA
ATOM      6  C   UNL     1     -12.080  14.573  64.541  0.00  0.00    +0.042 A 
ATOM      7  C   UNL     1     -10.982  15.300  64.895  0.00  0.00    -0.001 A 
ENDROOT
BRANCH   1   8
ATOM      8  C   UNL     1      -9.257  15.948  66.479  0.00  0.00    +0.045 C 
BRANCH   8  10
ATOM      9  C   UNL     1     -10.321  17.564  67.829  0.00  0.00    +0.021 C 
ATOM     10  C   UNL     1     -10.222  17.252  66.222  0.00  0.00    +0.096 C 
ATOM     11  N   UNL     1      -8.983  18.206  66.049  0.00  0.00    -0.133 NA
ENDBRANCH   8  10
ENDBRANCH   1   8
TORSDOF 2
ENDMDL
MODEL 7
REMARK VINA RESULT:      -4.4      4.288      6.447
REMARK  Name = 
REMARK  2 active torsions:
REMARK  status: ('A' for Active; 'I' for Inactive)
REMARK    1  A    between atoms: C_2  and  C_4
REMARK    2  A    between atoms: C_4  and  C_5
REMARK                            x       y       z     vdW  Elec       q    Type
REMARK                         _______ _______ _______ _____ _____    ______ ____
ROOT
ATOM      1  C   UNL     1     -11.929  13.823  66.213  0.00  0.00    -0.021 A 
ATOM      2  C   UNL     1     -11.993  13.738  67.607  0.00  0.00    -0.001 A 
ATOM      3  C   UNL     1     -11.636  14.788  68.407  0.00  0.00    +0.042 A 
ATOM      4  C   UNL     1     -10.981  15.866  67.880  0.00  0.00    +0.196 A 
ATOM      5  O   UNL     1     -11.097  17.126  68.479  0.00  0.00    -0.287 OA
ATOM      6  C   UNL     1     -10.673  15.859  66.539  0.00  0.00    +0.042 A 
ATOM      7  C   UNL     1     -11.015  14.782  65.775  0.00  0.00    -0.001 A 
ENDROOT
BRANCH   1   8
ATOM      8  C   UNL     1     -11.813  12.502  65.517  0.00  0.00    +0.045 C 
BRANCH   8  10
ATOM      9  C   UNL     1     -10.719  11.745  63.569  0.00  0.00    +0.021 C 
ATOM     10  C   UNL     1     -11.726  12.982  63.949  0.00  0.00    +0.096 C 
ATOM     11  N   UNL     1     -13.001  12.146  63.562  0.00  0.00    -0.133 NA
ENDBRANCH   8  10
ENDBRANCH   1   8
TORSDOF 2
ENDMDL
MODEL 8
REMARK VINA RESULT:      -4.3      2.783      4.182
REMARK  Name = 
REMARK  2 active torsions:
REMARK  status: ('A' for Active; 'I' for Inactive)
REMARK    1  A    between atoms: C_2  and  C_4
REMARK    2  A    between atoms: C_4  and  C_5
REMARK                            x       y       z     vdW  Elec       q    Type
REMARK                         _______ _______ _______ _____ _____    ______ ____
ROOT
ATOM      1  C   UNL     1     -10.667  14.481  67.014  0.00  0.00    -0.021 A 
ATOM      2  C   UNL     1     -11.994  14.042  66.995  0.00  0.00    -0.001 A 
ATOM      3  C   UNL     1     -12.691  13.913  65.827  0.00  0.00    +0.042 A 
ATOM      4  C   UNL     1     -12.195  14.437  64.665  0.00  0.00    +0.196 A 
ATOM      5  O   UNL     1     -12.547  13.879  63.431  0.00  0.00    -0.287 OA
ATOM      6  C   UNL     1     -10.995  15.109  64.706  0.00  0.00    +0.042 A 
ATOM      7  C   UNL     1     -10.340  15.248  65.894  0.00  0.00    -0.001 A 
ENDROOT
BRANCH   1   8
ATOM      8  C   UNL     1     -10.231  15.081  68.315  0.00  0.00    +0.045 C 
BRANCH   8  10
ATOM      9  C   UNL     1     -11.266  15.678  70.350  0.00  0.00    +0.021 C 
ATOM     10  C   UNL     1     -11.589  15.893  68.756  0.00  0.00    +0.096 C 
ATOM     11  N   UNL     1     -10.841  17.276  68.727  0.00  0.00    -0.133 NA
ENDBRANCH   8  10
ENDBRANCH   1   8
TORSDOF 2
ENDMDL
MODEL 9
REMARK VINA RESULT:      -4.1      7.007      8.490
REMARK  Name = 
REMARK  2 active torsions:
REMARK  status: ('A' for Active; 'I' for Inactive)
REMARK    1  A    between atoms: C_2  and  C_4
REMARK    2  A    between atoms: C_4  and  C_5
REMARK                            x       y       z     vdW  Elec       q    Type
REMARK                         _______ _______ _______ _____ _____    ______ ____
ROOT
ATOM      1  C   UNL     1      -7.646  19.964  67.408  0.00  0.00    -0.021 A 
ATOM      2  C   UNL     1      -7.462  19.232  68.584  0.00  0.00    -0.001 A 
ATOM      3  C   UNL     1      -6.563  19.620  69.538  0.00  0.00    +0.042 A 
ATOM      4  C   UNL     1      -5.646  20.598  69.265  0.00  0.00    +0.196 A 
ATOM      5  O   UNL     1      -5.124  21.384  70.299  0.00  0.00    -0.287 OA
ATOM      6  C   UNL     1      -5.638  21.163  68.011  0.00  0.00    +0.042 A 
ATOM      7  C   UNL     1      -6.528  20.731  67.072  0.00  0.00    -0.001 A 
ENDROOT
BRANCH   1   8
ATOM      8  C   UNL     1      -8.212  19.175  66.268  0.00  0.00    +0.045 C 
BRANCH   8  10
ATOM      9  C   UNL     1     -10.509  19.714  66.252  0.00  0.00    +0.021 C 
ATOM     10  C   UNL     1      -9.573  18.566  66.956  0.00  0.00    +0.096 C 
ATOM     11  N   UNL     1      -9.796  17.564  65.764  0.00  0.00    -0.133 NA
ENDBRANCH   8  10
ENDBRANCH   1   8
TORSDOF 2
ENDMDL
