MODEL 1
REMARK VINA RESULT:      -8.3      0.000      0.000
REMARK  Name = 
REMARK  3 active torsions:
REMARK  status: ('A' for Active; 'I' for Inactive)
REMARK    1  A    between atoms: C_10  and  C_11
REMARK    2  A    between atoms: N_13  and  C_14
REMARK    3  A    between atoms: C_14  and  C_15
REMARK                            x       y       z     vdW  Elec       q    Type
REMARK                         _______ _______ _______ _____ _____    ______ ____
ROOT
ATOM      1  C   UNL     1     -10.937  19.972  66.379  0.00  0.00    +0.022 C 
ATOM      2  C   UNL     1     -10.255  19.115  67.634  0.00  0.00    +0.080 C 
ATOM      3  N   UNL     1      -9.368  18.264  66.617  0.00  0.00    -0.253 N 
ATOM      4  C   UNL     1      -8.411  17.293  67.495  0.00  0.00    +0.218 C 
ATOM      5  C   UNL     1      -9.736  16.385  68.052  0.00  0.00    +0.157 C 
ATOM      6  N   UNL     1      -9.950  15.520  66.889  0.00  0.00    -0.315 N 
ATOM      7  C   UNL     1     -10.269  16.065  65.683  0.00  0.00    +0.157 A 
ATOM      8  C   UNL     1     -11.238  15.471  64.875  0.00  0.00    +0.254 A 
ATOM      9  O   UNL     1     -11.997  16.207  63.961  0.00  0.00    -0.281 OA
ATOM     10  C   UNL     1     -11.837  14.303  65.321  0.00  0.00    +0.242 A 
ATOM     11  O   UNL     1     -13.006  13.958  65.045  0.00  0.00    -0.283 OA
ATOM     12  C   UNL     1     -11.092  13.531  66.205  0.00  0.00    +0.114 A 
ATOM     13  C   UNL     1     -10.167  14.185  66.984  0.00  0.00    +0.084 A 
ATOM     14  O   UNL     1      -8.440  18.225  68.751  0.00  0.00    -0.336 OA
ATOM     15  C   UNL     1      -7.859  19.393  68.226  0.00  0.00    +0.146 C 
ATOM     16  C   UNL     1     -10.150  17.532  65.673  0.00  0.00    +0.270 C 
ATOM     17  O   UNL     1     -10.938  18.265  65.000  0.00  0.00    -0.268 OA
ATOM     18  C   UNL     1      -9.045  20.256  67.802  0.00  0.00    +0.052 C 
ENDROOT
BRANCH  12  19
ATOM     19  C   UNL     1     -11.249  12.078  66.170  0.00  0.00    +0.270 C 
ATOM     20  N   UNL     1     -10.109  11.274  65.830  0.00  0.00    -0.197 NA
ATOM     21  O   UNL     1     -12.062  11.466  66.928  0.00  0.00    -0.268 OA
BRANCH  20  22
ATOM     22  C   UNL     1     -10.188   9.886  65.479  0.00  0.00    +0.144 C 
BRANCH  22  23
ATOM     23  C   UNL     1      -9.346   9.716  64.253  0.00  0.00    +0.027 A 
ATOM     24  C   UNL     1      -9.808  10.398  63.132  0.00  0.00    +0.140 A 
ATOM     25  F   UNL     1     -11.037  10.993  63.125  0.00  0.00    -0.204 F 
ATOM     26  C   UNL     1      -8.969  10.698  62.080  0.00  0.00    +0.059 A 
ATOM     27  C   UNL     1      -7.621  10.378  62.171  0.00  0.00    +0.142 A 
ATOM     28  F   UNL     1      -6.878  10.552  61.045  0.00  0.00    -0.204 F 
ATOM     29  C   UNL     1      -7.153   9.764  63.308  0.00  0.00    +0.030 A 
ATOM     30  C   UNL     1      -7.967   9.747  64.426  0.00  0.00    +0.002 A 
ENDBRANCH  22  23
ENDBRANCH  20  22
ENDBRANCH  12  19
TORSDOF 3
ENDMDL
MODEL 2
REMARK VINA RESULT:      -8.1      2.509      3.992
REMARK  Name = 
REMARK  3 active torsions:
REMARK  status: ('A' for Active; 'I' for Inactive)
REMARK    1  A    between atoms: C_10  and  C_11
REMARK    2  A    between atoms: N_13  and  C_14
REMARK    3  A    between atoms: C_14  and  C_15
REMARK                            x       y       z     vdW  Elec       q    Type
REMARK                         _______ _______ _______ _____ _____    ______ ____
ROOT
ATOM      1  C   UNL     1      -5.817  21.155  67.622  0.00  0.00    +0.022 C 
ATOM      2  C   UNL     1      -5.289  19.675  67.068  0.00  0.00    +0.080 C 
ATOM      3  N   UNL     1      -6.436  19.642  65.960  0.00  0.00    -0.253 N 
ATOM      4  C   UNL     1      -6.215  18.306  65.067  0.00  0.00    +0.218 C 
ATOM      5  C   UNL     1      -6.604  17.291  66.374  0.00  0.00    +0.157 C 
ATOM      6  N   UNL     1      -8.066  17.372  66.324  0.00  0.00    -0.315 N 
ATOM      7  C   UNL     1      -8.689  18.569  66.500  0.00  0.00    +0.157 A 
ATOM      8  C   UNL     1      -9.847  18.655  67.272  0.00  0.00    +0.254 A 
ATOM      9  O   UNL     1     -10.208  19.827  67.943  0.00  0.00    -0.281 OA
ATOM     10  C   UNL     1     -10.354  17.489  67.825  0.00  0.00    +0.242 A 
ATOM     11  O   UNL     1     -10.988  17.433  68.899  0.00  0.00    -0.283 OA
ATOM     12  C   UNL     1     -10.041  16.309  67.159  0.00  0.00    +0.114 A 
ATOM     13  C   UNL     1      -8.875  16.289  66.431  0.00  0.00    +0.084 A 
ATOM     14  O   UNL     1      -4.684  18.225  65.377  0.00  0.00    -0.336 OA
ATOM     15  C   UNL     1      -4.239  19.442  64.830  0.00  0.00    +0.146 C 
ATOM     16  C   UNL     1      -7.749  19.702  66.515  0.00  0.00    +0.270 C 
ATOM     17  O   UNL     1      -7.935  20.719  67.252  0.00  0.00    -0.268 OA
ATOM     18  C   UNL     1      -4.226  20.411  66.009  0.00  0.00    +0.052 C 
ENDROOT
BRANCH  12  19
ATOM     19  C   UNL     1     -11.013  15.217  67.175  0.00  0.00    +0.270 C 
ATOM     20  N   UNL     1     -11.374  14.603  65.929  0.00  0.00    -0.197 NA
ATOM     21  O   UNL     1     -11.116  14.417  68.155  0.00  0.00    -0.268 OA
BRANCH  20  22
ATOM     22  C   UNL     1     -12.505  13.738  65.763  0.00  0.00    +0.144 C 
BRANCH  22  23
ATOM     23  C   UNL     1     -11.966  12.436  65.256  0.00  0.00    +0.027 A 
ATOM     24  C   UNL     1     -11.806  12.372  63.876  0.00  0.00    +0.140 A 
ATOM     25  F   UNL     1     -12.302  13.349  63.062  0.00  0.00    -0.204 F 
ATOM     26  C   UNL     1     -10.954  11.455  63.296  0.00  0.00    +0.059 A 
ATOM     27  C   UNL     1     -10.187  10.630  64.106  0.00  0.00    +0.142 A 
ATOM     28  F   UNL     1      -9.490   9.644  63.482  0.00  0.00    -0.204 F 
ATOM     29  C   UNL     1     -10.297  10.742  65.471  0.00  0.00    +0.030 A 
ATOM     30  C   UNL     1     -10.939  11.851  65.989  0.00  0.00    +0.002 A 
ENDBRANCH  22  23
ENDBRANCH  20  22
ENDBRANCH  12  19
TORSDOF 3
ENDMDL
MODEL 3
REMARK VINA RESULT:      -8.0      2.848      4.535
REMARK  Name = 
REMARK  3 active torsions:
REMARK  status: ('A' for Active; 'I' for Inactive)
REMARK    1  A    between atoms: C_10  and  C_11
REMARK    2  A    between atoms: N_13  and  C_14
REMARK    3  A    between atoms: C_14  and  C_15
REMARK                            x       y       z     vdW  Elec       q    Type
REMARK                         _______ _______ _______ _____ _____    ______ ____
ROOT
ATOM      1  C   UNL     1      -5.339  21.547  67.244  0.00  0.00    +0.022 C 
ATOM      2  C   UNL     1      -5.126  20.413  68.445  0.00  0.00    +0.080 C 
ATOM      3  N   UNL     1      -5.378  19.222  67.414  0.00  0.00    -0.253 N 
ATOM      4  C   UNL     1      -5.157  17.827  68.212  0.00  0.00    +0.218 C 
ATOM      5  C   UNL     1      -6.528  18.092  69.183  0.00  0.00    +0.157 C 
ATOM      6  N   UNL     1      -7.576  17.669  68.251  0.00  0.00    -0.315 N 
ATOM      7  C   UNL     1      -7.743  18.324  67.070  0.00  0.00    +0.157 A 
ATOM      8  C   UNL     1      -9.024  18.612  66.598  0.00  0.00    +0.254 A 
ATOM      9  O   UNL     1      -9.281  19.701  65.760  0.00  0.00    -0.281 OA
ATOM     10  C   UNL     1     -10.109  18.186  67.348  0.00  0.00    +0.242 A 
ATOM     11  O   UNL     1     -11.212  18.771  67.390  0.00  0.00    -0.283 OA
ATOM     12  C   UNL     1      -9.894  17.081  68.164  0.00  0.00    +0.114 A 
ATOM     13  C   UNL     1      -8.611  16.869  68.608  0.00  0.00    +0.084 A 
ATOM     14  O   UNL     1      -4.203  18.466  69.275  0.00  0.00    -0.336 OA
ATOM     15  C   UNL     1      -3.150  18.907  68.454  0.00  0.00    +0.146 C 
ATOM     16  C   UNL     1      -6.663  19.285  66.795  0.00  0.00    +0.270 C 
ATOM     17  O   UNL     1      -6.876  20.383  66.196  0.00  0.00    -0.268 OA
ATOM     18  C   UNL     1      -3.479  20.369  68.160  0.00  0.00    +0.052 C 
ENDROOT
BRANCH  12  19
ATOM     19  C   UNL     1     -11.004  16.159  68.402  0.00  0.00    +0.270 C 
ATOM     20  N   UNL     1     -10.879  14.805  67.944  0.00  0.00    -0.197 NA
ATOM     21  O   UNL     1     -11.761  16.258  69.416  0.00  0.00    -0.268 OA
BRANCH  20  22
ATOM     22  C   UNL     1     -11.978  13.889  67.850  0.00  0.00    +0.144 C 
BRANCH  22  23
ATOM     23  C   UNL     1     -11.703  13.025  66.659  0.00  0.00    +0.027 A 
ATOM     24  C   UNL     1     -12.401  13.382  65.510  0.00  0.00    +0.140 A 
ATOM     25  F   UNL     1     -13.399  14.312  65.550  0.00  0.00    -0.204 F 
ATOM     26  C   UNL     1     -11.970  12.990  64.259  0.00  0.00    +0.059 A 
ATOM     27  C   UNL     1     -10.778  12.290  64.139  0.00  0.00    +0.142 A 
ATOM     28  F   UNL     1     -10.486  11.795  62.906  0.00  0.00    -0.204 F 
ATOM     29  C   UNL     1     -10.054  11.997  65.270  0.00  0.00    +0.030 A 
ATOM     30  C   UNL     1     -10.382  12.650  66.444  0.00  0.00    +0.002 A 
ENDBRANCH  22  23
ENDBRANCH  20  22
ENDBRANCH  12  19
TORSDOF 3
ENDMDL
MODEL 4
REMARK VINA RESULT:      -7.9      2.411      4.410
REMARK  Name = 
REMARK  3 active torsions:
REMARK  status: ('A' for Active; 'I' for Inactive)
REMARK    1  A    between atoms: C_10  and  C_11
REMARK    2  A    between atoms: N_13  and  C_14
REMARK    3  A    between atoms: C_14  and  C_15
REMARK                            x       y       z     vdW  Elec       q    Type
REMARK                         _______ _______ _______ _____ _____    ______ ____
ROOT
ATOM      1  C   UNL     1      -4.213  17.431  69.689  0.00  0.00    +0.022 C 
ATOM      2  C   UNL     1      -4.843  18.549  68.627  0.00  0.00    +0.080 C 
ATOM      3  N   UNL     1      -6.283  18.432  69.304  0.00  0.00    -0.253 N 
ATOM      4  C   UNL     1      -7.256  19.506  68.576  0.00  0.00    +0.218 C 
ATOM      5  C   UNL     1      -7.204  18.652  67.106  0.00  0.00    +0.157 C 
ATOM      6  N   UNL     1      -8.183  17.602  67.395  0.00  0.00    -0.315 N 
ATOM      7  C   UNL     1      -7.965  16.729  68.416  0.00  0.00    +0.157 A 
ATOM      8  C   UNL     1      -8.254  15.374  68.259  0.00  0.00    +0.254 A 
ATOM      9  O   UNL     1      -7.580  14.382  68.977  0.00  0.00    -0.281 OA
ATOM     10  C   UNL     1      -8.793  14.954  67.053  0.00  0.00    +0.242 A 
ATOM     11  O   UNL     1      -8.615  13.823  66.554  0.00  0.00    -0.283 OA
ATOM     12  C   UNL     1      -9.500  15.910  66.332  0.00  0.00    +0.114 A 
ATOM     13  C   UNL     1      -9.150  17.226  66.523  0.00  0.00    +0.084 A 
ATOM     14  O   UNL     1      -6.077  20.441  68.147  0.00  0.00    -0.336 OA
ATOM     15  C   UNL     1      -5.554  20.799  69.403  0.00  0.00    +0.146 C 
ATOM     16  C   UNL     1      -6.816  17.109  69.253  0.00  0.00    +0.270 C 
ATOM     17  O   UNL     1      -6.054  16.242  69.783  0.00  0.00    -0.268 OA
ATOM     18  C   UNL     1      -4.419  19.807  69.644  0.00  0.00    +0.052 C 
ENDROOT
BRANCH  12  19
ATOM     19  C   UNL     1     -10.635  15.476  65.518  0.00  0.00    +0.270 C 
ATOM     20  N   UNL     1     -11.678  14.716  66.147  0.00  0.00    -0.197 NA
ATOM     21  O   UNL     1     -11.058  16.152  64.531  0.00  0.00    -0.268 OA
BRANCH  20  22
ATOM     22  C   UNL     1     -12.683  13.992  65.427  0.00  0.00    +0.144 C 
BRANCH  22  23
ATOM     23  C   UNL     1     -12.153  12.603  65.251  0.00  0.00    +0.027 A 
ATOM     24  C   UNL     1     -11.751  12.294  63.956  0.00  0.00    +0.140 A 
ATOM     25  F   UNL     1     -12.022  13.133  62.914  0.00  0.00    -0.204 F 
ATOM     26  C   UNL     1     -10.875  11.258  63.706  0.00  0.00    +0.059 A 
ATOM     27  C   UNL     1     -10.326  10.558  64.771  0.00  0.00    +0.142 A 
ATOM     28  F   UNL     1      -9.597   9.453  64.461  0.00  0.00    -0.204 F 
ATOM     29  C   UNL     1     -10.673  10.909  66.054  0.00  0.00    +0.030 A 
ATOM     30  C   UNL     1     -11.319  12.115  66.251  0.00  0.00    +0.002 A 
ENDBRANCH  22  23
ENDBRANCH  20  22
ENDBRANCH  12  19
TORSDOF 3
ENDMDL
MODEL 5
REMARK VINA RESULT:      -7.9      2.532      4.653
REMARK  Name = 
REMARK  3 active torsions:
REMARK  status: ('A' for Active; 'I' for Inactive)
REMARK    1  A    between atoms: C_10  and  C_11
REMARK    2  A    between atoms: N_13  and  C_14
REMARK    3  A    between atoms: C_14  and  C_15
REMARK                            x       y       z     vdW  Elec       q    Type
REMARK                         _______ _______ _______ _____ _____    ______ ____
ROOT
ATOM      1  C   UNL     1      -5.578  19.093  70.594  0.00  0.00    +0.022 C 
ATOM      2  C   UNL     1      -5.126  17.737  69.738  0.00  0.00    +0.080 C 
ATOM      3  N   UNL     1      -5.429  18.468  68.352  0.00  0.00    -0.253 N 
ATOM      4  C   UNL     1      -5.004  17.454  67.160  0.00  0.00    +0.218 C 
ATOM      5  C   UNL     1      -6.249  16.366  67.557  0.00  0.00    +0.157 C 
ATOM      6  N   UNL     1      -7.379  17.035  66.909  0.00  0.00    -0.315 N 
ATOM      7  C   UNL     1      -7.748  18.285  67.303  0.00  0.00    +0.157 A 
ATOM      8  C   UNL     1      -9.097  18.613  67.433  0.00  0.00    +0.254 A 
ATOM      9  O   UNL     1      -9.541  19.601  68.317  0.00  0.00    -0.281 OA
ATOM     10  C   UNL     1     -10.040  17.645  67.121  0.00  0.00    +0.242 A 
ATOM     11  O   UNL     1     -11.167  17.558  67.655  0.00  0.00    -0.283 OA
ATOM     12  C   UNL     1      -9.640  16.669  66.217  0.00  0.00    +0.114 A 
ATOM     13  C   UNL     1      -8.297  16.383  66.154  0.00  0.00    +0.084 A 
ATOM     14  O   UNL     1      -3.965  16.686  68.042  0.00  0.00    -0.336 OA
ATOM     15  C   UNL     1      -3.065  17.721  68.352  0.00  0.00    +0.146 C 
ATOM     16  C   UNL     1      -6.785  18.895  68.233  0.00  0.00    +0.270 C 
ATOM     17  O   UNL     1      -7.154  19.660  69.176  0.00  0.00    -0.268 OA
ATOM     18  C   UNL     1      -3.533  18.244  69.708  0.00  0.00    +0.052 C 
ENDROOT
BRANCH  12  19
ATOM     19  C   UNL     1     -10.640  16.098  65.315  0.00  0.00    +0.270 C 
ATOM     20  N   UNL     1     -11.472  15.034  65.801  0.00  0.00    -0.197 NA
ATOM     21  O   UNL     1     -11.213  16.787  64.416  0.00  0.00    -0.268 OA
BRANCH  20  22
ATOM     22  C   UNL     1     -12.277  14.201  64.956  0.00  0.00    +0.144 C 
BRANCH  22  23
ATOM     23  C   UNL     1     -11.952  12.788  65.329  0.00  0.00    +0.027 A 
ATOM     24  C   UNL     1     -11.235  12.084  64.368  0.00  0.00    +0.140 A 
ATOM     25  F   UNL     1     -11.039  12.596  63.117  0.00  0.00    -0.204 F 
ATOM     26  C   UNL     1     -10.504  10.962  64.699  0.00  0.00    +0.059 A 
ATOM     27  C   UNL     1     -10.424  10.569  66.027  0.00  0.00    +0.142 A 
ATOM     28  F   UNL     1      -9.826   9.372  66.272  0.00  0.00    -0.204 F 
ATOM     29  C   UNL     1     -11.078  11.306  66.985  0.00  0.00    +0.030 A 
ATOM     30  C   UNL     1     -11.549  12.559  66.639  0.00  0.00    +0.002 A 
ENDBRANCH  22  23
ENDBRANCH  20  22
ENDBRANCH  12  19
TORSDOF 3
ENDMDL
MODEL 6
REMARK VINA RESULT:      -7.9      3.226      7.740
REMARK  Name = 
REMARK  3 active torsions:
REMARK  status: ('A' for Active; 'I' for Inactive)
REMARK    1  A    between atoms: C_10  and  C_11
REMARK    2  A    between atoms: N_13  and  C_14
REMARK    3  A    between atoms: C_14  and  C_15
REMARK                            x       y       z     vdW  Elec       q    Type
REMARK                         _______ _______ _______ _____ _____    ______ ____
ROOT
ATOM      1  C   UNL     1     -10.210  10.388  63.594  0.00  0.00    +0.022 C 
ATOM      2  C   UNL     1      -9.138  10.728  64.824  0.00  0.00    +0.080 C 
ATOM      3  N   UNL     1     -10.330  11.184  65.782  0.00  0.00    -0.253 N 
ATOM      4  C   UNL     1      -9.687  11.538  67.229  0.00  0.00    +0.218 C 
ATOM      5  C   UNL     1      -8.862  12.886  66.602  0.00  0.00    +0.157 C 
ATOM      6  N   UNL     1      -9.956  13.859  66.584  0.00  0.00    -0.315 N 
ATOM      7  C   UNL     1     -11.060  13.630  65.822  0.00  0.00    +0.157 A 
ATOM      8  C   UNL     1     -11.643  14.666  65.094  0.00  0.00    +0.254 A 
ATOM      9  O   UNL     1     -12.366  14.436  63.920  0.00  0.00    -0.281 OA
ATOM     10  C   UNL     1     -11.085  15.932  65.194  0.00  0.00    +0.242 A 
ATOM     11  O   UNL     1     -11.103  16.787  64.284  0.00  0.00    -0.283 OA
ATOM     12  C   UNL     1     -10.389  16.203  66.367  0.00  0.00    +0.114 A 
ATOM     13  C   UNL     1      -9.825  15.135  67.023  0.00  0.00    +0.084 A 
ATOM     14  O   UNL     1      -8.448  10.604  67.024  0.00  0.00    -0.336 OA
ATOM     15  C   UNL     1      -9.078   9.354  66.892  0.00  0.00    +0.146 C 
ATOM     16  C   UNL     1     -11.085  12.273  65.253  0.00  0.00    +0.270 C 
ATOM     17  O   UNL     1     -11.567  12.035  64.103  0.00  0.00    -0.268 OA
ATOM     18  C   UNL     1      -9.229   9.156  65.386  0.00  0.00    +0.052 C 
ENDROOT
BRANCH  12  19
ATOM     19  C   UNL     1     -10.400  17.569  66.888  0.00  0.00    +0.270 C 
ATOM     20  N   UNL     1      -9.895  18.623  66.055  0.00  0.00    -0.197 NA
ATOM     21  O   UNL     1     -11.286  17.978  67.699  0.00  0.00    -0.268 OA
BRANCH  20  22
ATOM     22  C   UNL     1      -9.581  19.938  66.533  0.00  0.00    +0.144 C 
BRANCH  22  23
ATOM     23  C   UNL     1      -8.140  19.903  66.938  0.00  0.00    +0.027 A 
ATOM     24  C   UNL     1      -7.920  19.604  68.278  0.00  0.00    +0.140 A 
ATOM     25  F   UNL     1      -8.954  19.557  69.169  0.00  0.00    -0.204 F 
ATOM     26  C   UNL     1      -6.704  19.123  68.715  0.00  0.00    +0.059 A 
ATOM     27  C   UNL     1      -5.703  18.863  67.789  0.00  0.00    +0.142 A 
ATOM     28  F   UNL     1      -4.480  18.543  68.291  0.00  0.00    -0.204 F 
ATOM     29  C   UNL     1      -5.945  19.096  66.457  0.00  0.00    +0.030 A 
ATOM     30  C   UNL     1      -7.251  19.302  66.054  0.00  0.00    +0.002 A 
ENDBRANCH  22  23
ENDBRANCH  20  22
ENDBRANCH  12  19
TORSDOF 3
ENDMDL
MODEL 7
REMARK VINA RESULT:      -7.8      1.958      2.392
REMARK  Name = 
REMARK  3 active torsions:
REMARK  status: ('A' for Active; 'I' for Inactive)
REMARK    1  A    between atoms: C_10  and  C_11
REMARK    2  A    between atoms: N_13  and  C_14
REMARK    3  A    between atoms: C_14  and  C_15
REMARK                            x       y       z     vdW  Elec       q    Type
REMARK                         _______ _______ _______ _____ _____    ______ ____
ROOT
ATOM      1  C   UNL     1     -10.388  19.916  67.097  0.00  0.00    +0.022 C 
ATOM      2  C   UNL     1      -9.735  18.838  68.186  0.00  0.00    +0.080 C 
ATOM      3  N   UNL     1      -8.910  18.114  67.028  0.00  0.00    -0.253 N 
ATOM      4  C   UNL     1      -7.994  16.970  67.721  0.00  0.00    +0.218 C 
ATOM      5  C   UNL     1      -9.357  16.054  68.159  0.00  0.00    +0.157 C 
ATOM      6  N   UNL     1      -9.635  15.395  66.881  0.00  0.00    -0.315 N 
ATOM      7  C   UNL     1      -9.942  16.138  65.783  0.00  0.00    +0.157 A 
ATOM      8  C   UNL     1     -10.954  15.729  64.915  0.00  0.00    +0.254 A 
ATOM      9  O   UNL     1     -11.686  16.637  64.145  0.00  0.00    -0.281 OA
ATOM     10  C   UNL     1     -11.608  14.537  65.187  0.00  0.00    +0.242 A 
ATOM     11  O   UNL     1     -12.798  14.299  64.888  0.00  0.00    -0.283 OA
ATOM     12  C   UNL     1     -10.892  13.599  65.922  0.00  0.00    +0.114 A 
ATOM     13  C   UNL     1      -9.922  14.074  66.772  0.00  0.00    +0.084 A 
ATOM     14  O   UNL     1      -7.954  17.693  69.108  0.00  0.00    -0.336 OA
ATOM     15  C   UNL     1      -7.319  18.898  68.759  0.00  0.00    +0.146 C 
ATOM     16  C   UNL     1      -9.745  17.580  66.000  0.00  0.00    +0.270 C 
ATOM     17  O   UNL     1     -10.502  18.450  65.468  0.00  0.00    -0.268 OA
ATOM     18  C   UNL     1      -8.463  19.876  68.503  0.00  0.00    +0.052 C 
ENDROOT
BRANCH  12  19
ATOM     19  C   UNL     1     -11.128  12.179  65.663  0.00  0.00    +0.270 C 
ATOM     20  N   UNL     1     -10.031  11.376  65.200  0.00  0.00    -0.197 NA
ATOM     21  O   UNL     1     -11.977  11.503  66.320  0.00  0.00    -0.268 OA
BRANCH  20  22
ATOM     22  C   UNL     1     -10.183  10.065  64.640  0.00  0.00    +0.144 C 
BRANCH  22  23
ATOM     23  C   UNL     1      -9.177   9.197  65.330  0.00  0.00    +0.027 A 
ATOM     24  C   UNL     1      -9.679   8.464  66.400  0.00  0.00    +0.140 A 
ATOM     25  F   UNL     1     -10.934   8.694  66.887  0.00  0.00    -0.204 F 
ATOM     26  C   UNL     1      -9.034   7.335  66.861  0.00  0.00    +0.059 A 
ATOM     27  C   UNL     1      -7.902   6.880  66.199  0.00  0.00    +0.142 A 
ATOM     28  F   UNL     1      -7.221   5.861  66.789  0.00  0.00    -0.204 F 
ATOM     29  C   UNL     1      -7.446   7.567  65.100  0.00  0.00    +0.030 A 
ATOM     30  C   UNL     1      -8.280   8.508  64.522  0.00  0.00    +0.002 A 
ENDBRANCH  22  23
ENDBRANCH  20  22
ENDBRANCH  12  19
TORSDOF 3
ENDMDL
MODEL 8
REMARK VINA RESULT:      -7.8      3.712      8.131
REMARK  Name = 
REMARK  3 active torsions:
REMARK  status: ('A' for Active; 'I' for Inactive)
REMARK    1  A    between atoms: C_10  and  C_11
REMARK    2  A    between atoms: N_13  and  C_14
REMARK    3  A    between atoms: C_14  and  C_15
REMARK                            x       y       z     vdW  Elec       q    Type
REMARK                         _______ _______ _______ _____ _____    ______ ____
ROOT
ATOM      1  C   UNL     1     -10.551  10.251  65.233  0.00  0.00    +0.022 C 
ATOM      2  C   UNL     1      -9.803  10.549  66.691  0.00  0.00    +0.080 C 
ATOM      3  N   UNL     1     -11.081  11.342  67.224  0.00  0.00    -0.253 N 
ATOM      4  C   UNL     1     -10.792  11.761  68.764  0.00  0.00    +0.218 C 
ATOM      5  C   UNL     1      -9.558  12.837  68.304  0.00  0.00    +0.157 C 
ATOM      6  N   UNL     1     -10.370  13.985  67.894  0.00  0.00    -0.315 N 
ATOM      7  C   UNL     1     -11.250  13.863  66.863  0.00  0.00    +0.157 A 
ATOM      8  C   UNL     1     -11.377  14.883  65.921  0.00  0.00    +0.254 A 
ATOM      9  O   UNL     1     -11.789  14.635  64.608  0.00  0.00    -0.281 OA
ATOM     10  C   UNL     1     -10.608  16.025  66.083  0.00  0.00    +0.242 A 
ATOM     11  O   UNL     1     -10.195  16.739  65.144  0.00  0.00    -0.283 OA
ATOM     12  C   UNL     1     -10.212  16.317  67.383  0.00  0.00    +0.114 A 
ATOM     13  C   UNL     1     -10.090  15.261  68.255  0.00  0.00    +0.084 A 
ATOM     14  O   UNL     1      -9.775  10.596  69.000  0.00  0.00    -0.336 OA
ATOM     15  C   UNL     1     -10.600   9.478  68.785  0.00  0.00    +0.146 C 
ATOM     16  C   UNL     1     -11.413  12.471  66.416  0.00  0.00    +0.270 C 
ATOM     17  O   UNL     1     -11.606  12.174  65.197  0.00  0.00    -0.268 OA
ATOM     18  C   UNL     1     -10.379   9.111  67.320  0.00  0.00    +0.052 C 
ENDROOT
BRANCH  12  19
ATOM     19  C   UNL     1     -10.068  17.719  67.773  0.00  0.00    +0.270 C 
ATOM     20  N   UNL     1      -8.763  18.316  67.714  0.00  0.00    -0.197 NA
ATOM     21  O   UNL     1     -10.995  18.569  67.601  0.00  0.00    -0.268 OA
BRANCH  20  22
ATOM     22  C   UNL     1      -8.429  19.567  68.329  0.00  0.00    +0.144 C 
BRANCH  22  23
ATOM     23  C   UNL     1      -7.590  20.310  67.336  0.00  0.00    +0.027 A 
ATOM     24  C   UNL     1      -6.418  20.850  67.855  0.00  0.00    +0.140 A 
ATOM     25  F   UNL     1      -6.182  20.864  69.200  0.00  0.00    -0.204 F 
ATOM     26  C   UNL     1      -5.358  21.179  67.036  0.00  0.00    +0.059 A 
ATOM     27  C   UNL     1      -5.433  20.900  65.679  0.00  0.00    +0.142 A 
ATOM     28  F   UNL     1      -4.430  21.389  64.902  0.00  0.00    -0.204 F 
ATOM     29  C   UNL     1      -6.566  20.304  65.179  0.00  0.00    +0.030 A 
ATOM     30  C   UNL     1      -7.462  19.746  66.072  0.00  0.00    +0.002 A 
ENDBRANCH  22  23
ENDBRANCH  20  22
ENDBRANCH  12  19
TORSDOF 3
ENDMDL
MODEL 9
REMARK VINA RESULT:      -7.7      4.574      5.785
REMARK  Name = 
REMARK  3 active torsions:
REMARK  status: ('A' for Active; 'I' for Inactive)
REMARK    1  A    between atoms: C_10  and  C_11
REMARK    2  A    between atoms: N_13  and  C_14
REMARK    3  A    between atoms: C_14  and  C_15
REMARK                            x       y       z     vdW  Elec       q    Type
REMARK                         _______ _______ _______ _____ _____    ______ ____
ROOT
ATOM      1  C   UNL     1      -8.871  19.350  68.730  0.00  0.00    +0.022 C 
ATOM      2  C   UNL     1      -7.778  18.245  68.131  0.00  0.00    +0.080 C 
ATOM      3  N   UNL     1      -8.840  17.723  67.061  0.00  0.00    -0.253 N 
ATOM      4  C   UNL     1      -8.100  16.616  66.135  0.00  0.00    +0.218 C 
ATOM      5  C   UNL     1      -7.962  15.529  67.435  0.00  0.00    +0.157 C 
ATOM      6  N   UNL     1      -9.317  14.971  67.435  0.00  0.00    -0.315 N 
ATOM      7  C   UNL     1     -10.388  15.781  67.654  0.00  0.00    +0.157 A 
ATOM      8  C   UNL     1     -11.439  15.357  68.466  0.00  0.00    +0.254 A 
ATOM      9  O   UNL     1     -12.244  16.256  69.172  0.00  0.00    -0.281 OA
ATOM     10  C   UNL     1     -11.372  14.084  69.012  0.00  0.00    +0.242 A 
ATOM     11  O   UNL     1     -11.879  13.757  70.106  0.00  0.00    -0.283 OA
ATOM     12  C   UNL     1     -10.607  13.157  68.314  0.00  0.00    +0.114 A 
ATOM     13  C   UNL     1      -9.575  13.645  67.547  0.00  0.00    +0.084 A 
ATOM     14  O   UNL     1      -6.672  17.203  66.392  0.00  0.00    -0.336 OA
ATOM     15  C   UNL     1      -6.817  18.494  65.855  0.00  0.00    +0.146 C 
ATOM     16  C   UNL     1     -10.029  17.208  67.661  0.00  0.00    +0.270 C 
ATOM     17  O   UNL     1     -10.607  18.043  68.422  0.00  0.00    -0.268 OA
ATOM     18  C   UNL     1      -7.178  19.371  67.051  0.00  0.00    +0.052 C 
ENDROOT
BRANCH  12  19
ATOM     19  C   UNL     1     -11.012  11.752  68.341  0.00  0.00    +0.270 C 
ATOM     20  N   UNL     1     -10.756  10.989  69.529  0.00  0.00    -0.197 NA
ATOM     21  O   UNL     1     -12.022  11.326  67.702  0.00  0.00    -0.268 OA
BRANCH  20  22
ATOM     22  C   UNL     1     -10.833   9.558  69.591  0.00  0.00    +0.144 C 
BRANCH  22  23
ATOM     23  C   UNL     1     -10.579   9.187  71.019  0.00  0.00    +0.027 A 
ATOM     24  C   UNL     1     -11.651   8.574  71.659  0.00  0.00    +0.140 A 
ATOM     25  F   UNL     1     -12.884   8.519  71.074  0.00  0.00    -0.204 F 
ATOM     26  C   UNL     1     -11.467   7.806  72.789  0.00  0.00    +0.059 A 
ATOM     27  C   UNL     1     -10.180   7.580  73.256  0.00  0.00    +0.142 A 
ATOM     28  F   UNL     1     -10.071   6.952  74.457  0.00  0.00    -0.204 F 
ATOM     29  C   UNL     1      -9.116   8.130  72.583  0.00  0.00    +0.030 A 
ATOM     30  C   UNL     1      -9.335   8.643  71.317  0.00  0.00    +0.002 A 
ENDBRANCH  22  23
ENDBRANCH  20  22
ENDBRANCH  12  19
TORSDOF 3
ENDMDL
