MODEL 1
REMARK VINA RESULT:      -6.8      0.000      0.000
REMARK  Name = 
REMARK  11 active torsions:
REMARK  status: ('A' for Active; 'I' for Inactive)
REMARK    1  A    between atoms: C_2  and  C_3
REMARK    2  A    between atoms: C_3  and  C_4
REMARK    3  A    between atoms: C_4  and  C_5
REMARK    4  A    between atoms: C_5  and  C_8
REMARK    5  A    between atoms: C_17  and  C_18
REMARK    6  A    between atoms: C_18  and  C_19
REMARK    7  A    between atoms: C_19  and  C_20
REMARK    8  A    between atoms: C_20  and  C_21
REMARK    9  A    between atoms: C_21  and  C_22
REMARK   10  A    between atoms: C_22  and  C_23
REMARK   11  A    between atoms: C_23  and  C_24
REMARK                            x       y       z     vdW  Elec       q    Type
REMARK                         _______ _______ _______ _____ _____    ______ ____
ROOT
ATOM      1  C   UNL     1      -9.895  17.455  66.345  0.00  0.00    +0.275 C 
ATOM      2  O   UNL     1     -10.539  16.686  65.340  0.00  0.00    -0.330 OA
ATOM      3  C   UNL     1      -9.960  15.445  65.980  0.00  0.00    +0.126 C 
ATOM      4  C   UNL     1     -10.443  14.270  64.959  0.00  0.00    +0.094 C 
ATOM      5  C   UNL     1     -10.129  13.440  66.204  0.00  0.00    +0.153 C 
ATOM      6  C   UNL     1     -11.568  13.708  66.847  0.00  0.00    +0.060 C 
ATOM      7  O   UNL     1      -9.431  12.495  66.340  0.00  0.00    -0.296 OA
ATOM      8  C   UNL     1     -11.371  15.385  66.936  0.00  0.00    +0.035 C 
ATOM      9  C   UNL     1     -10.248  15.546  68.083  0.00  0.00    +0.008 C 
ATOM     10  C   UNL     1      -9.802  16.956  67.700  0.00  0.00    +0.065 C 
ATOM     11  O   UNL     1      -8.578  17.312  65.815  0.00  0.00    -0.189 OA
ENDROOT
BRANCH   1  12
ATOM     12  C   UNL     1     -10.206  18.906  66.349  0.00  0.00    +0.312 C 
ATOM     13  F   UNL     1     -10.712  19.464  67.459  0.00  0.00    -0.199 F 
ATOM     14  F   UNL     1     -10.887  19.290  65.245  0.00  0.00    -0.199 F 
BRANCH  12  15
ATOM     15  C   UNL     1      -8.842  19.588  66.270  0.00  0.00    +0.072 C 
BRANCH  15  16
ATOM     16  C   UNL     1      -8.512  20.452  67.437  0.00  0.00    +0.006 C 
BRANCH  16  18
ATOM     17  C   UNL     1      -7.265  19.539  68.571  0.00  0.00    +0.000 C 
ATOM     18  C   UNL     1      -7.323  19.759  68.108  0.00  0.00    +0.000 C 
ENDBRANCH  16  18
ENDBRANCH  15  16
ENDBRANCH  12  15
ENDBRANCH   1  12
BRANCH   6  19
ATOM     19  C   UNL     1     -11.349  13.496  68.420  0.00  0.00    +0.007 C 
BRANCH  19  20
ATOM     20  C   UNL     1     -11.648  12.530  69.279  0.00  0.00    +0.000 C 
BRANCH  20  21
ATOM     21  C   UNL     1     -12.120  13.265  70.554  0.00  0.00    +0.000 C 
BRANCH  21  22
ATOM     22  C   UNL     1     -12.778  14.545  70.327  0.00  0.00    +0.001 C 
BRANCH  22  23
ATOM     23  C   UNL     1     -12.330  15.742  71.084  0.00  0.00    +0.012 C 
BRANCH  23  24
ATOM     24  C   UNL     1     -11.921  15.439  72.494  0.00  0.00    +0.114 C 
BRANCH  24  25
ATOM     25  C   UNL     1     -12.893  15.896  73.509  0.00  0.00    +0.365 C 
ATOM     26  O   UNL     1     -14.142  16.313  73.106  0.00  0.00    -0.246 OA
ATOM     27  O   UNL     1     -12.555  16.117  74.690  0.00  0.00    -0.246 OA
ENDBRANCH  24  25
ENDBRANCH  23  24
ENDBRANCH  22  23
ENDBRANCH  21  22
ENDBRANCH  20  21
ENDBRANCH  19  20
ENDBRANCH   6  19
TORSDOF 11
ENDMDL
MODEL 2
REMARK VINA RESULT:      -6.7      3.132      5.139
REMARK  Name = 
REMARK  11 active torsions:
REMARK  status: ('A' for Active; 'I' for Inactive)
REMARK    1  A    between atoms: C_2  and  C_3
REMARK    2  A    between atoms: C_3  and  C_4
REMARK    3  A    between atoms: C_4  and  C_5
REMARK    4  A    between atoms: C_5  and  C_8
REMARK    5  A    between atoms: C_17  and  C_18
REMARK    6  A    between atoms: C_18  and  C_19
REMARK    7  A    between atoms: C_19  and  C_20
REMARK    8  A    between atoms: C_20  and  C_21
REMARK    9  A    between atoms: C_21  and  C_22
REMARK   10  A    between atoms: C_22  and  C_23
REMARK   11  A    between atoms: C_23  and  C_24
REMARK                            x       y       z     vdW  Elec       q    Type
REMARK                         _______ _______ _______ _____ _____    ______ ____
ROOT
ATOM      1  C   UNL     1     -11.661  13.615  64.709  0.00  0.00    +0.275 C 
ATOM      2  O   UNL     1     -10.438  14.337  64.682  0.00  0.00    -0.330 OA
ATOM      3  C   UNL     1     -11.002  15.249  65.746  0.00  0.00    +0.126 C 
ATOM      4  C   UNL     1      -9.820  16.358  65.916  0.00  0.00    +0.094 C 
ATOM      5  C   UNL     1     -10.576  16.559  67.230  0.00  0.00    +0.153 C 
ATOM      6  C   UNL     1      -9.796  15.367  67.956  0.00  0.00    +0.060 C 
ATOM      7  O   UNL     1     -11.029  17.539  67.713  0.00  0.00    -0.296 OA
ATOM      8  C   UNL     1     -10.346  14.172  66.894  0.00  0.00    +0.035 C 
ATOM      9  C   UNL     1     -11.914  14.071  67.262  0.00  0.00    +0.008 C 
ATOM     10  C   UNL     1     -12.362  13.411  65.958  0.00  0.00    +0.065 C 
ATOM     11  O   UNL     1     -12.426  14.603  64.021  0.00  0.00    -0.189 OA
ENDROOT
BRANCH   1  12
ATOM     12  C   UNL     1     -11.703  12.382  63.885  0.00  0.00    +0.312 C 
ATOM     13  F   UNL     1     -10.871  12.264  62.839  0.00  0.00    -0.199 F 
ATOM     14  F   UNL     1     -12.966  12.024  63.559  0.00  0.00    -0.199 F 
BRANCH  12  15
ATOM     15  C   UNL     1     -11.173  11.289  64.811  0.00  0.00    +0.072 C 
BRANCH  15  16
ATOM     16  C   UNL     1      -9.885  10.679  64.375  0.00  0.00    +0.006 C 
BRANCH  16  18
ATOM     17  C   UNL     1      -9.014  10.907  66.068  0.00  0.00    +0.000 C 
ATOM     18  C   UNL     1      -8.936  10.896  65.557  0.00  0.00    +0.000 C 
ENDBRANCH  16  18
ENDBRANCH  15  16
ENDBRANCH  12  15
ENDBRANCH   1  12
BRANCH   6  19
ATOM     19  C   UNL     1     -10.775  14.911  69.140  0.00  0.00    +0.007 C 
BRANCH  19  20
ATOM     20  C   UNL     1     -10.875  15.204  70.430  0.00  0.00    +0.000 C 
BRANCH  20  21
ATOM     21  C   UNL     1     -12.295  15.792  70.595  0.00  0.00    +0.000 C 
BRANCH  21  22
ATOM     22  C   UNL     1     -13.335  14.825  70.918  0.00  0.00    +0.001 C 
BRANCH  22  23
ATOM     23  C   UNL     1     -13.932  14.821  72.278  0.00  0.00    +0.012 C 
BRANCH  23  24
ATOM     24  C   UNL     1     -13.574  16.028  73.092  0.00  0.00    +0.114 C 
BRANCH  24  25
ATOM     25  C   UNL     1     -12.597  15.757  74.166  0.00  0.00    +0.365 C 
ATOM     26  O   UNL     1     -11.963  14.536  74.207  0.00  0.00    -0.246 OA
ATOM     27  O   UNL     1     -12.480  16.510  75.154  0.00  0.00    -0.246 OA
ENDBRANCH  24  25
ENDBRANCH  23  24
ENDBRANCH  22  23
ENDBRANCH  21  22
ENDBRANCH  20  21
ENDBRANCH  19  20
ENDBRANCH   6  19
TORSDOF 11
ENDMDL
MODEL 3
REMARK VINA RESULT:      -6.3      1.203      1.403
REMARK  Name = 
REMARK  11 active torsions:
REMARK  status: ('A' for Active; 'I' for Inactive)
REMARK    1  A    between atoms: C_2  and  C_3
REMARK    2  A    between atoms: C_3  and  C_4
REMARK    3  A    between atoms: C_4  and  C_5
REMARK    4  A    between atoms: C_5  and  C_8
REMARK    5  A    between atoms: C_17  and  C_18
REMARK    6  A    between atoms: C_18  and  C_19
REMARK    7  A    between atoms: C_19  and  C_20
REMARK    8  A    between atoms: C_20  and  C_21
REMARK    9  A    between atoms: C_21  and  C_22
REMARK   10  A    between atoms: C_22  and  C_23
REMARK   11  A    between atoms: C_23  and  C_24
REMARK                            x       y       z     vdW  Elec       q    Type
REMARK                         _______ _______ _______ _____ _____    ______ ____
ROOT
ATOM      1  C   UNL     1     -10.051  16.741  66.237  0.00  0.00    +0.275 C 
ATOM      2  O   UNL     1     -10.588  16.087  65.097  0.00  0.00    -0.330 OA
ATOM      3  C   UNL     1     -10.067  14.782  65.653  0.00  0.00    +0.126 C 
ATOM      4  C   UNL     1     -10.440  13.725  64.470  0.00  0.00    +0.094 C 
ATOM      5  C   UNL     1     -10.244  12.766  65.643  0.00  0.00    +0.153 C 
ATOM      6  C   UNL     1     -11.742  12.969  66.167  0.00  0.00    +0.060 C 
ATOM      7  O   UNL     1      -9.557  11.808  65.745  0.00  0.00    -0.296 OA
ATOM      8  C   UNL     1     -11.565  14.626  66.454  0.00  0.00    +0.035 C 
ATOM      9  C   UNL     1     -10.561  14.657  67.717  0.00  0.00    +0.008 C 
ATOM     10  C   UNL     1     -10.088  16.099  67.534  0.00  0.00    +0.065 C 
ATOM     11  O   UNL     1      -8.688  16.650  65.827  0.00  0.00    -0.189 OA
ENDROOT
BRANCH   1  12
ATOM     12  C   UNL     1     -10.370  18.184  66.366  0.00  0.00    +0.312 C 
ATOM     13  F   UNL     1     -10.989  18.622  67.474  0.00  0.00    -0.199 F 
ATOM     14  F   UNL     1     -10.940  18.688  65.248  0.00  0.00    -0.199 F 
BRANCH  12  15
ATOM     15  C   UNL     1      -9.009  18.864  66.498  0.00  0.00    +0.072 C 
BRANCH  15  16
ATOM     16  C   UNL     1      -8.963  19.969  67.496  0.00  0.00    +0.006 C 
BRANCH  16  18
ATOM     17  C   UNL     1      -7.094  20.341  67.287  0.00  0.00    +0.000 C 
ATOM     18  C   UNL     1      -7.557  20.560  67.353  0.00  0.00    +0.000 C 
ENDBRANCH  16  18
ENDBRANCH  15  16
ENDBRANCH  12  15
ENDBRANCH   1  12
BRANCH   6  19
ATOM     19  C   UNL     1     -11.676  12.588  67.722  0.00  0.00    +0.007 C 
BRANCH  19  20
ATOM     20  C   UNL     1     -11.850  11.468  68.414  0.00  0.00    +0.000 C 
BRANCH  20  21
ATOM     21  C   UNL     1     -11.406  11.818  69.852  0.00  0.00    +0.000 C 
BRANCH  21  22
ATOM     22  C   UNL     1     -12.484  12.167  70.768  0.00  0.00    +0.001 C 
BRANCH  22  23
ATOM     23  C   UNL     1     -12.661  13.582  71.183  0.00  0.00    +0.012 C 
BRANCH  23  24
ATOM     24  C   UNL     1     -13.786  13.784  72.153  0.00  0.00    +0.114 C 
BRANCH  24  25
ATOM     25  C   UNL     1     -14.342  15.153  72.148  0.00  0.00    +0.365 C 
ATOM     26  O   UNL     1     -15.400  15.446  71.317  0.00  0.00    -0.246 OA
ATOM     27  O   UNL     1     -13.758  16.102  72.709  0.00  0.00    -0.246 OA
ENDBRANCH  24  25
ENDBRANCH  23  24
ENDBRANCH  22  23
ENDBRANCH  21  22
ENDBRANCH  20  21
ENDBRANCH  19  20
ENDBRANCH   6  19
TORSDOF 11
ENDMDL
MODEL 4
REMARK VINA RESULT:      -6.0      2.865      3.465
REMARK  Name = 
REMARK  11 active torsions:
REMARK  status: ('A' for Active; 'I' for Inactive)
REMARK    1  A    between atoms: C_2  and  C_3
REMARK    2  A    between atoms: C_3  and  C_4
REMARK    3  A    between atoms: C_4  and  C_5
REMARK    4  A    between atoms: C_5  and  C_8
REMARK    5  A    between atoms: C_17  and  C_18
REMARK    6  A    between atoms: C_18  and  C_19
REMARK    7  A    between atoms: C_19  and  C_20
REMARK    8  A    between atoms: C_20  and  C_21
REMARK    9  A    between atoms: C_21  and  C_22
REMARK   10  A    between atoms: C_22  and  C_23
REMARK   11  A    between atoms: C_23  and  C_24
REMARK                            x       y       z     vdW  Elec       q    Type
REMARK                         _______ _______ _______ _____ _____    ______ ____
ROOT
ATOM      1  C   UNL     1     -10.003  16.976  66.234  0.00  0.00    +0.275 C 
ATOM      2  O   UNL     1     -10.588  16.276  65.145  0.00  0.00    -0.330 OA
ATOM      3  C   UNL     1     -10.022  14.998  65.719  0.00  0.00    +0.126 C 
ATOM      4  C   UNL     1     -10.440  13.896  64.592  0.00  0.00    +0.094 C 
ATOM      5  C   UNL     1     -10.172  12.981  65.787  0.00  0.00    +0.153 C 
ATOM      6  C   UNL     1     -11.645  13.184  66.377  0.00  0.00    +0.060 C 
ATOM      7  O   UNL     1      -9.468  12.035  65.887  0.00  0.00    -0.296 OA
ATOM      8  C   UNL     1     -11.476  14.852  66.598  0.00  0.00    +0.035 C 
ATOM      9  C   UNL     1     -10.411  14.939  67.808  0.00  0.00    +0.008 C 
ATOM     10  C   UNL     1      -9.967  16.379  67.552  0.00  0.00    +0.065 C 
ATOM     11  O   UNL     1      -8.661  16.887  65.759  0.00  0.00    -0.189 OA
ENDROOT
BRANCH   1  12
ATOM     12  C   UNL     1     -10.335  18.419  66.329  0.00  0.00    +0.312 C 
ATOM     13  F   UNL     1     -10.916  18.885  67.445  0.00  0.00    -0.199 F 
ATOM     14  F   UNL     1     -10.952  18.880  65.217  0.00  0.00    -0.199 F 
BRANCH  12  15
ATOM     15  C   UNL     1      -8.978  19.118  66.388  0.00  0.00    +0.072 C 
BRANCH  15  16
ATOM     16  C   UNL     1      -8.779  19.986  67.583  0.00  0.00    +0.006 C 
BRANCH  16  18
ATOM     17  C   UNL     1      -7.463  19.388  68.842  0.00  0.00    +0.000 C 
ATOM     18  C   UNL     1      -7.653  19.307  68.369  0.00  0.00    +0.000 C 
ENDBRANCH  16  18
ENDBRANCH  15  16
ENDBRANCH  12  15
ENDBRANCH   1  12
BRANCH   6  19
ATOM     19  C   UNL     1     -11.497  12.859  67.939  0.00  0.00    +0.007 C 
BRANCH  19  20
ATOM     20  C   UNL     1     -11.658  11.770  68.682  0.00  0.00    +0.000 C 
BRANCH  20  21
ATOM     21  C   UNL     1     -12.135  12.295  70.056  0.00  0.00    +0.000 C 
BRANCH  21  22
ATOM     22  C   UNL     1     -12.257  11.286  71.099  0.00  0.00    +0.001 C 
BRANCH  22  23
ATOM     23  C   UNL     1     -13.180  10.139  70.902  0.00  0.00    +0.012 C 
BRANCH  23  24
ATOM     24  C   UNL     1     -13.268   9.232  72.092  0.00  0.00    +0.114 C 
BRANCH  24  25
ATOM     25  C   UNL     1     -14.109   8.037  71.872  0.00  0.00    +0.365 C 
ATOM     26  O   UNL     1     -15.426   8.058  72.272  0.00  0.00    -0.246 OA
ATOM     27  O   UNL     1     -13.619   6.942  71.531  0.00  0.00    -0.246 OA
ENDBRANCH  24  25
ENDBRANCH  23  24
ENDBRANCH  22  23
ENDBRANCH  21  22
ENDBRANCH  20  21
ENDBRANCH  19  20
ENDBRANCH   6  19
TORSDOF 11
ENDMDL
MODEL 5
REMARK VINA RESULT:      -6.0      3.311      6.888
REMARK  Name = 
REMARK  11 active torsions:
REMARK  status: ('A' for Active; 'I' for Inactive)
REMARK    1  A    between atoms: C_2  and  C_3
REMARK    2  A    between atoms: C_3  and  C_4
REMARK    3  A    between atoms: C_4  and  C_5
REMARK    4  A    between atoms: C_5  and  C_8
REMARK    5  A    between atoms: C_17  and  C_18
REMARK    6  A    between atoms: C_18  and  C_19
REMARK    7  A    between atoms: C_19  and  C_20
REMARK    8  A    between atoms: C_20  and  C_21
REMARK    9  A    between atoms: C_21  and  C_22
REMARK   10  A    between atoms: C_22  and  C_23
REMARK   11  A    between atoms: C_23  and  C_24
REMARK                            x       y       z     vdW  Elec       q    Type
REMARK                         _______ _______ _______ _____ _____    ______ ____
ROOT
ATOM      1  C   UNL     1     -11.251  14.415  66.124  0.00  0.00    +0.275 C 
ATOM      2  O   UNL     1     -11.646  15.072  67.319  0.00  0.00    -0.330 OA
ATOM      3  C   UNL     1     -10.183  15.276  67.640  0.00  0.00    +0.126 C 
ATOM      4  C   UNL     1     -10.243  15.970  69.114  0.00  0.00    +0.094 C 
ATOM      5  C   UNL     1      -8.831  16.363  68.681  0.00  0.00    +0.153 C 
ATOM      6  C   UNL     1      -9.346  17.642  67.871  0.00  0.00    +0.060 C 
ATOM      7  O   UNL     1      -7.791  16.212  69.226  0.00  0.00    -0.296 OA
ATOM      8  C   UNL     1     -10.291  16.749  66.789  0.00  0.00    +0.035 C 
ATOM      9  C   UNL     1      -9.181  15.983  65.905  0.00  0.00    +0.008 C 
ATOM     10  C   UNL     1     -10.100  14.880  65.380  0.00  0.00    +0.065 C 
ATOM     11  O   UNL     1     -10.812  13.215  66.757  0.00  0.00    -0.189 OA
ENDROOT
BRANCH   1  12
ATOM     12  C   UNL     1     -12.348  14.041  65.198  0.00  0.00    +0.312 C 
ATOM     13  F   UNL     1     -12.345  14.530  63.948  0.00  0.00    -0.199 F 
ATOM     14  F   UNL     1     -13.568  14.153  65.772  0.00  0.00    -0.199 F 
BRANCH  12  15
ATOM     15  C   UNL     1     -12.132  12.552  64.934  0.00  0.00    +0.072 C 
BRANCH  15  16
ATOM     16  C   UNL     1     -11.953  12.197  63.499  0.00  0.00    +0.006 C 
BRANCH  16  18
ATOM     17  C   UNL     1     -10.329  11.208  63.747  0.00  0.00    +0.000 C 
ATOM     18  C   UNL     1     -10.571  11.540  63.434  0.00  0.00    +0.000 C 
ENDBRANCH  16  18
ENDBRANCH  15  16
ENDBRANCH  12  15
ENDBRANCH   1  12
BRANCH   6  19
ATOM     19  C   UNL     1      -8.194  17.923  66.793  0.00  0.00    +0.007 C 
BRANCH  19  20
ATOM     20  C   UNL     1      -7.277  18.870  66.636  0.00  0.00    +0.000 C 
BRANCH  20  21
ATOM     21  C   UNL     1      -7.514  19.848  67.809  0.00  0.00    +0.000 C 
BRANCH  21  22
ATOM     22  C   UNL     1      -6.318  20.501  68.326  0.00  0.00    +0.001 C 
BRANCH  22  23
ATOM     23  C   UNL     1      -5.456  19.783  69.299  0.00  0.00    +0.012 C 
BRANCH  23  24
ATOM     24  C   UNL     1      -5.032  20.629  70.461  0.00  0.00    +0.114 C 
BRANCH  24  25
ATOM     25  C   UNL     1      -4.569  19.852  71.629  0.00  0.00    +0.365 C 
ATOM     26  O   UNL     1      -5.243  18.706  71.986  0.00  0.00    -0.246 OA
ATOM     27  O   UNL     1      -3.722  20.304  72.426  0.00  0.00    -0.246 OA
ENDBRANCH  24  25
ENDBRANCH  23  24
ENDBRANCH  22  23
ENDBRANCH  21  22
ENDBRANCH  20  21
ENDBRANCH  19  20
ENDBRANCH   6  19
TORSDOF 11
ENDMDL
MODEL 6
REMARK VINA RESULT:      -6.0      2.666      4.366
REMARK  Name = 
REMARK  11 active torsions:
REMARK  status: ('A' for Active; 'I' for Inactive)
REMARK    1  A    between atoms: C_2  and  C_3
REMARK    2  A    between atoms: C_3  and  C_4
REMARK    3  A    between atoms: C_4  and  C_5
REMARK    4  A    between atoms: C_5  and  C_8
REMARK    5  A    between atoms: C_17  and  C_18
REMARK    6  A    between atoms: C_18  and  C_19
REMARK    7  A    between atoms: C_19  and  C_20
REMARK    8  A    between atoms: C_20  and  C_21
REMARK    9  A    between atoms: C_21  and  C_22
REMARK   10  A    between atoms: C_22  and  C_23
REMARK   11  A    between atoms: C_23  and  C_24
REMARK                            x       y       z     vdW  Elec       q    Type
REMARK                         _______ _______ _______ _____ _____    ______ ____
ROOT
ATOM      1  C   UNL     1     -10.227  15.742  66.610  0.00  0.00    +0.275 C 
ATOM      2  O   UNL     1     -11.488  15.393  66.059  0.00  0.00    -0.330 OA
ATOM      3  C   UNL     1     -10.789  14.334  65.239  0.00  0.00    +0.126 C 
ATOM      4  C   UNL     1     -12.004  13.739  64.330  0.00  0.00    +0.094 C 
ATOM      5  C   UNL     1     -10.993  12.598  64.219  0.00  0.00    +0.153 C 
ATOM      6  C   UNL     1     -11.470  11.932  65.593  0.00  0.00    +0.060 C 
ATOM      7  O   UNL     1     -10.541  12.063  63.265  0.00  0.00    -0.296 OA
ATOM      8  C   UNL     1     -11.061  13.269  66.544  0.00  0.00    +0.035 C 
ATOM      9  C   UNL     1      -9.448  13.258  66.489  0.00  0.00    +0.008 C 
ATOM     10  C   UNL     1      -9.245  14.717  66.894  0.00  0.00    +0.065 C 
ATOM     11  O   UNL     1      -9.736  16.400  65.444  0.00  0.00    -0.189 OA
ENDROOT
BRANCH   1  12
ATOM     12  C   UNL     1     -10.252  16.749  67.700  0.00  0.00    +0.312 C 
ATOM     13  F   UNL     1     -10.668  17.996  67.429  0.00  0.00    -0.199 F 
ATOM     14  F   UNL     1      -9.110  16.753  68.425  0.00  0.00    -0.199 F 
BRANCH  12  15
ATOM     15  C   UNL     1     -11.356  16.266  68.638  0.00  0.00    +0.072 C 
BRANCH  15  16
ATOM     16  C   UNL     1     -10.866  15.617  69.887  0.00  0.00    +0.006 C 
BRANCH  16  18
ATOM     17  C   UNL     1     -11.913  14.020  70.066  0.00  0.00    +0.000 C 
ATOM     18  C   UNL     1     -11.897  14.523  70.183  0.00  0.00    +0.000 C 
ENDBRANCH  16  18
ENDBRANCH  15  16
ENDBRANCH  12  15
ENDBRANCH   1  12
BRANCH   6  19
ATOM     19  C   UNL     1     -10.208  11.072  66.078  0.00  0.00    +0.007 C 
BRANCH  19  20
ATOM     20  C   UNL     1      -9.946   9.773  66.167  0.00  0.00    +0.000 C 
BRANCH  20  21
ATOM     21  C   UNL     1     -10.673   9.310  67.451  0.00  0.00    +0.000 C 
BRANCH  21  22
ATOM     22  C   UNL     1     -10.455  10.144  68.625  0.00  0.00    +0.001 C 
BRANCH  22  23
ATOM     23  C   UNL     1     -11.620  10.590  69.431  0.00  0.00    +0.012 C 
BRANCH  23  24
ATOM     24  C   UNL     1     -11.621  10.050  70.830  0.00  0.00    +0.114 C 
BRANCH  24  25
ATOM     25  C   UNL     1     -12.906  10.221  71.536  0.00  0.00    +0.365 C 
ATOM     26  O   UNL     1     -13.256  11.467  72.007  0.00  0.00    -0.246 OA
ATOM     27  O   UNL     1     -13.589   9.244  71.906  0.00  0.00    -0.246 OA
ENDBRANCH  24  25
ENDBRANCH  23  24
ENDBRANCH  22  23
ENDBRANCH  21  22
ENDBRANCH  20  21
ENDBRANCH  19  20
ENDBRANCH   6  19
TORSDOF 11
ENDMDL
MODEL 7
REMARK VINA RESULT:      -6.0      2.652      5.114
REMARK  Name = 
REMARK  11 active torsions:
REMARK  status: ('A' for Active; 'I' for Inactive)
REMARK    1  A    between atoms: C_2  and  C_3
REMARK    2  A    between atoms: C_3  and  C_4
REMARK    3  A    between atoms: C_4  and  C_5
REMARK    4  A    between atoms: C_5  and  C_8
REMARK    5  A    between atoms: C_17  and  C_18
REMARK    6  A    between atoms: C_18  and  C_19
REMARK    7  A    between atoms: C_19  and  C_20
REMARK    8  A    between atoms: C_20  and  C_21
REMARK    9  A    between atoms: C_21  and  C_22
REMARK   10  A    between atoms: C_22  and  C_23
REMARK   11  A    between atoms: C_23  and  C_24
REMARK                            x       y       z     vdW  Elec       q    Type
REMARK                         _______ _______ _______ _____ _____    ______ ____
ROOT
ATOM      1  C   UNL     1      -9.857  18.501  67.486  0.00  0.00    +0.275 C 
ATOM      2  O   UNL     1      -9.925  18.066  68.836  0.00  0.00    -0.330 OA
ATOM      3  C   UNL     1     -10.673  16.842  68.358  0.00  0.00    +0.126 C 
ATOM      4  C   UNL     1     -11.036  16.089  69.757  0.00  0.00    +0.094 C 
ATOM      5  C   UNL     1     -11.198  14.932  68.771  0.00  0.00    +0.153 C 
ATOM      6  C   UNL     1      -9.637  14.585  68.794  0.00  0.00    +0.060 C 
ATOM      7  O   UNL     1     -12.108  14.197  68.593  0.00  0.00    -0.296 OA
ATOM      8  C   UNL     1      -9.153  16.088  68.187  0.00  0.00    +0.035 C 
ATOM      9  C   UNL     1      -9.678  16.035  66.662  0.00  0.00    +0.008 C 
ATOM     10  C   UNL     1      -9.667  17.544  66.417  0.00  0.00    +0.065 C 
ATOM     11  O   UNL     1     -11.227  18.885  67.388  0.00  0.00    -0.189 OA
ENDROOT
BRANCH   1  12
ATOM     12  C   UNL     1      -9.047  19.719  67.238  0.00  0.00    +0.312 C 
ATOM     13  F   UNL     1      -9.607  20.926  67.413  0.00  0.00    -0.199 F 
ATOM     14  F   UNL     1      -8.361  19.654  66.074  0.00  0.00    -0.199 F 
BRANCH  12  15
ATOM     15  C   UNL     1      -8.002  19.713  68.352  0.00  0.00    +0.072 C 
BRANCH  15  16
ATOM     16  C   UNL     1      -6.694  19.110  67.972  0.00  0.00    +0.006 C 
BRANCH  16  18
ATOM     17  C   UNL     1      -6.153  17.799  69.262  0.00  0.00    +0.000 C 
ATOM     18  C   UNL     1      -6.272  18.298  69.200  0.00  0.00    +0.000 C 
ENDBRANCH  16  18
ENDBRANCH  15  16
ENDBRANCH  12  15
ENDBRANCH   1  12
BRANCH   6  19
ATOM     19  C   UNL     1      -9.377  13.826  67.407  0.00  0.00    +0.007 C 
BRANCH  19  20
ATOM     20  C   UNL     1      -8.766  12.698  67.064  0.00  0.00    +0.000 C 
BRANCH  20  21
ATOM     21  C   UNL     1      -9.846  11.602  67.212  0.00  0.00    +0.000 C 
BRANCH  21  22
ATOM     22  C   UNL     1     -10.925  11.656  66.234  0.00  0.00    +0.001 C 
BRANCH  22  23
ATOM     23  C   UNL     1     -10.638  11.339  64.812  0.00  0.00    +0.012 C 
BRANCH  23  24
ATOM     24  C   UNL     1     -10.757  12.523  63.900  0.00  0.00    +0.114 C 
BRANCH  24  25
ATOM     25  C   UNL     1     -12.147  12.850  63.523  0.00  0.00    +0.365 C 
ATOM     26  O   UNL     1     -12.583  14.152  63.621  0.00  0.00    -0.246 OA
ATOM     27  O   UNL     1     -13.000  11.962  63.321  0.00  0.00    -0.246 OA
ENDBRANCH  24  25
ENDBRANCH  23  24
ENDBRANCH  22  23
ENDBRANCH  21  22
ENDBRANCH  20  21
ENDBRANCH  19  20
ENDBRANCH   6  19
TORSDOF 11
ENDMDL
MODEL 8
REMARK VINA RESULT:      -5.8      2.838      3.714
REMARK  Name = 
REMARK  11 active torsions:
REMARK  status: ('A' for Active; 'I' for Inactive)
REMARK    1  A    between atoms: C_2  and  C_3
REMARK    2  A    between atoms: C_3  and  C_4
REMARK    3  A    between atoms: C_4  and  C_5
REMARK    4  A    between atoms: C_5  and  C_8
REMARK    5  A    between atoms: C_17  and  C_18
REMARK    6  A    between atoms: C_18  and  C_19
REMARK    7  A    between atoms: C_19  and  C_20
REMARK    8  A    between atoms: C_20  and  C_21
REMARK    9  A    between atoms: C_21  and  C_22
REMARK   10  A    between atoms: C_22  and  C_23
REMARK   11  A    between atoms: C_23  and  C_24
REMARK                            x       y       z     vdW  Elec       q    Type
REMARK                         _______ _______ _______ _____ _____    ______ ____
ROOT
ATOM      1  C   UNL     1      -9.509  15.902  66.986  0.00  0.00    +0.275 C 
ATOM      2  O   UNL     1     -10.859  15.785  66.562  0.00  0.00    -0.330 OA
ATOM      3  C   UNL     1     -10.423  14.689  65.618  0.00  0.00    +0.126 C 
ATOM      4  C   UNL     1     -11.803  14.347  64.821  0.00  0.00    +0.094 C 
ATOM      5  C   UNL     1     -11.001  13.076  64.541  0.00  0.00    +0.153 C 
ATOM      6  C   UNL     1     -11.432  12.400  65.924  0.00  0.00    +0.060 C 
ATOM      7  O   UNL     1     -10.738  12.544  63.517  0.00  0.00    -0.296 OA
ATOM      8  C   UNL     1     -10.723  13.594  66.889  0.00  0.00    +0.035 C 
ATOM      9  C   UNL     1      -9.146  13.343  66.654  0.00  0.00    +0.008 C 
ATOM     10  C   UNL     1      -8.676  14.725  67.107  0.00  0.00    +0.065 C 
ATOM     11  O   UNL     1      -9.043  16.556  65.807  0.00  0.00    -0.189 OA
ENDROOT
BRANCH   1  12
ATOM     12  C   UNL     1      -9.264  16.827  68.120  0.00  0.00    +0.312 C 
ATOM     13  F   UNL     1      -8.182  17.621  68.096  0.00  0.00    -0.199 F 
ATOM     14  F   UNL     1      -9.407  16.219  69.320  0.00  0.00    -0.199 F 
BRANCH  12  15
ATOM     15  C   UNL     1     -10.388  17.855  68.022  0.00  0.00    +0.072 C 
BRANCH  15  16
ATOM     16  C   UNL     1      -9.945  19.272  68.147  0.00  0.00    +0.006 C 
BRANCH  16  18
ATOM     17  C   UNL     1     -10.522  19.740  66.380  0.00  0.00    +0.000 C 
ATOM     18  C   UNL     1     -10.214  19.883  66.769  0.00  0.00    +0.000 C 
ENDBRANCH  16  18
ENDBRANCH  15  16
ENDBRANCH  12  15
ENDBRANCH   1  12
BRANCH   6  19
ATOM     19  C   UNL     1     -10.278  11.328  66.222  0.00  0.00    +0.007 C 
BRANCH  19  20
ATOM     20  C   UNL     1     -10.258  10.019  66.436  0.00  0.00    +0.000 C 
BRANCH  20  21
ATOM     21  C   UNL     1     -11.016   9.824  67.769  0.00  0.00    +0.000 C 
BRANCH  21  22
ATOM     22  C   UNL     1     -10.176   9.716  68.954  0.00  0.00    +0.001 C 
BRANCH  22  23
ATOM     23  C   UNL     1     -10.719  10.122  70.275  0.00  0.00    +0.012 C 
BRANCH  23  24
ATOM     24  C   UNL     1     -11.864  11.086  70.180  0.00  0.00    +0.114 C 
BRANCH  24  25
ATOM     25  C   UNL     1     -12.931  10.847  71.173  0.00  0.00    +0.365 C 
ATOM     26  O   UNL     1     -13.265  11.848  72.057  0.00  0.00    -0.246 OA
ATOM     27  O   UNL     1     -13.393   9.707  71.380  0.00  0.00    -0.246 OA
ENDBRANCH  24  25
ENDBRANCH  23  24
ENDBRANCH  22  23
ENDBRANCH  21  22
ENDBRANCH  20  21
ENDBRANCH  19  20
ENDBRANCH   6  19
TORSDOF 11
ENDMDL
MODEL 9
REMARK VINA RESULT:      -5.8      2.855      6.600
REMARK  Name = 
REMARK  11 active torsions:
REMARK  status: ('A' for Active; 'I' for Inactive)
REMARK    1  A    between atoms: C_2  and  C_3
REMARK    2  A    between atoms: C_3  and  C_4
REMARK    3  A    between atoms: C_4  and  C_5
REMARK    4  A    between atoms: C_5  and  C_8
REMARK    5  A    between atoms: C_17  and  C_18
REMARK    6  A    between atoms: C_18  and  C_19
REMARK    7  A    between atoms: C_19  and  C_20
REMARK    8  A    between atoms: C_20  and  C_21
REMARK    9  A    between atoms: C_21  and  C_22
REMARK   10  A    between atoms: C_22  and  C_23
REMARK   11  A    between atoms: C_23  and  C_24
REMARK                            x       y       z     vdW  Elec       q    Type
REMARK                         _______ _______ _______ _____ _____    ______ ____
ROOT
ATOM      1  C   UNL     1     -11.608  13.446  66.013  0.00  0.00    +0.275 C 
ATOM      2  O   UNL     1     -12.389  14.431  66.674  0.00  0.00    -0.330 OA
ATOM      3  C   UNL     1     -11.435  14.343  67.842  0.00  0.00    +0.126 C 
ATOM      4  C   UNL     1     -12.121  15.344  68.930  0.00  0.00    +0.094 C 
ATOM      5  C   UNL     1     -10.696  15.277  69.478  0.00  0.00    +0.153 C 
ATOM      6  C   UNL     1     -10.176  16.426  68.495  0.00  0.00    +0.060 C 
ATOM      7  O   UNL     1     -10.302  15.007  70.560  0.00  0.00    -0.296 OA
ATOM      8  C   UNL     1     -10.526  15.568  67.081  0.00  0.00    +0.035 C 
ATOM      9  C   UNL     1      -9.438  14.377  67.115  0.00  0.00    +0.008 C 
ATOM     10  C   UNL     1     -10.168  13.440  66.154  0.00  0.00    +0.065 C 
ATOM     11  O   UNL     1     -12.055  12.350  66.809  0.00  0.00    -0.189 OA
ENDROOT
BRANCH   1  12
ATOM     12  C   UNL     1     -11.992  13.150  64.611  0.00  0.00    +0.312 C 
ATOM     13  F   UNL     1     -12.278  14.166  63.782  0.00  0.00    -0.199 F 
ATOM     14  F   UNL     1     -12.915  12.165  64.527  0.00  0.00    -0.199 F 
BRANCH  12  15
ATOM     15  C   UNL     1     -10.717  12.599  63.976  0.00  0.00    +0.072 C 
BRANCH  15  16
ATOM     16  C   UNL     1     -10.830  11.203  63.469  0.00  0.00    +0.006 C 
BRANCH  16  18
ATOM     17  C   UNL     1      -9.051  11.031  62.776  0.00  0.00    +0.000 C 
ATOM     18  C   UNL     1      -9.551  10.983  62.656  0.00  0.00    +0.000 C 
ENDBRANCH  16  18
ENDBRANCH  15  16
ENDBRANCH  12  15
ENDBRANCH   1  12
BRANCH   6  19
ATOM     19  C   UNL     1      -8.598  16.170  68.382  0.00  0.00    +0.007 C 
BRANCH  19  20
ATOM     20  C   UNL     1      -7.522  16.748  68.902  0.00  0.00    +0.000 C 
BRANCH  20  21
ATOM     21  C   UNL     1      -7.215  17.935  67.960  0.00  0.00    +0.000 C 
BRANCH  21  22
ATOM     22  C   UNL     1      -7.676  19.236  68.428  0.00  0.00    +0.001 C 
BRANCH  22  23
ATOM     23  C   UNL     1      -8.396  20.136  67.491  0.00  0.00    +0.012 C 
BRANCH  23  24
ATOM     24  C   UNL     1      -8.898  19.442  66.261  0.00  0.00    +0.114 C 
BRANCH  24  25
ATOM     25  C   UNL     1     -10.367  19.294  66.216  0.00  0.00    +0.365 C 
ATOM     26  O   UNL     1     -11.094  19.435  67.376  0.00  0.00    -0.246 OA
ATOM     27  O   UNL     1     -10.952  18.841  65.211  0.00  0.00    -0.246 OA
ENDBRANCH  24  25
ENDBRANCH  23  24
ENDBRANCH  22  23
ENDBRANCH  21  22
ENDBRANCH  20  21
ENDBRANCH  19  20
ENDBRANCH   6  19
TORSDOF 11
ENDMDL
