MODEL 1
REMARK VINA RESULT:      -8.1      0.000      0.000
REMARK  Name = 
REMARK  1 active torsions:
REMARK  status: ('A' for Active; 'I' for Inactive)
REMARK    1  A    between atoms: C_18  and  C_19
REMARK                            x       y       z     vdW  Elec       q    Type
REMARK                         _______ _______ _______ _____ _____    ______ ____
ROOT
ATOM      1  C   UNL     1      -7.188  19.789  66.867  0.00  0.00    +0.115 C 
ATOM      2  N   UNL     1      -7.348  18.351  67.074  0.00  0.00    -0.268 N 
ATOM      3  C   UNL     1      -7.954  18.001  68.330  0.00  0.00    +0.244 C 
ATOM      4  O   UNL     1      -8.838  18.685  68.830  0.00  0.00    -0.273 OA
ATOM      5  C   UNL     1      -8.058  16.372  68.508  0.00  0.00    +0.157 C 
ATOM      6  C   UNL     1      -9.155  16.461  69.770  0.00  0.00    +0.057 C 
ATOM      7  C   UNL     1     -10.126  15.416  69.518  0.00  0.00    -0.003 A 
ATOM      8  C   UNL     1     -10.249  14.531  68.531  0.00  0.00    +0.077 A 
ATOM      9  C   UNL     1      -9.212  14.648  67.266  0.00  0.00    +0.138 C 
ATOM     10  N   UNL     1     -10.787  13.418  69.012  0.00  0.00    -0.248 NA
ATOM     11  C   UNL     1     -11.658  13.876  69.949  0.00  0.00    +0.081 A 
ATOM     12  C   UNL     1     -12.728  13.331  70.646  0.00  0.00    +0.019 A 
ATOM     13  C   UNL     1     -13.414  14.071  71.602  0.00  0.00    +0.002 A 
ATOM     14  C   UNL     1     -13.180  15.421  71.743  0.00  0.00    +0.000 A 
ATOM     15  C   UNL     1     -11.985  15.886  71.221  0.00  0.00    +0.001 A 
ATOM     16  C   UNL     1     -11.238  15.153  70.308  0.00  0.00    +0.015 A 
ATOM     17  N   UNL     1      -9.213  16.261  67.397  0.00  0.00    -0.264 N 
ATOM     18  C   UNL     1      -8.762  16.724  66.113  0.00  0.00    +0.247 C 
ATOM     19  O   UNL     1      -9.752  16.755  65.355  0.00  0.00    -0.273 OA
ATOM     20  C   UNL     1      -7.566  17.544  65.873  0.00  0.00    +0.179 C 
ENDROOT
BRANCH   9  21
ATOM     21  C   UNL     1     -10.385  14.617  66.101  0.00  0.00    +0.005 A 
ATOM     22  C   UNL     1     -10.212  13.340  65.534  0.00  0.00    +0.038 A 
ATOM     23  C   UNL     1     -11.171  12.905  64.629  0.00  0.00    +0.176 A 
ATOM     24  O   UNL     1     -11.186  12.385  63.337  0.00  0.00    -0.435 OA
ATOM     25  C   UNL     1     -12.468  11.807  63.172  0.00  0.00    +0.429 C 
ATOM     26  O   UNL     1     -13.195  12.094  64.366  0.00  0.00    -0.435 OA
ATOM     27  C   UNL     1     -12.478  13.032  65.087  0.00  0.00    +0.176 A 
ATOM     28  C   UNL     1     -12.760  14.076  65.953  0.00  0.00    +0.040 A 
ATOM     29  C   UNL     1     -11.685  14.668  66.604  0.00  0.00    +0.001 A 
ENDBRANCH   9  21
TORSDOF 1
ENDMDL
MODEL 2
REMARK VINA RESULT:      -7.5      4.364      5.678
REMARK  Name = 
REMARK  1 active torsions:
REMARK  status: ('A' for Active; 'I' for Inactive)
REMARK    1  A    between atoms: C_18  and  C_19
REMARK                            x       y       z     vdW  Elec       q    Type
REMARK                         _______ _______ _______ _____ _____    ______ ____
ROOT
ATOM      1  C   UNL     1     -11.918  14.834  64.492  0.00  0.00    +0.115 C 
ATOM      2  N   UNL     1     -10.945  14.058  65.256  0.00  0.00    -0.268 N 
ATOM      3  C   UNL     1     -11.285  13.890  66.643  0.00  0.00    +0.244 C 
ATOM      4  O   UNL     1     -12.445  13.746  67.008  0.00  0.00    -0.273 OA
ATOM      5  C   UNL     1     -10.124  13.048  67.444  0.00  0.00    +0.157 C 
ATOM      6  C   UNL     1     -11.101  12.727  68.765  0.00  0.00    +0.057 C 
ATOM      7  C   UNL     1     -10.832  11.349  69.125  0.00  0.00    -0.003 A 
ATOM      8  C   UNL     1     -10.032  10.428  68.592  0.00  0.00    +0.077 A 
ATOM      9  C   UNL     1      -9.250  10.807  67.201  0.00  0.00    +0.138 C 
ATOM     10  N   UNL     1      -9.591   9.630  69.555  0.00  0.00    -0.248 NA
ATOM     11  C   UNL     1     -10.653   9.547  70.399  0.00  0.00    +0.081 A 
ATOM     12  C   UNL     1     -11.014   8.709  71.445  0.00  0.00    +0.019 A 
ATOM     13  C   UNL     1     -12.186   8.920  72.162  0.00  0.00    +0.002 A 
ATOM     14  C   UNL     1     -13.115   9.841  71.731  0.00  0.00    +0.000 A 
ATOM     15  C   UNL     1     -12.650  10.802  70.848  0.00  0.00    +0.001 A 
ATOM     16  C   UNL     1     -11.455  10.658  70.156  0.00  0.00    +0.015 A 
ATOM     17  N   UNL     1     -10.521  11.676  66.707  0.00  0.00    -0.264 N 
ATOM     18  C   UNL     1     -10.357  11.772  65.282  0.00  0.00    +0.247 C 
ATOM     19  O   UNL     1     -10.833  10.735  64.779  0.00  0.00    -0.273 OA
ATOM     20  C   UNL     1     -10.220  13.021  64.520  0.00  0.00    +0.179 C 
ENDROOT
BRANCH   9  21
ATOM     21  C   UNL     1      -9.710   9.442  66.389  0.00  0.00    +0.005 A 
ATOM     22  C   UNL     1      -8.492   8.747  66.256  0.00  0.00    +0.038 A 
ATOM     23  C   UNL     1      -8.545   7.447  65.771  0.00  0.00    +0.176 A 
ATOM     24  O   UNL     1      -7.929   6.715  64.760  0.00  0.00    -0.435 OA
ATOM     25  C   UNL     1      -8.170   5.354  65.071  0.00  0.00    +0.429 C 
ATOM     26  O   UNL     1      -9.007   5.349  66.227  0.00  0.00    -0.435 OA
ATOM     27  C   UNL     1      -9.468   6.638  66.426  0.00  0.00    +0.176 A 
ATOM     28  C   UNL     1     -10.607   7.239  66.936  0.00  0.00    +0.040 A 
ATOM     29  C   UNL     1     -10.573   8.618  67.109  0.00  0.00    +0.001 A 
ENDBRANCH   9  21
TORSDOF 1
ENDMDL
MODEL 3
REMARK VINA RESULT:      -7.4      2.644      5.607
REMARK  Name = 
REMARK  1 active torsions:
REMARK  status: ('A' for Active; 'I' for Inactive)
REMARK    1  A    between atoms: C_18  and  C_19
REMARK                            x       y       z     vdW  Elec       q    Type
REMARK                         _______ _______ _______ _____ _____    ______ ____
ROOT
ATOM      1  C   UNL     1      -8.629  18.966  66.464  0.00  0.00    +0.115 C 
ATOM      2  N   UNL     1      -9.748  18.031  66.539  0.00  0.00    -0.268 N 
ATOM      3  C   UNL     1      -9.529  16.794  65.838  0.00  0.00    +0.244 C 
ATOM      4  O   UNL     1      -8.427  16.262  65.802  0.00  0.00    -0.273 OA
ATOM      5  C   UNL     1     -10.844  15.816  65.930  0.00  0.00    +0.157 C 
ATOM      6  C   UNL     1     -10.012  14.452  65.432  0.00  0.00    +0.057 C 
ATOM      7  C   UNL     1     -10.489  13.373  66.274  0.00  0.00    -0.003 A 
ATOM      8  C   UNL     1     -11.369  13.344  67.273  0.00  0.00    +0.077 A 
ATOM      9  C   UNL     1     -11.996  14.771  67.782  0.00  0.00    +0.138 C 
ATOM     10  N   UNL     1     -11.978  12.165  67.278  0.00  0.00    -0.248 NA
ATOM     11  C   UNL     1     -10.997  11.308  66.892  0.00  0.00    +0.081 A 
ATOM     12  C   UNL     1     -10.824   9.931  66.929  0.00  0.00    +0.019 A 
ATOM     13  C   UNL     1      -9.686   9.335  66.399  0.00  0.00    +0.002 A 
ATOM     14  C   UNL     1      -8.614  10.104  66.002  0.00  0.00    +0.000 A 
ATOM     15  C   UNL     1      -8.883  11.441  65.761  0.00  0.00    +0.001 A 
ATOM     16  C   UNL     1     -10.037  12.060  66.222  0.00  0.00    +0.015 A 
ATOM     17  N   UNL     1     -10.588  15.511  67.487  0.00  0.00    -0.264 N 
ATOM     18  C   UNL     1     -10.641  16.709  68.279  0.00  0.00    +0.247 C 
ATOM     19  O   UNL     1     -10.277  16.412  69.434  0.00  0.00    -0.273 OA
ATOM     20  C   UNL     1     -10.555  18.081  67.759  0.00  0.00    +0.179 C 
ENDROOT
BRANCH   9  21
ATOM     21  C   UNL     1     -11.671  14.520  69.384  0.00  0.00    +0.005 A 
ATOM     22  C   UNL     1     -12.550  15.422  70.013  0.00  0.00    +0.038 A 
ATOM     23  C   UNL     1     -12.671  15.342  71.394  0.00  0.00    +0.176 A 
ATOM     24  O   UNL     1     -12.585  16.217  72.474  0.00  0.00    -0.435 OA
ATOM     25  C   UNL     1     -13.192  15.543  73.562  0.00  0.00    +0.429 C 
ATOM     26  O   UNL     1     -13.537  14.243  73.087  0.00  0.00    -0.435 OA
ATOM     27  C   UNL     1     -12.916  14.056  71.864  0.00  0.00    +0.176 A 
ATOM     28  C   UNL     1     -12.389  12.995  71.148  0.00  0.00    +0.040 A 
ATOM     29  C   UNL     1     -12.003  13.244  69.836  0.00  0.00    +0.001 A 
ENDBRANCH   9  21
TORSDOF 1
ENDMDL
MODEL 4
REMARK VINA RESULT:      -7.2      2.633      5.607
REMARK  Name = 
REMARK  1 active torsions:
REMARK  status: ('A' for Active; 'I' for Inactive)
REMARK    1  A    between atoms: C_18  and  C_19
REMARK                            x       y       z     vdW  Elec       q    Type
REMARK                         _______ _______ _______ _____ _____    ______ ____
ROOT
ATOM      1  C   UNL     1      -8.171   8.388  67.166  0.00  0.00    +0.115 C 
ATOM      2  N   UNL     1      -8.972   9.553  66.798  0.00  0.00    -0.268 N 
ATOM      3  C   UNL     1     -10.050   9.836  67.706  0.00  0.00    +0.244 C 
ATOM      4  O   UNL     1      -9.939   9.658  68.912  0.00  0.00    -0.273 OA
ATOM      5  C   UNL     1     -10.929  11.128  67.204  0.00  0.00    +0.157 C 
ATOM      6  C   UNL     1     -11.687  11.337  68.682  0.00  0.00    +0.057 C 
ATOM      7  C   UNL     1     -11.714  12.768  68.909  0.00  0.00    -0.003 A 
ATOM      8  C   UNL     1     -11.252  13.794  68.196  0.00  0.00    +0.077 A 
ATOM      9  C   UNL     1     -10.381  13.457  66.848  0.00  0.00    +0.138 C 
ATOM     10  N   UNL     1     -12.042  14.842  68.386  0.00  0.00    -0.248 NA
ATOM     11  C   UNL     1     -12.410  14.721  69.688  0.00  0.00    +0.081 A 
ATOM     12  C   UNL     1     -12.987  15.562  70.629  0.00  0.00    +0.019 A 
ATOM     13  C   UNL     1     -13.287  15.111  71.909  0.00  0.00    +0.002 A 
ATOM     14  C   UNL     1     -12.841  13.881  72.340  0.00  0.00    +0.000 A 
ATOM     15  C   UNL     1     -12.480  12.986  71.346  0.00  0.00    +0.001 A 
ATOM     16  C   UNL     1     -12.230  13.387  70.041  0.00  0.00    +0.015 A 
ATOM     17  N   UNL     1      -9.746  12.154  67.567  0.00  0.00    -0.264 N 
ATOM     18  C   UNL     1      -8.553  11.876  66.816  0.00  0.00    +0.247 C 
ATOM     19  O   UNL     1      -7.647  12.604  67.268  0.00  0.00    -0.273 OA
ATOM     20  C   UNL     1      -8.268  10.627  66.095  0.00  0.00    +0.179 C 
ENDROOT
BRANCH   9  21
ATOM     21  C   UNL     1      -9.111  14.443  67.235  0.00  0.00    +0.005 A 
ATOM     22  C   UNL     1      -9.291  15.525  66.352  0.00  0.00    +0.038 A 
ATOM     23  C   UNL     1      -8.489  16.642  66.535  0.00  0.00    +0.176 A 
ATOM     24  O   UNL     1      -7.650  17.430  65.750  0.00  0.00    -0.435 OA
ATOM     25  C   UNL     1      -7.451  18.625  66.483  0.00  0.00    +0.429 C 
ATOM     26  O   UNL     1      -8.124  18.450  67.729  0.00  0.00    -0.435 OA
ATOM     27  C   UNL     1      -8.469  17.114  67.843  0.00  0.00    +0.176 A 
ATOM     28  C   UNL     1      -8.622  16.192  68.865  0.00  0.00    +0.040 A 
ATOM     29  C   UNL     1      -9.168  14.958  68.528  0.00  0.00    +0.001 A 
ENDBRANCH   9  21
TORSDOF 1
ENDMDL
MODEL 5
REMARK VINA RESULT:      -7.2      2.493      6.468
REMARK  Name = 
REMARK  1 active torsions:
REMARK  status: ('A' for Active; 'I' for Inactive)
REMARK    1  A    between atoms: C_18  and  C_19
REMARK                            x       y       z     vdW  Elec       q    Type
REMARK                         _______ _______ _______ _____ _____    ______ ____
ROOT
ATOM      1  C   UNL     1     -12.667  11.813  63.478  0.00  0.00    +0.115 C 
ATOM      2  N   UNL     1     -12.377  12.406  64.781  0.00  0.00    -0.268 N 
ATOM      3  C   UNL     1     -11.201  11.877  65.419  0.00  0.00    +0.244 C 
ATOM      4  O   UNL     1     -10.209  11.558  64.776  0.00  0.00    -0.273 OA
ATOM      5  C   UNL     1     -10.966  12.558  66.895  0.00  0.00    +0.157 C 
ATOM      6  C   UNL     1      -9.382  12.033  67.017  0.00  0.00    +0.057 C 
ATOM      7  C   UNL     1      -8.642  13.146  67.578  0.00  0.00    -0.003 A 
ATOM      8  C   UNL     1      -9.014  14.373  67.936  0.00  0.00    +0.077 A 
ATOM      9  C   UNL     1     -10.556  14.830  67.615  0.00  0.00    +0.138 C 
ATOM     10  N   UNL     1      -8.268  14.768  68.960  0.00  0.00    -0.248 NA
ATOM     11  C   UNL     1      -7.056  14.217  68.691  0.00  0.00    +0.081 A 
ATOM     12  C   UNL     1      -5.763  14.411  69.157  0.00  0.00    +0.019 A 
ATOM     13  C   UNL     1      -4.709  13.632  68.696  0.00  0.00    +0.002 A 
ATOM     14  C   UNL     1      -4.882  12.782  67.626  0.00  0.00    +0.000 A 
ATOM     15  C   UNL     1      -6.191  12.436  67.333  0.00  0.00    +0.001 A 
ATOM     16  C   UNL     1      -7.274  13.154  67.820  0.00  0.00    +0.015 A 
ATOM     17  N   UNL     1     -10.541  13.966  66.247  0.00  0.00    -0.264 N 
ATOM     18  C   UNL     1     -11.602  14.530  65.458  0.00  0.00    +0.247 C 
ATOM     19  O   UNL     1     -11.141  15.528  64.868  0.00  0.00    -0.273 OA
ATOM     20  C   UNL     1     -12.778  13.801  64.963  0.00  0.00    +0.179 C 
ENDROOT
BRANCH   9  21
ATOM     21  C   UNL     1     -10.145  16.248  66.872  0.00  0.00    +0.005 A 
ATOM     22  C   UNL     1     -10.563  17.211  67.810  0.00  0.00    +0.038 A 
ATOM     23  C   UNL     1     -10.197  18.531  67.581  0.00  0.00    +0.176 A 
ATOM     24  O   UNL     1     -10.838  19.765  67.514  0.00  0.00    -0.435 OA
ATOM     25  C   UNL     1      -9.812  20.735  67.625  0.00  0.00    +0.429 C 
ATOM     26  O   UNL     1      -8.581  20.016  67.667  0.00  0.00    -0.435 OA
ATOM     27  C   UNL     1      -8.842  18.702  67.317  0.00  0.00    +0.176 A 
ATOM     28  C   UNL     1      -8.173  17.673  66.677  0.00  0.00    +0.040 A 
ATOM     29  C   UNL     1      -8.773  16.419  66.695  0.00  0.00    +0.001 A 
ENDBRANCH   9  21
TORSDOF 1
ENDMDL
MODEL 6
REMARK VINA RESULT:      -7.2      2.713      4.487
REMARK  Name = 
REMARK  1 active torsions:
REMARK  status: ('A' for Active; 'I' for Inactive)
REMARK    1  A    between atoms: C_18  and  C_19
REMARK                            x       y       z     vdW  Elec       q    Type
REMARK                         _______ _______ _______ _____ _____    ______ ____
ROOT
ATOM      1  C   UNL     1      -3.452  13.241  69.019  0.00  0.00    +0.115 C 
ATOM      2  N   UNL     1      -4.855  13.509  69.329  0.00  0.00    -0.268 N 
ATOM      3  C   UNL     1      -5.175  14.906  69.446  0.00  0.00    +0.244 C 
ATOM      4  O   UNL     1      -4.643  15.749  68.735  0.00  0.00    -0.273 OA
ATOM      5  C   UNL     1      -6.754  15.125  69.839  0.00  0.00    +0.157 C 
ATOM      6  C   UNL     1      -6.754  16.747  69.428  0.00  0.00    +0.057 C 
ATOM      7  C   UNL     1      -8.008  16.976  68.738  0.00  0.00    -0.003 A 
ATOM      8  C   UNL     1      -9.010  16.161  68.415  0.00  0.00    +0.077 A 
ATOM      9  C   UNL     1      -8.824  14.561  68.723  0.00  0.00    +0.138 C 
ATOM     10  N   UNL     1     -10.147  16.844  68.439  0.00  0.00    -0.248 NA
ATOM     11  C   UNL     1      -9.780  18.071  67.988  0.00  0.00    +0.081 A 
ATOM     12  C   UNL     1     -10.457  19.184  67.508  0.00  0.00    +0.019 A 
ATOM     13  C   UNL     1      -9.774  20.342  67.154  0.00  0.00    +0.002 A 
ATOM     14  C   UNL     1      -8.399  20.351  67.083  0.00  0.00    +0.000 A 
ATOM     15  C   UNL     1      -7.751  19.336  67.769  0.00  0.00    +0.001 A 
ATOM     16  C   UNL     1      -8.409  18.189  68.192  0.00  0.00    +0.015 A 
ATOM     17  N   UNL     1      -7.246  14.665  68.380  0.00  0.00    -0.264 N 
ATOM     18  C   UNL     1      -6.853  13.313  68.089  0.00  0.00    +0.247 C 
ATOM     19  O   UNL     1      -7.130  13.092  66.892  0.00  0.00    -0.273 OA
ATOM     20  C   UNL     1      -5.828  12.547  68.811  0.00  0.00    +0.179 C 
ENDROOT
BRANCH   9  21
ATOM     21  C   UNL     1      -9.248  14.061  67.205  0.00  0.00    +0.005 A 
ATOM     22  C   UNL     1     -10.557  13.583  67.401  0.00  0.00    +0.038 A 
ATOM     23  C   UNL     1     -11.294  13.249  66.273  0.00  0.00    +0.176 A 
ATOM     24  O   UNL     1     -12.024  12.151  65.825  0.00  0.00    -0.435 OA
ATOM     25  C   UNL     1     -12.826  12.633  64.761  0.00  0.00    +0.429 C 
ATOM     26  O   UNL     1     -12.461  13.999  64.570  0.00  0.00    -0.435 OA
ATOM     27  C   UNL     1     -11.307  14.238  65.295  0.00  0.00    +0.176 A 
ATOM     28  C   UNL     1     -10.191  15.050  65.183  0.00  0.00    +0.040 A 
ATOM     29  C   UNL     1      -9.326  15.093  66.270  0.00  0.00    +0.001 A 
ENDBRANCH   9  21
TORSDOF 1
ENDMDL
MODEL 7
REMARK VINA RESULT:      -6.9      2.318      5.218
REMARK  Name = 
REMARK  1 active torsions:
REMARK  status: ('A' for Active; 'I' for Inactive)
REMARK    1  A    between atoms: C_18  and  C_19
REMARK                            x       y       z     vdW  Elec       q    Type
REMARK                         _______ _______ _______ _____ _____    ______ ____
ROOT
ATOM      1  C   UNL     1      -7.069  19.165  67.510  0.00  0.00    +0.115 C 
ATOM      2  N   UNL     1      -8.451  18.693  67.455  0.00  0.00    -0.268 N 
ATOM      3  C   UNL     1      -8.756  17.900  66.296  0.00  0.00    +0.244 C 
ATOM      4  O   UNL     1      -7.938  17.128  65.811  0.00  0.00    -0.273 OA
ATOM      5  C   UNL     1     -10.334  17.446  66.282  0.00  0.00    +0.157 C 
ATOM      6  C   UNL     1     -10.107  16.265  65.118  0.00  0.00    +0.057 C 
ATOM      7  C   UNL     1     -10.899  15.131  65.550  0.00  0.00    -0.003 A 
ATOM      8  C   UNL     1     -11.662  14.934  66.624  0.00  0.00    +0.077 A 
ATOM      9  C   UNL     1     -11.675  16.100  67.778  0.00  0.00    +0.138 C 
ATOM     10  N   UNL     1     -12.667  14.132  66.299  0.00  0.00    -0.248 NA
ATOM     11  C   UNL     1     -12.105  13.280  65.402  0.00  0.00    +0.081 A 
ATOM     12  C   UNL     1     -12.459  12.054  64.855  0.00  0.00    +0.019 A 
ATOM     13  C   UNL     1     -11.663  11.437  63.897  0.00  0.00    +0.002 A 
ATOM     14  C   UNL     1     -10.408  11.927  63.609  0.00  0.00    +0.000 A 
ATOM     15  C   UNL     1     -10.171  13.241  63.979  0.00  0.00    +0.001 A 
ATOM     16  C   UNL     1     -10.977  13.912  64.888  0.00  0.00    +0.015 A 
ATOM     17  N   UNL     1     -10.113  16.415  67.495  0.00  0.00    -0.264 N 
ATOM     18  C   UNL     1      -9.663  17.085  68.685  0.00  0.00    +0.247 C 
ATOM     19  O   UNL     1      -9.366  16.206  69.520  0.00  0.00    -0.273 OA
ATOM     20  C   UNL     1      -9.102  18.442  68.742  0.00  0.00    +0.179 C 
ENDROOT
BRANCH   9  21
ATOM     21  C   UNL     1     -11.368  15.074  69.037  0.00  0.00    +0.005 A 
ATOM     22  C   UNL     1     -12.579  15.109  69.755  0.00  0.00    +0.038 A 
ATOM     23  C   UNL     1     -12.735  14.202  70.795  0.00  0.00    +0.176 A 
ATOM     24  O   UNL     1     -13.086  14.252  72.141  0.00  0.00    -0.435 OA
ATOM     25  C   UNL     1     -13.416  12.922  72.500  0.00  0.00    +0.429 C 
ATOM     26  O   UNL     1     -13.157  12.119  71.349  0.00  0.00    -0.435 OA
ATOM     27  C   UNL     1     -12.445  12.888  70.445  0.00  0.00    +0.176 A 
ATOM     28  C   UNL     1     -11.481  12.675  69.473  0.00  0.00    +0.040 A 
ATOM     29  C   UNL     1     -11.160  13.750  68.652  0.00  0.00    +0.001 A 
ENDBRANCH   9  21
TORSDOF 1
ENDMDL
MODEL 8
REMARK VINA RESULT:      -6.6      4.795      7.919
REMARK  Name = 
REMARK  1 active torsions:
REMARK  status: ('A' for Active; 'I' for Inactive)
REMARK    1  A    between atoms: C_18  and  C_19
REMARK                            x       y       z     vdW  Elec       q    Type
REMARK                         _______ _______ _______ _____ _____    ______ ____
ROOT
ATOM      1  C   UNL     1     -13.582   8.808  72.486  0.00  0.00    +0.115 C 
ATOM      2  N   UNL     1     -12.364   9.354  71.893  0.00  0.00    -0.268 N 
ATOM      3  C   UNL     1     -11.512   8.368  71.285  0.00  0.00    +0.244 C 
ATOM      4  O   UNL     1     -11.971   7.397  70.696  0.00  0.00    -0.273 OA
ATOM      5  C   UNL     1     -10.146   9.049  70.681  0.00  0.00    +0.157 C 
ATOM      6  C   UNL     1      -9.751   7.717  69.749  0.00  0.00    +0.057 C 
ATOM      7  C   UNL     1      -9.288   8.248  68.483  0.00  0.00    -0.003 A 
ATOM      8  C   UNL     1      -9.177   9.494  68.025  0.00  0.00    +0.077 A 
ATOM      9  C   UNL     1      -9.751  10.708  68.966  0.00  0.00    +0.138 C 
ATOM     10  N   UNL     1      -8.146   9.557  67.193  0.00  0.00    -0.248 NA
ATOM     11  C   UNL     1      -8.175   8.350  66.571  0.00  0.00    +0.081 A 
ATOM     12  C   UNL     1      -7.592   7.818  65.429  0.00  0.00    +0.019 A 
ATOM     13  C   UNL     1      -7.792   6.490  65.072  0.00  0.00    +0.002 A 
ATOM     14  C   UNL     1      -8.726   5.721  65.730  0.00  0.00    +0.000 A 
ATOM     15  C   UNL     1      -9.118   6.180  66.977  0.00  0.00    +0.001 A 
ATOM     16  C   UNL     1      -8.886   7.483  67.395  0.00  0.00    +0.015 A 
ATOM     17  N   UNL     1     -10.953   9.756  69.484  0.00  0.00    -0.264 N 
ATOM     18  C   UNL     1     -11.944  10.671  69.980  0.00  0.00    +0.247 C 
ATOM     19  O   UNL     1     -12.624  11.051  69.005  0.00  0.00    -0.273 OA
ATOM     20  C   UNL     1     -12.457  10.713  71.357  0.00  0.00    +0.179 C 
ENDROOT
BRANCH   9  21
ATOM     21  C   UNL     1     -10.655  11.412  67.774  0.00  0.00    +0.005 A 
ATOM     22  C   UNL     1     -10.050  12.677  67.646  0.00  0.00    +0.038 A 
ATOM     23  C   UNL     1     -10.453  13.477  66.585  0.00  0.00    +0.176 A 
ATOM     24  O   UNL     1     -10.912  14.780  66.413  0.00  0.00    -0.435 OA
ATOM     25  C   UNL     1     -10.772  15.056  65.031  0.00  0.00    +0.429 C 
ATOM     26  O   UNL     1     -10.310  13.849  64.426  0.00  0.00    -0.435 OA
ATOM     27  C   UNL     1     -10.435  12.830  65.354  0.00  0.00    +0.176 A 
ATOM     28  C   UNL     1     -10.686  11.469  65.335  0.00  0.00    +0.040 A 
ATOM     29  C   UNL     1     -10.549  10.782  66.536  0.00  0.00    +0.001 A 
ENDBRANCH   9  21
TORSDOF 1
ENDMDL
MODEL 9
REMARK VINA RESULT:      -6.6      1.968      5.639
REMARK  Name = 
REMARK  1 active torsions:
REMARK  status: ('A' for Active; 'I' for Inactive)
REMARK    1  A    between atoms: C_18  and  C_19
REMARK                            x       y       z     vdW  Elec       q    Type
REMARK                         _______ _______ _______ _____ _____    ______ ____
ROOT
ATOM      1  C   UNL     1     -11.116  11.070  64.239  0.00  0.00    +0.115 C 
ATOM      2  N   UNL     1     -11.219  12.446  64.719  0.00  0.00    -0.268 N 
ATOM      3  C   UNL     1     -12.026  12.598  65.900  0.00  0.00    +0.244 C 
ATOM      4  O   UNL     1     -12.037  11.751  66.784  0.00  0.00    -0.273 OA
ATOM      5  C   UNL     1     -12.131  14.173  66.351  0.00  0.00    +0.157 C 
ATOM      6  C   UNL     1     -12.707  13.819  67.882  0.00  0.00    +0.057 C 
ATOM      7  C   UNL     1     -12.017  14.726  68.778  0.00  0.00    -0.003 A 
ATOM      8  C   UNL     1     -11.092  15.660  68.564  0.00  0.00    +0.077 A 
ATOM      9  C   UNL     1     -10.485  15.802  67.047  0.00  0.00    +0.138 C 
ATOM     10  N   UNL     1     -11.254  16.637  69.446  0.00  0.00    -0.248 NA
ATOM     11  C   UNL     1     -11.654  15.981  70.566  0.00  0.00    +0.081 A 
ATOM     12  C   UNL     1     -11.747  16.302  71.914  0.00  0.00    +0.019 A 
ATOM     13  C   UNL     1     -12.252  15.393  72.835  0.00  0.00    +0.002 A 
ATOM     14  C   UNL     1     -12.489  14.085  72.472  0.00  0.00    +0.000 A 
ATOM     15  C   UNL     1     -12.610  13.847  71.112  0.00  0.00    +0.001 A 
ATOM     16  C   UNL     1     -12.171  14.755  70.159  0.00  0.00    +0.015 A 
ATOM     17  N   UNL     1     -10.600  14.202  66.837  0.00  0.00    -0.264 N 
ATOM     18  C   UNL     1      -9.694  13.918  65.757  0.00  0.00    +0.247 C 
ATOM     19  O   UNL     1      -8.553  13.802  66.246  0.00  0.00    -0.273 OA
ATOM     20  C   UNL     1     -10.062  13.307  64.472  0.00  0.00    +0.179 C 
ENDROOT
BRANCH   9  21
ATOM     21  C   UNL     1      -8.899  15.753  67.510  0.00  0.00    +0.005 A 
ATOM     22  C   UNL     1      -8.506  17.099  67.377  0.00  0.00    +0.038 A 
ATOM     23  C   UNL     1      -7.256  17.453  67.867  0.00  0.00    +0.176 A 
ATOM     24  O   UNL     1      -6.127  18.111  67.388  0.00  0.00    -0.435 OA
ATOM     25  C   UNL     1      -5.370  18.457  68.534  0.00  0.00    +0.429 C 
ATOM     26  O   UNL     1      -6.058  17.901  69.653  0.00  0.00    -0.435 OA
ATOM     27  C   UNL     1      -7.022  17.032  69.172  0.00  0.00    +0.176 A 
ATOM     28  C   UNL     1      -7.628  15.859  69.591  0.00  0.00    +0.040 A 
ATOM     29  C   UNL     1      -8.709  15.403  68.846  0.00  0.00    +0.001 A 
ENDBRANCH   9  21
TORSDOF 1
ENDMDL
