MODEL 1
REMARK VINA RESULT:      -8.6      0.000      0.000
REMARK  Name = 
REMARK  7 active torsions:
REMARK  status: ('A' for Active; 'I' for Inactive)
REMARK    1  A    between atoms: N_10  and  C_11
REMARK    2  A    between atoms: N_14  and  C_15
REMARK    3  A    between atoms: C_15  and  C_16
REMARK    4  A    between atoms: C_16  and  C_17
REMARK    5  A    between atoms: C_17  and  C_18
REMARK    6  A    between atoms: C_18  and  C_19
REMARK    7  A    between atoms: C_18  and  C_26
REMARK                            x       y       z     vdW  Elec       q    Type
REMARK                         _______ _______ _______ _____ _____    ______ ____
ROOT
ATOM      1  C   UNL     1     -10.482  10.502  66.383  0.00  0.00    +0.072 C 
ENDROOT
BRANCH   1   5
ATOM      2  C   UNL     1     -10.603  14.650  66.025  0.00  0.00    +0.093 C 
ATOM      3  C   UNL     1     -11.840  13.923  66.501  0.00  0.00    +0.040 C 
ATOM      4  C   UNL     1     -11.732  12.502  65.962  0.00  0.00    +0.074 C 
ATOM      5  N   UNL     1     -10.533  11.932  66.569  0.00  0.00    -0.273 NA
ATOM      6  C   UNL     1      -9.338  12.573  66.040  0.00  0.00    +0.074 C 
ATOM      7  C   UNL     1      -9.328  14.018  66.507  0.00  0.00    +0.040 C 
BRANCH   2  10
ATOM      8  O   UNL     1     -11.319  16.745  64.029  0.00  0.00    -0.244 OA
ATOM      9  C   UNL     1     -10.931  16.986  65.352  0.00  0.00    +0.350 A 
ATOM     10  N   UNL     1     -10.688  16.060  66.307  0.00  0.00    -0.280 N 
ATOM     11  C   UNL     1      -9.889  16.667  67.217  0.00  0.00    +0.082 A 
ATOM     12  C   UNL     1      -9.870  18.004  66.922  0.00  0.00    +0.102 A 
ATOM     13  C   UNL     1      -9.072  18.856  67.670  0.00  0.00    +0.021 A 
ATOM     14  C   UNL     1      -8.057  18.345  68.462  0.00  0.00    +0.002 A 
ATOM     15  C   UNL     1      -7.997  16.989  68.703  0.00  0.00    +0.002 A 
ATOM     16  C   UNL     1      -9.037  16.213  68.215  0.00  0.00    +0.019 A 
ATOM     17  N   UNL     1     -10.511  18.196  65.765  0.00  0.00    -0.191 NA
ENDBRANCH   2  10
ENDBRANCH   1   5
BRANCH   1  18
ATOM     18  C   UNL     1     -10.927   9.833  67.652  0.00  0.00    +0.018 C 
BRANCH  18  19
ATOM     19  C   UNL     1     -10.785  10.701  68.868  0.00  0.00    +0.010 C 
BRANCH  19  20
ATOM     20  C   UNL     1     -11.828  10.474  69.914  0.00  0.00    +0.045 C 
BRANCH  20  21
ATOM     21  C   UNL     1     -12.299  11.706  70.571  0.00  0.00    -0.018 A 
ATOM     22  C   UNL     1     -12.982  11.748  71.759  0.00  0.00    -0.002 A 
ATOM     23  C   UNL     1     -13.556  12.915  72.203  0.00  0.00    +0.029 A 
ATOM     24  C   UNL     1     -13.386  14.098  71.500  0.00  0.00    +0.140 A 
ATOM     25  F   UNL     1     -14.213  15.160  71.692  0.00  0.00    -0.204 F 
ATOM     26  C   UNL     1     -12.419  14.103  70.525  0.00  0.00    +0.029 A 
ATOM     27  C   UNL     1     -11.867  12.925  70.064  0.00  0.00    -0.002 A 
ENDBRANCH  20  21
BRANCH  20  28
ATOM     28  C   UNL     1     -11.462   9.500  70.952  0.00  0.00    -0.018 A 
ATOM     29  C   UNL     1     -12.460   8.629  71.375  0.00  0.00    -0.002 A 
ATOM     30  C   UNL     1     -12.194   7.567  72.198  0.00  0.00    +0.029 A 
ATOM     31  C   UNL     1     -10.971   7.541  72.847  0.00  0.00    +0.140 A 
ATOM     32  F   UNL     1     -10.809   6.688  73.881  0.00  0.00    -0.204 F 
ATOM     33  C   UNL     1     -10.039   8.526  72.541  0.00  0.00    +0.029 A 
ATOM     34  C   UNL     1     -10.182   9.174  71.320  0.00  0.00    -0.002 A 
ENDBRANCH  20  28
ENDBRANCH  19  20
ENDBRANCH  18  19
ENDBRANCH   1  18
TORSDOF 7
ENDMDL
MODEL 2
REMARK VINA RESULT:      -8.5      1.596      2.087
REMARK  Name = 
REMARK  7 active torsions:
REMARK  status: ('A' for Active; 'I' for Inactive)
REMARK    1  A    between atoms: N_10  and  C_11
REMARK    2  A    between atoms: N_14  and  C_15
REMARK    3  A    between atoms: C_15  and  C_16
REMARK    4  A    between atoms: C_16  and  C_17
REMARK    5  A    between atoms: C_17  and  C_18
REMARK    6  A    between atoms: C_18  and  C_19
REMARK    7  A    between atoms: C_18  and  C_26
REMARK                            x       y       z     vdW  Elec       q    Type
REMARK                         _______ _______ _______ _____ _____    ______ ____
ROOT
ATOM      1  C   UNL     1     -11.634  11.912  66.532  0.00  0.00    +0.072 C 
ENDROOT
BRANCH   1   5
ATOM      2  C   UNL     1      -9.495  15.478  66.762  0.00  0.00    +0.093 C 
ATOM      3  C   UNL     1     -10.819  15.375  67.483  0.00  0.00    +0.040 C 
ATOM      4  C   UNL     1     -11.616  14.297  66.758  0.00  0.00    +0.074 C 
ATOM      5  N   UNL     1     -10.850  13.063  66.907  0.00  0.00    -0.273 NA
ATOM      6  C   UNL     1      -9.616  13.131  66.137  0.00  0.00    +0.074 C 
ATOM      7  C   UNL     1      -8.724  14.189  66.762  0.00  0.00    +0.040 C 
BRANCH   2  10
ATOM      8  O   UNL     1      -7.948  15.540  69.310  0.00  0.00    -0.244 OA
ATOM      9  C   UNL     1      -8.117  16.621  68.439  0.00  0.00    +0.350 A 
ATOM     10  N   UNL     1      -8.733  16.605  67.234  0.00  0.00    -0.280 N 
ATOM     11  C   UNL     1      -9.103  17.885  66.990  0.00  0.00    +0.082 A 
ATOM     12  C   UNL     1      -8.491  18.677  67.926  0.00  0.00    +0.102 A 
ATOM     13  C   UNL     1      -8.750  20.038  67.941  0.00  0.00    +0.021 A 
ATOM     14  C   UNL     1      -9.851  20.546  67.271  0.00  0.00    +0.002 A 
ATOM     15  C   UNL     1     -10.543  19.744  66.389  0.00  0.00    +0.002 A 
ATOM     16  C   UNL     1     -10.025  18.482  66.141  0.00  0.00    +0.019 A 
ATOM     17  N   UNL     1      -7.887  17.890  68.822  0.00  0.00    -0.191 NA
ENDBRANCH   2  10
ENDBRANCH   1   5
BRANCH   1  18
ATOM     18  C   UNL     1     -11.381  10.811  67.523  0.00  0.00    +0.018 C 
BRANCH  18  19
ATOM     19  C   UNL     1     -11.019  11.309  68.892  0.00  0.00    +0.010 C 
BRANCH  19  20
ATOM     20  C   UNL     1     -12.034  11.008  69.946  0.00  0.00    +0.045 C 
BRANCH  20  21
ATOM     21  C   UNL     1     -12.483  12.189  70.704  0.00  0.00    -0.018 A 
ATOM     22  C   UNL     1     -13.173  12.144  71.889  0.00  0.00    -0.002 A 
ATOM     23  C   UNL     1     -13.724  13.281  72.429  0.00  0.00    +0.029 A 
ATOM     24  C   UNL     1     -13.525  14.515  71.830  0.00  0.00    +0.140 A 
ATOM     25  F   UNL     1     -14.331  15.575  72.109  0.00  0.00    -0.204 F 
ATOM     26  C   UNL     1     -12.553  14.583  70.863  0.00  0.00    +0.029 A 
ATOM     27  C   UNL     1     -12.023  13.437  70.306  0.00  0.00    -0.002 A 
ENDBRANCH  20  21
BRANCH  20  28
ATOM     28  C   UNL     1     -11.644   9.960  70.900  0.00  0.00    -0.018 A 
ATOM     29  C   UNL     1     -12.673   9.275  71.538  0.00  0.00    -0.002 A 
ATOM     30  C   UNL     1     -12.439   8.164  72.303  0.00  0.00    +0.029 A 
ATOM     31  C   UNL     1     -11.133   7.901  72.681  0.00  0.00    +0.140 A 
ATOM     32  F   UNL     1     -10.917   7.009  73.671  0.00  0.00    -0.204 F 
ATOM     33  C   UNL     1     -10.122   8.707  72.170  0.00  0.00    +0.029 A 
ATOM     34  C   UNL     1     -10.396   9.397  70.995  0.00  0.00    -0.002 A 
ENDBRANCH  20  28
ENDBRANCH  19  20
ENDBRANCH  18  19
ENDBRANCH   1  18
TORSDOF 7
ENDMDL
MODEL 3
REMARK VINA RESULT:      -8.5      1.692      4.344
REMARK  Name = 
REMARK  7 active torsions:
REMARK  status: ('A' for Active; 'I' for Inactive)
REMARK    1  A    between atoms: N_10  and  C_11
REMARK    2  A    between atoms: N_14  and  C_15
REMARK    3  A    between atoms: C_15  and  C_16
REMARK    4  A    between atoms: C_16  and  C_17
REMARK    5  A    between atoms: C_17  and  C_18
REMARK    6  A    between atoms: C_18  and  C_19
REMARK    7  A    between atoms: C_18  and  C_26
REMARK                            x       y       z     vdW  Elec       q    Type
REMARK                         _______ _______ _______ _____ _____    ______ ____
ROOT
ATOM      1  C   UNL     1     -11.760  12.466  66.418  0.00  0.00    +0.072 C 
ENDROOT
BRANCH   1   5
ATOM      2  C   UNL     1      -8.981  15.551  66.098  0.00  0.00    +0.093 C 
ATOM      3  C   UNL     1     -10.181  15.555  65.180  0.00  0.00    +0.040 C 
ATOM      4  C   UNL     1     -10.641  14.105  65.076  0.00  0.00    +0.074 C 
ATOM      5  N   UNL     1     -11.025  13.707  66.427  0.00  0.00    -0.273 NA
ATOM      6  C   UNL     1      -9.853  13.617  67.286  0.00  0.00    +0.074 C 
ATOM      7  C   UNL     1      -9.288  15.015  67.467  0.00  0.00    +0.040 C 
BRANCH   2  10
ATOM      8  O   UNL     1      -6.151  16.030  66.905  0.00  0.00    -0.244 OA
ATOM      9  C   UNL     1      -7.077  17.024  66.573  0.00  0.00    +0.350 A 
ATOM     10  N   UNL     1      -8.337  16.839  66.116  0.00  0.00    -0.280 N 
ATOM     11  C   UNL     1      -9.007  17.981  66.405  0.00  0.00    +0.082 A 
ATOM     12  C   UNL     1      -8.084  18.912  66.802  0.00  0.00    +0.102 A 
ATOM     13  C   UNL     1      -8.513  20.163  67.216  0.00  0.00    +0.021 A 
ATOM     14  C   UNL     1      -9.839  20.367  67.559  0.00  0.00    +0.002 A 
ATOM     15  C   UNL     1     -10.779  19.406  67.254  0.00  0.00    +0.002 A 
ATOM     16  C   UNL     1     -10.350  18.315  66.513  0.00  0.00    +0.019 A 
ATOM     17  N   UNL     1      -6.893  18.314  66.908  0.00  0.00    -0.191 NA
ENDBRANCH   2  10
ENDBRANCH   1   5
BRANCH   1  18
ATOM     18  C   UNL     1     -11.145  11.533  67.422  0.00  0.00    +0.018 C 
BRANCH  18  19
ATOM     19  C   UNL     1     -12.083  11.136  68.524  0.00  0.00    +0.010 C 
BRANCH  19  20
ATOM     20  C   UNL     1     -11.552  11.370  69.901  0.00  0.00    +0.045 C 
BRANCH  20  21
ATOM     21  C   UNL     1     -11.475  10.155  70.731  0.00  0.00    -0.018 A 
ATOM     22  C   UNL     1     -12.557   9.465  71.213  0.00  0.00    -0.002 A 
ATOM     23  C   UNL     1     -12.401   8.461  72.138  0.00  0.00    +0.029 A 
ATOM     24  C   UNL     1     -11.135   8.065  72.543  0.00  0.00    +0.140 A 
ATOM     25  F   UNL     1     -10.948   7.359  73.690  0.00  0.00    -0.204 F 
ATOM     26  C   UNL     1     -10.077   8.519  71.794  0.00  0.00    +0.029 A 
ATOM     27  C   UNL     1     -10.236   9.546  70.887  0.00  0.00    -0.002 A 
ENDBRANCH  20  21
BRANCH  20  28
ATOM     28  C   UNL     1     -12.249  12.415  70.664  0.00  0.00    -0.018 A 
ATOM     29  C   UNL     1     -12.138  13.718  70.191  0.00  0.00    -0.002 A 
ATOM     30  C   UNL     1     -12.886  14.743  70.708  0.00  0.00    +0.029 A 
ATOM     31  C   UNL     1     -13.540  14.526  71.909  0.00  0.00    +0.140 A 
ATOM     32  F   UNL     1     -14.018  15.593  72.583  0.00  0.00    -0.204 F 
ATOM     33  C   UNL     1     -13.498  13.252  72.464  0.00  0.00    +0.029 A 
ATOM     34  C   UNL     1     -13.225  12.196  71.603  0.00  0.00    -0.002 A 
ENDBRANCH  20  28
ENDBRANCH  19  20
ENDBRANCH  18  19
ENDBRANCH   1  18
TORSDOF 7
ENDMDL
MODEL 4
REMARK VINA RESULT:      -8.3      1.271      1.697
REMARK  Name = 
REMARK  7 active torsions:
REMARK  status: ('A' for Active; 'I' for Inactive)
REMARK    1  A    between atoms: N_10  and  C_11
REMARK    2  A    between atoms: N_14  and  C_15
REMARK    3  A    between atoms: C_15  and  C_16
REMARK    4  A    between atoms: C_16  and  C_17
REMARK    5  A    between atoms: C_17  and  C_18
REMARK    6  A    between atoms: C_18  and  C_19
REMARK    7  A    between atoms: C_18  and  C_26
REMARK                            x       y       z     vdW  Elec       q    Type
REMARK                         _______ _______ _______ _____ _____    ______ ____
ROOT
ATOM      1  C   UNL     1     -10.982  12.465  66.357  0.00  0.00    +0.072 C 
ENDROOT
BRANCH   1   5
ATOM      2  C   UNL     1     -10.285  16.545  66.822  0.00  0.00    +0.093 C 
ATOM      3  C   UNL     1     -11.156  15.836  67.832  0.00  0.00    +0.040 C 
ATOM      4  C   UNL     1     -11.722  14.612  67.121  0.00  0.00    +0.074 C 
ATOM      5  N   UNL     1     -10.572  13.788  66.762  0.00  0.00    -0.273 NA
ATOM      6  C   UNL     1      -9.784  14.434  65.722  0.00  0.00    +0.074 C 
ATOM      7  C   UNL     1      -9.161  15.689  66.309  0.00  0.00    +0.040 C 
BRANCH   2  10
ATOM      8  O   UNL     1     -10.639  19.136  65.389  0.00  0.00    -0.244 OA
ATOM      9  C   UNL     1      -9.953  18.965  66.596  0.00  0.00    +0.350 A 
ATOM     10  N   UNL     1      -9.851  17.826  67.318  0.00  0.00    -0.280 N 
ATOM     11  C   UNL     1      -8.742  17.969  68.083  0.00  0.00    +0.082 A 
ATOM     12  C   UNL     1      -8.343  19.276  67.990  0.00  0.00    +0.102 A 
ATOM     13  C   UNL     1      -7.186  19.684  68.635  0.00  0.00    +0.021 A 
ATOM     14  C   UNL     1      -6.265  18.746  69.071  0.00  0.00    +0.002 A 
ATOM     15  C   UNL     1      -6.605  17.411  69.091  0.00  0.00    +0.002 A 
ATOM     16  C   UNL     1      -7.914  17.088  68.764  0.00  0.00    +0.019 A 
ATOM     17  N   UNL     1      -9.092  19.887  67.066  0.00  0.00    -0.191 NA
ENDBRANCH   2  10
ENDBRANCH   1   5
BRANCH   1  18
ATOM     18  C   UNL     1     -11.882  11.893  67.416  0.00  0.00    +0.018 C 
BRANCH  18  19
ATOM     19  C   UNL     1     -11.215  11.741  68.751  0.00  0.00    +0.010 C 
BRANCH  19  20
ATOM     20  C   UNL     1     -12.146  11.413  69.873  0.00  0.00    +0.045 C 
BRANCH  20  21
ATOM     21  C   UNL     1     -12.459  12.555  70.749  0.00  0.00    -0.018 A 
ATOM     22  C   UNL     1     -13.255  12.493  71.864  0.00  0.00    -0.002 A 
ATOM     23  C   UNL     1     -13.655  13.636  72.512  0.00  0.00    +0.029 A 
ATOM     24  C   UNL     1     -13.193  14.878  72.102  0.00  0.00    +0.140 A 
ATOM     25  F   UNL     1     -13.831  16.024  72.464  0.00  0.00    -0.204 F 
ATOM     26  C   UNL     1     -12.137  14.886  71.226  0.00  0.00    +0.029 A 
ATOM     27  C   UNL     1     -11.758  13.739  70.558  0.00  0.00    -0.002 A 
ENDBRANCH  20  21
BRANCH  20  28
ATOM     28  C   UNL     1     -11.731  10.279  70.710  0.00  0.00    -0.018 A 
ATOM     29  C   UNL     1     -12.739   9.578  71.364  0.00  0.00    -0.002 A 
ATOM     30  C   UNL     1     -12.495   8.402  72.021  0.00  0.00    +0.029 A 
ATOM     31  C   UNL     1     -11.177   8.067  72.283  0.00  0.00    +0.140 A 
ATOM     32  F   UNL     1     -10.927   7.092  73.182  0.00  0.00    -0.204 F 
ATOM     33  C   UNL     1     -10.174   8.879  71.766  0.00  0.00    +0.029 A 
ATOM     34  C   UNL     1     -10.502   9.672  70.673  0.00  0.00    -0.002 A 
ENDBRANCH  20  28
ENDBRANCH  19  20
ENDBRANCH  18  19
ENDBRANCH   1  18
TORSDOF 7
ENDMDL
MODEL 5
REMARK VINA RESULT:      -8.3      2.915      7.704
REMARK  Name = 
REMARK  7 active torsions:
REMARK  status: ('A' for Active; 'I' for Inactive)
REMARK    1  A    between atoms: N_10  and  C_11
REMARK    2  A    between atoms: N_14  and  C_15
REMARK    3  A    between atoms: C_15  and  C_16
REMARK    4  A    between atoms: C_16  and  C_17
REMARK    5  A    between atoms: C_17  and  C_18
REMARK    6  A    between atoms: C_18  and  C_19
REMARK    7  A    between atoms: C_18  and  C_26
REMARK                            x       y       z     vdW  Elec       q    Type
REMARK                         _______ _______ _______ _____ _____    ______ ____
ROOT
ATOM      1  C   UNL     1     -10.323  13.550  65.560  0.00  0.00    +0.072 C 
ENDROOT
BRANCH   1   5
ATOM      2  C   UNL     1      -9.827  10.383  68.219  0.00  0.00    +0.093 C 
ATOM      3  C   UNL     1      -9.064  11.665  68.463  0.00  0.00    +0.040 C 
ATOM      4  C   UNL     1      -8.941  12.351  67.107  0.00  0.00    +0.074 C 
ATOM      5  N   UNL     1     -10.307  12.637  66.676  0.00  0.00    -0.273 NA
ATOM      6  C   UNL     1     -11.010  11.403  66.355  0.00  0.00    +0.074 C 
ATOM      7  C   UNL     1     -11.194  10.613  67.639  0.00  0.00    +0.040 C 
BRANCH   2  10
ATOM      8  O   UNL     1      -8.872   7.560  68.313  0.00  0.00    -0.244 OA
ATOM      9  C   UNL     1      -9.473   8.247  69.373  0.00  0.00    +0.350 A 
ATOM     10  N   UNL     1      -9.833   9.551  69.394  0.00  0.00    -0.280 N 
ATOM     11  C   UNL     1     -10.786   9.657  70.352  0.00  0.00    +0.082 A 
ATOM     12  C   UNL     1     -10.802   8.478  71.050  0.00  0.00    +0.102 A 
ATOM     13  C   UNL     1     -11.735   8.295  72.057  0.00  0.00    +0.021 A 
ATOM     14  C   UNL     1     -12.845   9.119  72.138  0.00  0.00    +0.002 A 
ATOM     15  C   UNL     1     -12.899  10.268  71.378  0.00  0.00    +0.002 A 
ATOM     16  C   UNL     1     -11.770  10.592  70.641  0.00  0.00    +0.019 A 
ATOM     17  N   UNL     1      -9.991   7.608  70.437  0.00  0.00    -0.191 NA
ENDBRANCH   2  10
ENDBRANCH   1   5
BRANCH   1  18
ATOM     18  C   UNL     1     -10.494  14.949  66.082  0.00  0.00    +0.018 C 
BRANCH  18  19
ATOM     19  C   UNL     1     -11.326  15.025  67.329  0.00  0.00    +0.010 C 
BRANCH  19  20
ATOM     20  C   UNL     1     -10.551  15.328  68.570  0.00  0.00    +0.045 C 
BRANCH  20  21
ATOM     21  C   UNL     1     -11.343  15.242  69.810  0.00  0.00    -0.018 A 
ATOM     22  C   UNL     1     -11.356  16.193  70.798  0.00  0.00    -0.002 A 
ATOM     23  C   UNL     1     -11.964  15.948  72.005  0.00  0.00    +0.029 A 
ATOM     24  C   UNL     1     -12.653  14.765  72.222  0.00  0.00    +0.140 A 
ATOM     25  F   UNL     1     -12.943  14.335  73.480  0.00  0.00    -0.204 F 
ATOM     26  C   UNL     1     -12.925  13.997  71.117  0.00  0.00    +0.029 A 
ATOM     27  C   UNL     1     -12.289  14.231  69.915  0.00  0.00    -0.002 A 
ENDBRANCH  20  21
BRANCH  20  28
ATOM     28  C   UNL     1      -9.838  16.612  68.557  0.00  0.00    -0.018 A 
ATOM     29  C   UNL     1      -8.461  16.569  68.750  0.00  0.00    -0.002 A 
ATOM     30  C   UNL     1      -7.670  17.674  68.578  0.00  0.00    +0.029 A 
ATOM     31  C   UNL     1      -8.291  18.910  68.500  0.00  0.00    +0.140 A 
ATOM     32  F   UNL     1      -7.536  20.019  68.641  0.00  0.00    -0.204 F 
ATOM     33  C   UNL     1      -9.681  18.951  68.484  0.00  0.00    +0.029 A 
ATOM     34  C   UNL     1     -10.343  17.797  68.084  0.00  0.00    -0.002 A 
ENDBRANCH  20  28
ENDBRANCH  19  20
ENDBRANCH  18  19
ENDBRANCH   1  18
TORSDOF 7
ENDMDL
MODEL 6
REMARK VINA RESULT:      -8.2      3.715      7.703
REMARK  Name = 
REMARK  7 active torsions:
REMARK  status: ('A' for Active; 'I' for Inactive)
REMARK    1  A    between atoms: N_10  and  C_11
REMARK    2  A    between atoms: N_14  and  C_15
REMARK    3  A    between atoms: C_15  and  C_16
REMARK    4  A    between atoms: C_16  and  C_17
REMARK    5  A    between atoms: C_17  and  C_18
REMARK    6  A    between atoms: C_18  and  C_19
REMARK    7  A    between atoms: C_18  and  C_26
REMARK                            x       y       z     vdW  Elec       q    Type
REMARK                         _______ _______ _______ _____ _____    ______ ____
ROOT
ATOM      1  C   UNL     1      -7.311  11.869  67.560  0.00  0.00    +0.072 C 
ENDROOT
BRANCH   1   5
ATOM      2  C   UNL     1      -9.336   8.683  69.319  0.00  0.00    +0.093 C 
ATOM      3  C   UNL     1      -8.495   9.584  70.194  0.00  0.00    +0.040 C 
ATOM      4  C   UNL     1      -7.447  10.207  69.280  0.00  0.00    +0.074 C 
ATOM      5  N   UNL     1      -8.187  10.989  68.294  0.00  0.00    -0.273 NA
ATOM      6  C   UNL     1      -8.925  10.113  67.396  0.00  0.00    +0.074 C 
ATOM      7  C   UNL     1     -10.012   9.418  68.196  0.00  0.00    +0.040 C 
BRANCH   2  10
ATOM      8  O   UNL     1     -10.207   5.914  68.637  0.00  0.00    -0.244 OA
ATOM      9  C   UNL     1     -10.676   6.667  69.719  0.00  0.00    +0.350 A 
ATOM     10  N   UNL     1     -10.238   7.886  70.110  0.00  0.00    -0.280 N 
ATOM     11  C   UNL     1     -11.251   8.431  70.825  0.00  0.00    +0.082 A 
ATOM     12  C   UNL     1     -12.171   7.444  71.057  0.00  0.00    +0.102 A 
ATOM     13  C   UNL     1     -13.347   7.750  71.724  0.00  0.00    +0.021 A 
ATOM     14  C   UNL     1     -13.754   9.068  71.848  0.00  0.00    +0.002 A 
ATOM     15  C   UNL     1     -12.879  10.086  71.535  0.00  0.00    +0.002 A 
ATOM     16  C   UNL     1     -11.582   9.725  71.206  0.00  0.00    +0.019 A 
ATOM     17  N   UNL     1     -11.813   6.356  70.367  0.00  0.00    -0.191 NA
ENDBRANCH   2  10
ENDBRANCH   1   5
BRANCH   1  18
ATOM     18  C   UNL     1      -8.106  13.048  67.075  0.00  0.00    +0.018 C 
BRANCH  18  19
ATOM     19  C   UNL     1      -8.837  13.769  68.169  0.00  0.00    +0.010 C 
BRANCH  19  20
ATOM     20  C   UNL     1     -10.279  13.400  68.296  0.00  0.00    +0.045 C 
BRANCH  20  21
ATOM     21  C   UNL     1     -11.024  13.437  67.026  0.00  0.00    -0.018 A 
ATOM     22  C   UNL     1     -11.737  12.388  66.505  0.00  0.00    -0.002 A 
ATOM     23  C   UNL     1     -12.238  12.440  65.227  0.00  0.00    +0.029 A 
ATOM     24  C   UNL     1     -12.106  13.589  64.462  0.00  0.00    +0.140 A 
ATOM     25  F   UNL     1     -12.251  13.560  63.110  0.00  0.00    -0.204 F 
ATOM     26  C   UNL     1     -11.711  14.727  65.121  0.00  0.00    +0.029 A 
ATOM     27  C   UNL     1     -11.183  14.664  66.395  0.00  0.00    -0.002 A 
ENDBRANCH  20  21
BRANCH  20  28
ATOM     28  C   UNL     1     -11.028  14.168  69.301  0.00  0.00    -0.018 A 
ATOM     29  C   UNL     1     -12.071  13.511  69.945  0.00  0.00    -0.002 A 
ATOM     30  C   UNL     1     -12.719  14.059  71.021  0.00  0.00    +0.029 A 
ATOM     31  C   UNL     1     -12.523  15.406  71.278  0.00  0.00    +0.140 A 
ATOM     32  F   UNL     1     -13.371  16.029  72.123  0.00  0.00    -0.204 F 
ATOM     33  C   UNL     1     -11.597  16.098  70.507  0.00  0.00    +0.029 A 
ATOM     34  C   UNL     1     -10.616  15.346  69.870  0.00  0.00    -0.002 A 
ENDBRANCH  20  28
ENDBRANCH  19  20
ENDBRANCH  18  19
ENDBRANCH   1  18
TORSDOF 7
ENDMDL
MODEL 7
REMARK VINA RESULT:      -8.2      1.689      4.279
REMARK  Name = 
REMARK  7 active torsions:
REMARK  status: ('A' for Active; 'I' for Inactive)
REMARK    1  A    between atoms: N_10  and  C_11
REMARK    2  A    between atoms: N_14  and  C_15
REMARK    3  A    between atoms: C_15  and  C_16
REMARK    4  A    between atoms: C_16  and  C_17
REMARK    5  A    between atoms: C_17  and  C_18
REMARK    6  A    between atoms: C_18  and  C_19
REMARK    7  A    between atoms: C_18  and  C_26
REMARK                            x       y       z     vdW  Elec       q    Type
REMARK                         _______ _______ _______ _____ _____    ______ ____
ROOT
ATOM      1  C   UNL     1     -11.061  12.036  66.333  0.00  0.00    +0.072 C 
ENDROOT
BRANCH   1   5
ATOM      2  C   UNL     1      -9.190  15.639  67.260  0.00  0.00    +0.093 C 
ATOM      3  C   UNL     1     -10.535  15.673  66.573  0.00  0.00    +0.040 C 
ATOM      4  C   UNL     1     -10.669  14.346  65.835  0.00  0.00    +0.074 C 
ATOM      5  N   UNL     1     -10.641  13.310  66.863  0.00  0.00    -0.273 NA
ATOM      6  C   UNL     1      -9.316  13.219  67.461  0.00  0.00    +0.074 C 
ATOM      7  C   UNL     1      -9.054  14.500  68.232  0.00  0.00    +0.040 C 
BRANCH   2  10
ATOM      8  O   UNL     1     -11.024  17.264  68.958  0.00  0.00    -0.244 OA
ATOM      9  C   UNL     1      -9.758  17.666  68.521  0.00  0.00    +0.350 A 
ATOM     10  N   UNL     1      -8.864  16.921  67.829  0.00  0.00    -0.280 N 
ATOM     11  C   UNL     1      -8.050  17.806  67.205  0.00  0.00    +0.082 A 
ATOM     12  C   UNL     1      -8.312  19.046  67.725  0.00  0.00    +0.102 A 
ATOM     13  C   UNL     1      -7.652  20.153  67.214  0.00  0.00    +0.021 A 
ATOM     14  C   UNL     1      -7.011  20.078  65.989  0.00  0.00    +0.002 A 
ATOM     15  C   UNL     1      -6.812  18.849  65.396  0.00  0.00    +0.002 A 
ATOM     16  C   UNL     1      -7.182  17.729  66.124  0.00  0.00    +0.019 A 
ATOM     17  N   UNL     1      -9.372  18.955  68.535  0.00  0.00    -0.191 NA
ENDBRANCH   2  10
ENDBRANCH   1   5
BRANCH   1  18
ATOM     18  C   UNL     1     -11.000  11.012  67.431  0.00  0.00    +0.018 C 
BRANCH  18  19
ATOM     19  C   UNL     1     -12.062  11.189  68.476  0.00  0.00    +0.010 C 
BRANCH  19  20
ATOM     20  C   UNL     1     -11.539  11.404  69.859  0.00  0.00    +0.045 C 
BRANCH  20  21
ATOM     21  C   UNL     1     -11.490  10.182  70.681  0.00  0.00    -0.018 A 
ATOM     22  C   UNL     1     -12.590   9.501  71.137  0.00  0.00    -0.002 A 
ATOM     23  C   UNL     1     -12.462   8.489  72.057  0.00  0.00    +0.029 A 
ATOM     24  C   UNL     1     -11.209   8.076  72.484  0.00  0.00    +0.140 A 
ATOM     25  F   UNL     1     -11.052   7.359  73.629  0.00  0.00    -0.204 F 
ATOM     26  C   UNL     1     -10.132   8.523  71.759  0.00  0.00    +0.029 A 
ATOM     27  C   UNL     1     -10.262   9.558  70.856  0.00  0.00    -0.002 A 
ENDBRANCH  20  21
BRANCH  20  28
ATOM     28  C   UNL     1     -12.223  12.457  70.623  0.00  0.00    -0.018 A 
ATOM     29  C   UNL     1     -12.113  13.757  70.141  0.00  0.00    -0.002 A 
ATOM     30  C   UNL     1     -12.851  14.787  70.659  0.00  0.00    +0.029 A 
ATOM     31  C   UNL     1     -13.491  14.581  71.870  0.00  0.00    +0.140 A 
ATOM     32  F   UNL     1     -13.957  15.654  72.542  0.00  0.00    -0.204 F 
ATOM     33  C   UNL     1     -13.446  13.310  72.433  0.00  0.00    +0.029 A 
ATOM     34  C   UNL     1     -13.187  12.247  71.576  0.00  0.00    -0.002 A 
ENDBRANCH  20  28
ENDBRANCH  19  20
ENDBRANCH  18  19
ENDBRANCH   1  18
TORSDOF 7
ENDMDL
MODEL 8
REMARK VINA RESULT:      -8.1      2.931      7.321
REMARK  Name = 
REMARK  7 active torsions:
REMARK  status: ('A' for Active; 'I' for Inactive)
REMARK    1  A    between atoms: N_10  and  C_11
REMARK    2  A    between atoms: N_14  and  C_15
REMARK    3  A    between atoms: C_15  and  C_16
REMARK    4  A    between atoms: C_16  and  C_17
REMARK    5  A    between atoms: C_17  and  C_18
REMARK    6  A    between atoms: C_18  and  C_19
REMARK    7  A    between atoms: C_18  and  C_26
REMARK                            x       y       z     vdW  Elec       q    Type
REMARK                         _______ _______ _______ _____ _____    ______ ____
ROOT
ATOM      1  C   UNL     1     -10.194  13.549  65.940  0.00  0.00    +0.072 C 
ENDROOT
BRANCH   1   5
ATOM      2  C   UNL     1     -10.055  10.061  68.212  0.00  0.00    +0.093 C 
ATOM      3  C   UNL     1      -9.390  11.307  68.750  0.00  0.00    +0.040 C 
ATOM      4  C   UNL     1      -9.059  12.170  67.538  0.00  0.00    +0.074 C 
ATOM      5  N   UNL     1     -10.339  12.494  66.914  0.00  0.00    -0.273 NA
ATOM      6  C   UNL     1     -10.934  11.307  66.318  0.00  0.00    +0.074 C 
ATOM      7  C   UNL     1     -11.308  10.351  67.436  0.00  0.00    +0.040 C 
BRANCH   2  10
ATOM      8  O   UNL     1      -9.866   7.112  67.820  0.00  0.00    -0.244 OA
ATOM      9  C   UNL     1     -10.228   7.748  69.012  0.00  0.00    +0.350 A 
ATOM     10  N   UNL     1     -10.235   9.080  69.251  0.00  0.00    -0.280 N 
ATOM     11  C   UNL     1     -11.092   9.266  70.283  0.00  0.00    +0.082 A 
ATOM     12  C   UNL     1     -11.390   8.033  70.800  0.00  0.00    +0.102 A 
ATOM     13  C   UNL     1     -12.302   7.931  71.839  0.00  0.00    +0.021 A 
ATOM     14  C   UNL     1     -13.155   8.984  72.123  0.00  0.00    +0.002 A 
ATOM     15  C   UNL     1     -12.935  10.216  71.546  0.00  0.00    +0.002 A 
ATOM     16  C   UNL     1     -11.788  10.360  70.781  0.00  0.00    +0.019 A 
ATOM     17  N   UNL     1     -10.856   7.097  70.008  0.00  0.00    -0.191 NA
ENDBRANCH   2  10
ENDBRANCH   1   5
BRANCH   1  18
ATOM     18  C   UNL     1     -11.114  14.677  66.309  0.00  0.00    +0.018 C 
BRANCH  18  19
ATOM     19  C   UNL     1     -11.804  14.482  67.627  0.00  0.00    +0.010 C 
BRANCH  19  20
ATOM     20  C   UNL     1     -11.680  15.638  68.566  0.00  0.00    +0.045 C 
BRANCH  20  21
ATOM     21  C   UNL     1     -10.383  16.334  68.495  0.00  0.00    -0.018 A 
ATOM     22  C   UNL     1      -9.166  15.752  68.741  0.00  0.00    -0.002 A 
ATOM     23  C   UNL     1      -8.027  16.512  68.846  0.00  0.00    +0.029 A 
ATOM     24  C   UNL     1      -8.068  17.880  68.624  0.00  0.00    +0.140 A 
ATOM     25  F   UNL     1      -7.077  18.699  69.066  0.00  0.00    -0.204 F 
ATOM     26  C   UNL     1      -9.207  18.377  68.041  0.00  0.00    +0.029 A 
ATOM     27  C   UNL     1     -10.356  17.617  67.963  0.00  0.00    -0.002 A 
ENDBRANCH  20  21
BRANCH  20  28
ATOM     28  C   UNL     1     -11.968  15.326  69.973  0.00  0.00    -0.018 A 
ATOM     29  C   UNL     1     -11.677  16.313  70.909  0.00  0.00    -0.002 A 
ATOM     30  C   UNL     1     -12.068  16.209  72.217  0.00  0.00    +0.029 A 
ATOM     31  C   UNL     1     -12.498  14.973  72.669  0.00  0.00    +0.140 A 
ATOM     32  F   UNL     1     -12.590  14.771  74.000  0.00  0.00    -0.204 F 
ATOM     33  C   UNL     1     -12.619  13.938  71.748  0.00  0.00    +0.029 A 
ATOM     34  C   UNL     1     -12.758  14.294  70.412  0.00  0.00    -0.002 A 
ENDBRANCH  20  28
ENDBRANCH  19  20
ENDBRANCH  18  19
ENDBRANCH   1  18
TORSDOF 7
ENDMDL
MODEL 9
REMARK VINA RESULT:      -8.0      3.164      4.447
REMARK  Name = 
REMARK  7 active torsions:
REMARK  status: ('A' for Active; 'I' for Inactive)
REMARK    1  A    between atoms: N_10  and  C_11
REMARK    2  A    between atoms: N_14  and  C_15
REMARK    3  A    between atoms: C_15  and  C_16
REMARK    4  A    between atoms: C_16  and  C_17
REMARK    5  A    between atoms: C_17  and  C_18
REMARK    6  A    between atoms: C_18  and  C_19
REMARK    7  A    between atoms: C_18  and  C_26
REMARK                            x       y       z     vdW  Elec       q    Type
REMARK                         _______ _______ _______ _____ _____    ______ ____
ROOT
ATOM      1  C   UNL     1      -7.509   7.680  68.289  0.00  0.00    +0.072 C 
ENDROOT
BRANCH   1   5
ATOM      2  C   UNL     1      -9.662   9.895  65.496  0.00  0.00    +0.093 C 
ATOM      3  C   UNL     1     -10.391   8.865  66.327  0.00  0.00    +0.040 C 
ATOM      4  C   UNL     1      -9.343   7.846  66.757  0.00  0.00    +0.074 C 
ATOM      5  N   UNL     1      -8.380   8.580  67.573  0.00  0.00    -0.273 NA
ATOM      6  C   UNL     1      -7.616   9.507  66.751  0.00  0.00    +0.074 C 
ATOM      7  C   UNL     1      -8.559  10.585  66.248  0.00  0.00    +0.040 C 
BRANCH   2  10
ATOM      8  O   UNL     1      -9.410  10.924  62.709  0.00  0.00    -0.244 OA
ATOM      9  C   UNL     1     -10.387  11.315  63.631  0.00  0.00    +0.350 A 
ATOM     10  N   UNL     1     -10.586  10.804  64.868  0.00  0.00    -0.280 N 
ATOM     11  C   UNL     1     -11.246  11.762  65.562  0.00  0.00    +0.082 A 
ATOM     12  C   UNL     1     -11.645  12.720  64.667  0.00  0.00    +0.102 A 
ATOM     13  C   UNL     1     -12.296  13.853  65.127  0.00  0.00    +0.021 A 
ATOM     14  C   UNL     1     -12.243  14.192  66.469  0.00  0.00    +0.002 A 
ATOM     15  C   UNL     1     -11.761  13.281  67.385  0.00  0.00    +0.002 A 
ATOM     16  C   UNL     1     -11.448  12.016  66.912  0.00  0.00    +0.019 A 
ATOM     17  N   UNL     1     -11.107  12.441  63.476  0.00  0.00    -0.191 NA
ENDBRANCH   2  10
ENDBRANCH   1   5
BRANCH   1  18
ATOM     18  C   UNL     1      -8.254   7.122  69.468  0.00  0.00    +0.018 C 
BRANCH  18  19
ATOM     19  C   UNL     1      -8.964   8.166  70.278  0.00  0.00    +0.010 C 
BRANCH  19  20
ATOM     20  C   UNL     1     -10.326   7.766  70.745  0.00  0.00    +0.045 C 
BRANCH  20  21
ATOM     21  C   UNL     1     -11.264   8.892  70.898  0.00  0.00    -0.018 A 
ATOM     22  C   UNL     1     -11.177  10.082  70.223  0.00  0.00    -0.002 A 
ATOM     23  C   UNL     1     -11.972  11.149  70.566  0.00  0.00    +0.029 A 
ATOM     24  C   UNL     1     -12.941  11.020  71.549  0.00  0.00    +0.140 A 
ATOM     25  F   UNL     1     -13.479  12.110  72.159  0.00  0.00    -0.204 F 
ATOM     26  C   UNL     1     -13.245   9.744  71.953  0.00  0.00    +0.029 A 
ATOM     27  C   UNL     1     -12.427   8.681  71.628  0.00  0.00    -0.002 A 
ENDBRANCH  20  21
BRANCH  20  28
ATOM     28  C   UNL     1     -10.347   6.967  71.978  0.00  0.00    -0.018 A 
ATOM     29  C   UNL     1     -10.790   5.653  71.868  0.00  0.00    -0.002 A 
ATOM     30  C   UNL     1     -10.683   4.763  72.904  0.00  0.00    +0.029 A 
ATOM     31  C   UNL     1     -10.402   5.265  74.164  0.00  0.00    +0.140 A 
ATOM     32  F   UNL     1     -10.595   4.465  75.233  0.00  0.00    -0.204 F 
ATOM     33  C   UNL     1     -10.130   6.623  74.288  0.00  0.00    +0.029 A 
ATOM     34  C   UNL     1      -9.703   7.290  73.146  0.00  0.00    -0.002 A 
ENDBRANCH  20  28
ENDBRANCH  19  20
ENDBRANCH  18  19
ENDBRANCH   1  18
TORSDOF 7
ENDMDL
