MODEL 1
REMARK VINA RESULT:      -5.8      0.000      0.000
REMARK  Name = 
REMARK  9 active torsions:
REMARK  status: ('A' for Active; 'I' for Inactive)
REMARK    1  A    between atoms: O_2  and  C_3
REMARK    2  A    between atoms: C_5  and  C_6
REMARK    3  A    between atoms: C_6  and  N_7
REMARK    4  A    between atoms: C_8  and  C_10
REMARK    5  A    between atoms: C_10  and  C_11
REMARK    6  A    between atoms: C_11  and  C_12
REMARK    7  A    between atoms: C_12  and  C_13
REMARK    8  A    between atoms: C_13  and  C_14
REMARK    9  A    between atoms: C_15  and  C_16
REMARK                            x       y       z     vdW  Elec       q    Type
REMARK                         _______ _______ _______ _____ _____    ______ ____
ROOT
ATOM      1  N   UNL     1     -10.193  11.106  66.724  0.00  0.00    -0.201 NA
ATOM      2  C   UNL     1     -10.359  10.979  68.142  0.00  0.00    +0.242 C 
ATOM      3  O   UNL     1      -9.315  11.250  68.811  0.00  0.00    -0.273 OA
ENDROOT
BRANCH   2   4
ATOM      4  C   UNL     1     -11.711  10.944  68.783  0.00  0.00    +0.087 C 
BRANCH   4   5
ATOM      5  C   UNL     1     -11.870  11.999  69.839  0.00  0.00    +0.010 C 
BRANCH   5   6
ATOM      6  C   UNL     1     -12.140  13.340  69.216  0.00  0.00    +0.005 C 
BRANCH   6   7
ATOM      7  C   UNL     1     -11.030  14.338  69.522  0.00  0.00    +0.026 C 
BRANCH   7   8
ATOM      8  C   UNL     1     -11.525  15.174  70.664  0.00  0.00    -0.031 C 
ATOM      9  C   UNL     1     -12.816  15.498  70.797  0.00  0.00    -0.031 C 
BRANCH   9  10
ATOM     10  C   UNL     1     -13.526  15.473  72.100  0.00  0.00    +0.022 C 
ATOM     11  C   UNL     1     -14.358  14.208  72.269  0.00  0.00    +0.005 C 
ATOM     12  C   UNL     1     -12.516  15.592  73.236  0.00  0.00    +0.005 C 
ENDBRANCH   9  10
ENDBRANCH   7   8
ENDBRANCH   6   7
ENDBRANCH   5   6
ENDBRANCH   4   5
ENDBRANCH   2   4
BRANCH   1  13
ATOM     13  C   UNL     1      -9.417  12.173  66.122  0.00  0.00    +0.142 C 
BRANCH  13  19
ATOM     14  C   UNL     1     -10.132  15.818  65.694  0.00  0.00    +0.177 A 
ATOM     15  C   UNL     1     -11.202  15.693  64.818  0.00  0.00    +0.229 A 
ATOM     16  O   UNL     1     -11.514  16.683  63.894  0.00  0.00    -0.283 OA
ATOM     17  C   UNL     1     -11.924  14.508  64.839  0.00  0.00    +0.045 A 
ATOM     18  C   UNL     1     -11.431  13.468  65.619  0.00  0.00    +0.001 A 
ATOM     19  C   UNL     1     -10.121  13.465  66.086  0.00  0.00    +0.003 A 
ATOM     20  C   UNL     1      -9.507  14.684  66.198  0.00  0.00    +0.038 A 
BRANCH  14  22
ATOM     21  C   UNL     1      -9.876  18.055  66.562  0.00  0.00    +0.253 C 
ATOM     22  O   UNL     1      -9.458  17.018  65.706  0.00  0.00    -0.468 OA
ENDBRANCH  14  22
ENDBRANCH  13  19
ENDBRANCH   1  13
TORSDOF 9
ENDMDL
MODEL 2
REMARK VINA RESULT:      -5.8      2.452      5.841
REMARK  Name = 
REMARK  9 active torsions:
REMARK  status: ('A' for Active; 'I' for Inactive)
REMARK    1  A    between atoms: O_2  and  C_3
REMARK    2  A    between atoms: C_5  and  C_6
REMARK    3  A    between atoms: C_6  and  N_7
REMARK    4  A    between atoms: C_8  and  C_10
REMARK    5  A    between atoms: C_10  and  C_11
REMARK    6  A    between atoms: C_11  and  C_12
REMARK    7  A    between atoms: C_12  and  C_13
REMARK    8  A    between atoms: C_13  and  C_14
REMARK    9  A    between atoms: C_15  and  C_16
REMARK                            x       y       z     vdW  Elec       q    Type
REMARK                         _______ _______ _______ _____ _____    ______ ____
ROOT
ATOM      1  N   UNL     1     -12.062  11.139  68.697  0.00  0.00    -0.201 NA
ATOM      2  C   UNL     1     -10.801  10.830  68.089  0.00  0.00    +0.242 C 
ATOM      3  O   UNL     1      -9.796  11.211  68.764  0.00  0.00    -0.273 OA
ENDROOT
BRANCH   2   4
ATOM      4  C   UNL     1     -10.673   9.808  67.003  0.00  0.00    +0.087 C 
BRANCH   4   5
ATOM      5  C   UNL     1      -9.422   9.989  66.194  0.00  0.00    +0.010 C 
BRANCH   5   6
ATOM      6  C   UNL     1      -9.553  11.161  65.262  0.00  0.00    +0.005 C 
BRANCH   6   7
ATOM      7  C   UNL     1     -10.597  10.909  64.182  0.00  0.00    +0.026 C 
BRANCH   7   8
ATOM      8  C   UNL     1     -11.384  12.179  64.058  0.00  0.00    -0.031 C 
ATOM      9  C   UNL     1     -12.356  12.496  64.922  0.00  0.00    -0.031 C 
BRANCH   9  10
ATOM     10  C   UNL     1     -12.541  13.866  65.463  0.00  0.00    +0.022 C 
ATOM     11  C   UNL     1     -11.656  14.121  66.676  0.00  0.00    +0.005 C 
ATOM     12  C   UNL     1     -12.247  14.890  64.373  0.00  0.00    +0.005 C 
ENDBRANCH   9  10
ENDBRANCH   7   8
ENDBRANCH   6   7
ENDBRANCH   5   6
ENDBRANCH   4   5
ENDBRANCH   2   4
BRANCH   1  13
ATOM     13  C   UNL     1     -12.286  11.033  70.126  0.00  0.00    +0.142 C 
BRANCH  13  19
ATOM     14  C   UNL     1     -12.670  14.705  70.715  0.00  0.00    +0.177 A 
ATOM     15  C   UNL     1     -13.774  14.642  71.554  0.00  0.00    +0.229 A 
ATOM     16  O   UNL     1     -14.691  15.683  71.642  0.00  0.00    -0.283 OA
ATOM     17  C   UNL     1     -13.984  13.468  72.265  0.00  0.00    +0.045 A 
ATOM     18  C   UNL     1     -13.169  12.381  71.967  0.00  0.00    +0.001 A 
ATOM     19  C   UNL     1     -12.413  12.336  70.800  0.00  0.00    +0.003 A 
ATOM     20  C   UNL     1     -12.098  13.538  70.225  0.00  0.00    +0.038 A 
BRANCH  14  22
ATOM     21  C   UNL     1     -11.123  16.286  69.751  0.00  0.00    +0.253 C 
ATOM     22  O   UNL     1     -12.439  15.894  70.059  0.00  0.00    -0.468 OA
ENDBRANCH  14  22
ENDBRANCH  13  19
ENDBRANCH   1  13
TORSDOF 9
ENDMDL
MODEL 3
REMARK VINA RESULT:      -5.7      2.152      4.568
REMARK  Name = 
REMARK  9 active torsions:
REMARK  status: ('A' for Active; 'I' for Inactive)
REMARK    1  A    between atoms: O_2  and  C_3
REMARK    2  A    between atoms: C_5  and  C_6
REMARK    3  A    between atoms: C_6  and  N_7
REMARK    4  A    between atoms: C_8  and  C_10
REMARK    5  A    between atoms: C_10  and  C_11
REMARK    6  A    between atoms: C_11  and  C_12
REMARK    7  A    between atoms: C_12  and  C_13
REMARK    8  A    between atoms: C_13  and  C_14
REMARK    9  A    between atoms: C_15  and  C_16
REMARK                            x       y       z     vdW  Elec       q    Type
REMARK                         _______ _______ _______ _____ _____    ______ ____
ROOT
ATOM      1  N   UNL     1     -10.011  16.262  65.456  0.00  0.00    -0.201 NA
ATOM      2  C   UNL     1      -9.974  17.471  66.225  0.00  0.00    +0.242 C 
ATOM      3  O   UNL     1     -10.566  18.450  65.675  0.00  0.00    -0.273 OA
ENDROOT
BRANCH   2   4
ATOM      4  C   UNL     1      -9.650  17.473  67.685  0.00  0.00    +0.087 C 
BRANCH   4   5
ATOM      5  C   UNL     1      -9.013  16.189  68.131  0.00  0.00    +0.010 C 
BRANCH   5   6
ATOM      6  C   UNL     1      -9.848  15.516  69.184  0.00  0.00    +0.005 C 
BRANCH   6   7
ATOM      7  C   UNL     1     -11.207  16.188  69.342  0.00  0.00    +0.026 C 
BRANCH   7   8
ATOM      8  C   UNL     1     -11.544  16.107  70.800  0.00  0.00    -0.031 C 
ATOM      9  C   UNL     1     -12.658  15.510  71.237  0.00  0.00    -0.031 C 
BRANCH   9  10
ATOM     10  C   UNL     1     -12.688  14.625  72.428  0.00  0.00    +0.022 C 
ATOM     11  C   UNL     1     -12.788  15.421  73.724  0.00  0.00    +0.005 C 
ATOM     12  C   UNL     1     -13.859  13.656  72.316  0.00  0.00    +0.005 C 
ENDBRANCH   9  10
ENDBRANCH   7   8
ENDBRANCH   6   7
ENDBRANCH   5   6
ENDBRANCH   4   5
ENDBRANCH   2   4
BRANCH   1  13
ATOM     13  C   UNL     1     -11.182  15.848  64.708  0.00  0.00    +0.142 C 
BRANCH  13  19
ATOM     14  C   UNL     1     -11.431  12.119  64.831  0.00  0.00    +0.177 A 
ATOM     15  C   UNL     1     -11.389  11.978  66.212  0.00  0.00    +0.229 A 
ATOM     16  O   UNL     1     -10.891  10.831  66.818  0.00  0.00    -0.283 OA
ATOM     17  C   UNL     1     -11.799  13.053  66.988  0.00  0.00    +0.045 A 
ATOM     18  C   UNL     1     -12.071  14.251  66.336  0.00  0.00    +0.001 A 
ATOM     19  C   UNL     1     -11.638  14.486  65.035  0.00  0.00    +0.003 A 
ATOM     20  C   UNL     1     -11.400  13.384  64.258  0.00  0.00    +0.038 A 
BRANCH  14  22
ATOM     21  C   UNL     1      -9.938  11.080  63.246  0.00  0.00    +0.253 C 
ATOM     22  O   UNL     1     -11.077  11.027  64.071  0.00  0.00    -0.468 OA
ENDBRANCH  14  22
ENDBRANCH  13  19
ENDBRANCH   1  13
TORSDOF 9
ENDMDL
MODEL 4
REMARK VINA RESULT:      -5.7      2.113      3.814
REMARK  Name = 
REMARK  9 active torsions:
REMARK  status: ('A' for Active; 'I' for Inactive)
REMARK    1  A    between atoms: O_2  and  C_3
REMARK    2  A    between atoms: C_5  and  C_6
REMARK    3  A    between atoms: C_6  and  N_7
REMARK    4  A    between atoms: C_8  and  C_10
REMARK    5  A    between atoms: C_10  and  C_11
REMARK    6  A    between atoms: C_11  and  C_12
REMARK    7  A    between atoms: C_12  and  C_13
REMARK    8  A    between atoms: C_13  and  C_14
REMARK    9  A    between atoms: C_15  and  C_16
REMARK                            x       y       z     vdW  Elec       q    Type
REMARK                         _______ _______ _______ _____ _____    ______ ____
ROOT
ATOM      1  N   UNL     1      -9.645  15.963  67.933  0.00  0.00    -0.201 NA
ATOM      2  C   UNL     1     -10.816  16.611  68.448  0.00  0.00    +0.242 C 
ATOM      3  O   UNL     1     -11.023  17.765  67.962  0.00  0.00    -0.273 OA
ENDROOT
BRANCH   2   4
ATOM      4  C   UNL     1     -11.897  15.852  69.152  0.00  0.00    +0.087 C 
BRANCH   4   5
ATOM      5  C   UNL     1     -11.937  14.407  68.749  0.00  0.00    +0.010 C 
BRANCH   5   6
ATOM      6  C   UNL     1     -11.271  13.545  69.785  0.00  0.00    +0.005 C 
BRANCH   6   7
ATOM      7  C   UNL     1     -12.156  12.378  70.203  0.00  0.00    +0.026 C 
BRANCH   7   8
ATOM      8  C   UNL     1     -13.139  12.933  71.189  0.00  0.00    -0.031 C 
ATOM      9  C   UNL     1     -12.748  13.623  72.266  0.00  0.00    -0.031 C 
BRANCH   9  10
ATOM     10  C   UNL     1     -13.436  14.853  72.733  0.00  0.00    +0.022 C 
ATOM     11  C   UNL     1     -12.472  16.025  72.868  0.00  0.00    +0.005 C 
ATOM     12  C   UNL     1     -14.562  15.207  71.767  0.00  0.00    +0.005 C 
ENDBRANCH   9  10
ENDBRANCH   7   8
ENDBRANCH   6   7
ENDBRANCH   5   6
ENDBRANCH   4   5
ENDBRANCH   2   4
BRANCH   1  13
ATOM     13  C   UNL     1      -9.253  16.052  66.540  0.00  0.00    +0.142 C 
BRANCH  13  19
ATOM     14  C   UNL     1     -10.795  12.868  65.327  0.00  0.00    +0.177 A 
ATOM     15  C   UNL     1     -12.015  13.397  64.926  0.00  0.00    +0.229 A 
ATOM     16  O   UNL     1     -13.178  12.635  64.916  0.00  0.00    -0.283 OA
ATOM     17  C   UNL     1     -12.062  14.743  64.593  0.00  0.00    +0.045 A 
ATOM     18  C   UNL     1     -10.926  15.507  64.839  0.00  0.00    +0.001 A 
ATOM     19  C   UNL     1      -9.913  15.056  65.678  0.00  0.00    +0.003 A 
ATOM     20  C   UNL     1      -9.811  13.701  65.845  0.00  0.00    +0.038 A 
BRANCH  14  22
ATOM     21  C   UNL     1     -10.216  10.627  64.649  0.00  0.00    +0.253 C 
ATOM     22  O   UNL     1     -10.746  11.520  65.598  0.00  0.00    -0.468 OA
ENDBRANCH  14  22
ENDBRANCH  13  19
ENDBRANCH   1  13
TORSDOF 9
ENDMDL
MODEL 5
REMARK VINA RESULT:      -5.6      1.635      4.755
REMARK  Name = 
REMARK  9 active torsions:
REMARK  status: ('A' for Active; 'I' for Inactive)
REMARK    1  A    between atoms: O_2  and  C_3
REMARK    2  A    between atoms: C_5  and  C_6
REMARK    3  A    between atoms: C_6  and  N_7
REMARK    4  A    between atoms: C_8  and  C_10
REMARK    5  A    between atoms: C_10  and  C_11
REMARK    6  A    between atoms: C_11  and  C_12
REMARK    7  A    between atoms: C_12  and  C_13
REMARK    8  A    between atoms: C_13  and  C_14
REMARK    9  A    between atoms: C_15  and  C_16
REMARK                            x       y       z     vdW  Elec       q    Type
REMARK                         _______ _______ _______ _____ _____    ______ ____
ROOT
ATOM      1  N   UNL     1     -10.300  14.753  65.009  0.00  0.00    -0.201 NA
ATOM      2  C   UNL     1     -10.592  16.152  65.126  0.00  0.00    +0.242 C 
ATOM      3  O   UNL     1     -11.400  16.585  64.248  0.00  0.00    -0.273 OA
ENDROOT
BRANCH   2   4
ATOM      4  C   UNL     1     -10.314  16.918  66.381  0.00  0.00    +0.087 C 
BRANCH   4   5
ATOM      5  C   UNL     1      -9.936  16.022  67.525  0.00  0.00    +0.010 C 
BRANCH   5   6
ATOM      6  C   UNL     1     -11.025  15.992  68.560  0.00  0.00    +0.005 C 
BRANCH   6   7
ATOM      7  C   UNL     1     -10.510  15.502  69.908  0.00  0.00    +0.026 C 
BRANCH   7   8
ATOM      8  C   UNL     1     -11.547  15.892  70.918  0.00  0.00    -0.031 C 
ATOM      9  C   UNL     1     -12.840  15.591  70.756  0.00  0.00    -0.031 C 
BRANCH   9  10
ATOM     10  C   UNL     1     -13.701  15.102  71.862  0.00  0.00    +0.022 C 
ATOM     11  C   UNL     1     -13.533  13.605  72.092  0.00  0.00    +0.005 C 
ATOM     12  C   UNL     1     -13.377  15.869  73.139  0.00  0.00    +0.005 C 
ENDBRANCH   9  10
ENDBRANCH   7   8
ENDBRANCH   6   7
ENDBRANCH   5   6
ENDBRANCH   4   5
ENDBRANCH   2   4
BRANCH   1  13
ATOM     13  C   UNL     1     -11.308  13.772  64.657  0.00  0.00    +0.142 C 
BRANCH  13  19
ATOM     14  C   UNL     1     -10.559  10.743  66.716  0.00  0.00    +0.177 A 
ATOM     15  C   UNL     1     -10.759  11.316  67.965  0.00  0.00    +0.229 A 
ATOM     16  O   UNL     1     -10.102  10.854  69.100  0.00  0.00    -0.283 OA
ATOM     17  C   UNL     1     -11.592  12.423  68.046  0.00  0.00    +0.045 A 
ATOM     18  C   UNL     1     -12.040  12.980  66.853  0.00  0.00    +0.001 A 
ATOM     19  C   UNL     1     -11.435  12.681  65.638  0.00  0.00    +0.003 A 
ATOM     20  C   UNL     1     -10.756  11.494  65.565  0.00  0.00    +0.038 A 
BRANCH  14  22
ATOM     21  C   UNL     1     -10.375   8.337  66.692  0.00  0.00    +0.253 C 
ATOM     22  O   UNL     1      -9.777   9.611  66.656  0.00  0.00    -0.468 OA
ENDBRANCH  14  22
ENDBRANCH  13  19
ENDBRANCH   1  13
TORSDOF 9
ENDMDL
MODEL 6
REMARK VINA RESULT:      -5.5      2.447      4.463
REMARK  Name = 
REMARK  9 active torsions:
REMARK  status: ('A' for Active; 'I' for Inactive)
REMARK    1  A    between atoms: O_2  and  C_3
REMARK    2  A    between atoms: C_5  and  C_6
REMARK    3  A    between atoms: C_6  and  N_7
REMARK    4  A    between atoms: C_8  and  C_10
REMARK    5  A    between atoms: C_10  and  C_11
REMARK    6  A    between atoms: C_11  and  C_12
REMARK    7  A    between atoms: C_12  and  C_13
REMARK    8  A    between atoms: C_13  and  C_14
REMARK    9  A    between atoms: C_15  and  C_16
REMARK                            x       y       z     vdW  Elec       q    Type
REMARK                         _______ _______ _______ _____ _____    ______ ____
ROOT
ATOM      1  N   UNL     1      -9.647  15.739  67.910  0.00  0.00    -0.201 NA
ATOM      2  C   UNL     1     -10.784  16.401  68.478  0.00  0.00    +0.242 C 
ATOM      3  O   UNL     1     -10.936  17.598  68.083  0.00  0.00    -0.273 OA
ENDROOT
BRANCH   2   4
ATOM      4  C   UNL     1     -11.899  15.645  69.129  0.00  0.00    +0.087 C 
BRANCH   4   5
ATOM      5  C   UNL     1     -12.147  14.317  68.474  0.00  0.00    +0.010 C 
BRANCH   5   6
ATOM      6  C   UNL     1     -11.814  13.190  69.411  0.00  0.00    +0.005 C 
BRANCH   6   7
ATOM      7  C   UNL     1     -10.939  12.138  68.740  0.00  0.00    +0.026 C 
BRANCH   7   8
ATOM      8  C   UNL     1     -11.547  10.811  69.081  0.00  0.00    -0.031 C 
ATOM      9  C   UNL     1     -11.200  10.135  70.182  0.00  0.00    -0.031 C 
BRANCH   9  10
ATOM     10  C   UNL     1     -12.185   9.438  71.046  0.00  0.00    +0.022 C 
ATOM     11  C   UNL     1     -11.503   8.570  72.096  0.00  0.00    +0.005 C 
ATOM     12  C   UNL     1     -13.091  10.463  71.719  0.00  0.00    +0.005 C 
ENDBRANCH   9  10
ENDBRANCH   7   8
ENDBRANCH   6   7
ENDBRANCH   5   6
ENDBRANCH   4   5
ENDBRANCH   2   4
BRANCH   1  13
ATOM     13  C   UNL     1      -9.254  15.915  66.525  0.00  0.00    +0.142 C 
BRANCH  13  19
ATOM     14  C   UNL     1     -10.778  12.827  65.068  0.00  0.00    +0.177 A 
ATOM     15  C   UNL     1     -12.030  13.357  64.784  0.00  0.00    +0.229 A 
ATOM     16  O   UNL     1     -13.172  12.566  64.753  0.00  0.00    -0.283 OA
ATOM     17  C   UNL     1     -12.127  14.728  64.595  0.00  0.00    +0.045 A 
ATOM     18  C   UNL     1     -10.999  15.497  64.862  0.00  0.00    +0.001 A 
ATOM     19  C   UNL     1      -9.933  14.993  65.599  0.00  0.00    +0.003 A 
ATOM     20  C   UNL     1      -9.789  13.632  65.620  0.00  0.00    +0.038 A 
BRANCH  14  22
ATOM     21  C   UNL     1      -9.464  10.870  65.582  0.00  0.00    +0.253 C 
ATOM     22  O   UNL     1     -10.682  11.460  65.196  0.00  0.00    -0.468 OA
ENDBRANCH  14  22
ENDBRANCH  13  19
ENDBRANCH   1  13
TORSDOF 9
ENDMDL
MODEL 7
REMARK VINA RESULT:      -5.5      2.543      5.939
REMARK  Name = 
REMARK  9 active torsions:
REMARK  status: ('A' for Active; 'I' for Inactive)
REMARK    1  A    between atoms: O_2  and  C_3
REMARK    2  A    between atoms: C_5  and  C_6
REMARK    3  A    between atoms: C_6  and  N_7
REMARK    4  A    between atoms: C_8  and  C_10
REMARK    5  A    between atoms: C_10  and  C_11
REMARK    6  A    between atoms: C_11  and  C_12
REMARK    7  A    between atoms: C_12  and  C_13
REMARK    8  A    between atoms: C_13  and  C_14
REMARK    9  A    between atoms: C_15  and  C_16
REMARK                            x       y       z     vdW  Elec       q    Type
REMARK                         _______ _______ _______ _____ _____    ______ ____
ROOT
ATOM      1  N   UNL     1     -11.026  12.589  67.347  0.00  0.00    -0.201 NA
ATOM      2  C   UNL     1     -11.690  13.031  66.155  0.00  0.00    +0.242 C 
ATOM      3  O   UNL     1     -12.371  12.128  65.579  0.00  0.00    -0.273 OA
ENDROOT
BRANCH   2   4
ATOM      4  C   UNL     1     -11.903  14.481  65.857  0.00  0.00    +0.087 C 
BRANCH   4   5
ATOM      5  C   UNL     1     -10.974  15.367  66.636  0.00  0.00    +0.010 C 
BRANCH   5   6
ATOM      6  C   UNL     1      -9.861  15.873  65.761  0.00  0.00    +0.005 C 
BRANCH   6   7
ATOM      7  C   UNL     1      -8.501  15.719  66.431  0.00  0.00    +0.026 C 
BRANCH   7   8
ATOM      8  C   UNL     1      -8.178  17.055  67.029  0.00  0.00    -0.031 C 
ATOM      9  C   UNL     1      -8.547  18.200  66.444  0.00  0.00    -0.031 C 
BRANCH   9  10
ATOM     10  C   UNL     1      -9.093  19.355  67.200  0.00  0.00    +0.022 C 
ATOM     11  C   UNL     1     -10.616  19.341  67.235  0.00  0.00    +0.005 C 
ATOM     12  C   UNL     1      -8.535  19.348  68.618  0.00  0.00    +0.005 C 
ENDBRANCH   9  10
ENDBRANCH   7   8
ENDBRANCH   6   7
ENDBRANCH   5   6
ENDBRANCH   4   5
ENDBRANCH   2   4
BRANCH   1  13
ATOM     13  C   UNL     1     -11.643  11.678  68.291  0.00  0.00    +0.142 C 
BRANCH  13  19
ATOM     14  C   UNL     1     -12.545  14.019  71.063  0.00  0.00    +0.177 A 
ATOM     15  C   UNL     1     -13.320  13.136  71.804  0.00  0.00    +0.229 A 
ATOM     16  O   UNL     1     -14.354  13.575  72.623  0.00  0.00    -0.283 OA
ATOM     17  C   UNL     1     -13.078  11.778  71.656  0.00  0.00    +0.045 A 
ATOM     18  C   UNL     1     -12.191  11.387  70.658  0.00  0.00    +0.001 A 
ATOM     19  C   UNL     1     -11.818  12.253  69.635  0.00  0.00    +0.003 A 
ATOM     20  C   UNL     1     -11.926  13.593  69.895  0.00  0.00    +0.038 A 
BRANCH  14  22
ATOM     21  C   UNL     1     -11.963  16.074  72.187  0.00  0.00    +0.253 C 
ATOM     22  O   UNL     1     -12.753  15.365  71.262  0.00  0.00    -0.468 OA
ENDBRANCH  14  22
ENDBRANCH  13  19
ENDBRANCH   1  13
TORSDOF 9
ENDMDL
MODEL 8
REMARK VINA RESULT:      -5.4      1.556      2.379
REMARK  Name = 
REMARK  9 active torsions:
REMARK  status: ('A' for Active; 'I' for Inactive)
REMARK    1  A    between atoms: O_2  and  C_3
REMARK    2  A    between atoms: C_5  and  C_6
REMARK    3  A    between atoms: C_6  and  N_7
REMARK    4  A    between atoms: C_8  and  C_10
REMARK    5  A    between atoms: C_10  and  C_11
REMARK    6  A    between atoms: C_11  and  C_12
REMARK    7  A    between atoms: C_12  and  C_13
REMARK    8  A    between atoms: C_13  and  C_14
REMARK    9  A    between atoms: C_15  and  C_16
REMARK                            x       y       z     vdW  Elec       q    Type
REMARK                         _______ _______ _______ _____ _____    ______ ____
ROOT
ATOM      1  N   UNL     1     -12.009  11.621  67.186  0.00  0.00    -0.201 NA
ATOM      2  C   UNL     1     -11.006  10.766  67.749  0.00  0.00    +0.242 C 
ATOM      3  O   UNL     1     -10.361  10.091  66.890  0.00  0.00    -0.273 OA
ENDROOT
BRANCH   2   4
ATOM      4  C   UNL     1     -10.491  10.957  69.141  0.00  0.00    +0.087 C 
BRANCH   4   5
ATOM      5  C   UNL     1     -11.493  10.550  70.182  0.00  0.00    +0.010 C 
BRANCH   5   6
ATOM      6  C   UNL     1     -12.375  11.710  70.555  0.00  0.00    +0.005 C 
BRANCH   6   7
ATOM      7  C   UNL     1     -13.063  11.487  71.896  0.00  0.00    +0.026 C 
BRANCH   7   8
ATOM      8  C   UNL     1     -13.721  12.788  72.247  0.00  0.00    -0.031 C 
ATOM      9  C   UNL     1     -13.016  13.910  72.432  0.00  0.00    -0.031 C 
BRANCH   9  10
ATOM     10  C   UNL     1     -13.448  15.231  71.910  0.00  0.00    +0.022 C 
ATOM     11  C   UNL     1     -12.568  15.702  70.759  0.00  0.00    +0.005 C 
ATOM     12  C   UNL     1     -14.903  15.153  71.462  0.00  0.00    +0.005 C 
ENDBRANCH   9  10
ENDBRANCH   7   8
ENDBRANCH   6   7
ENDBRANCH   5   6
ENDBRANCH   4   5
ENDBRANCH   2   4
BRANCH   1  13
ATOM     13  C   UNL     1     -11.805  12.355  65.952  0.00  0.00    +0.142 C 
BRANCH  13  19
ATOM     14  C   UNL     1     -10.599  15.663  67.212  0.00  0.00    +0.177 A 
ATOM     15  C   UNL     1     -10.292  16.226  65.981  0.00  0.00    +0.229 A 
ATOM     16  O   UNL     1      -9.308  17.199  65.844  0.00  0.00    -0.283 OA
ATOM     17  C   UNL     1     -10.952  15.742  64.861  0.00  0.00    +0.045 A 
ATOM     18  C   UNL     1     -11.755  14.618  65.023  0.00  0.00    +0.001 A 
ATOM     19  C   UNL     1     -11.653  13.807  66.148  0.00  0.00    +0.003 A 
ATOM     20  C   UNL     1     -11.140  14.385  67.278  0.00  0.00    +0.038 A 
BRANCH  14  22
ATOM     21  C   UNL     1      -9.179  15.372  69.141  0.00  0.00    +0.253 C 
ATOM     22  O   UNL     1      -9.982  16.190  68.323  0.00  0.00    -0.468 OA
ENDBRANCH  14  22
ENDBRANCH  13  19
ENDBRANCH   1  13
TORSDOF 9
ENDMDL
MODEL 9
REMARK VINA RESULT:      -5.4      2.774      5.978
REMARK  Name = 
REMARK  9 active torsions:
REMARK  status: ('A' for Active; 'I' for Inactive)
REMARK    1  A    between atoms: O_2  and  C_3
REMARK    2  A    between atoms: C_5  and  C_6
REMARK    3  A    between atoms: C_6  and  N_7
REMARK    4  A    between atoms: C_8  and  C_10
REMARK    5  A    between atoms: C_10  and  C_11
REMARK    6  A    between atoms: C_11  and  C_12
REMARK    7  A    between atoms: C_12  and  C_13
REMARK    8  A    between atoms: C_13  and  C_14
REMARK    9  A    between atoms: C_15  and  C_16
REMARK                            x       y       z     vdW  Elec       q    Type
REMARK                         _______ _______ _______ _____ _____    ______ ____
ROOT
ATOM      1  N   UNL     1     -11.689  15.111  67.542  0.00  0.00    -0.201 NA
ATOM      2  C   UNL     1     -10.793  14.891  66.445  0.00  0.00    +0.242 C 
ATOM      3  O   UNL     1     -10.133  15.920  66.103  0.00  0.00    -0.273 OA
ENDROOT
BRANCH   2   4
ATOM      4  C   UNL     1     -10.372  13.517  66.027  0.00  0.00    +0.087 C 
BRANCH   4   5
ATOM      5  C   UNL     1      -9.238  12.990  66.857  0.00  0.00    +0.010 C 
BRANCH   5   6
ATOM      6  C   UNL     1      -9.733  11.982  67.856  0.00  0.00    +0.005 C 
BRANCH   6   7
ATOM      7  C   UNL     1     -11.019  11.311  67.392  0.00  0.00    +0.026 C 
BRANCH   7   8
ATOM      8  C   UNL     1     -11.393  10.337  68.469  0.00  0.00    -0.031 C 
ATOM      9  C   UNL     1     -10.543  10.000  69.445  0.00  0.00    -0.031 C 
BRANCH   9  10
ATOM     10  C   UNL     1     -10.955   9.859  70.863  0.00  0.00    +0.022 C 
ATOM     11  C   UNL     1     -12.430   9.500  70.993  0.00  0.00    +0.005 C 
ATOM     12  C   UNL     1     -10.095   8.800  71.543  0.00  0.00    +0.005 C 
ENDBRANCH   9  10
ENDBRANCH   7   8
ENDBRANCH   6   7
ENDBRANCH   5   6
ENDBRANCH   4   5
ENDBRANCH   2   4
BRANCH   1  13
ATOM     13  C   UNL     1     -11.343  15.943  68.677  0.00  0.00    +0.142 C 
BRANCH  13  19
ATOM     14  C   UNL     1     -12.634  15.242  72.116  0.00  0.00    +0.177 A 
ATOM     15  C   UNL     1     -13.128  13.968  71.869  0.00  0.00    +0.229 A 
ATOM     16  O   UNL     1     -14.192  13.440  72.592  0.00  0.00    -0.283 OA
ATOM     17  C   UNL     1     -12.572  13.246  70.823  0.00  0.00    +0.045 A 
ATOM     18  C   UNL     1     -11.673  13.906  69.992  0.00  0.00    +0.001 A 
ATOM     19  C   UNL     1     -11.578  15.293  69.978  0.00  0.00    +0.003 A 
ATOM     20  C   UNL     1     -11.995  15.949  71.105  0.00  0.00    +0.038 A 
BRANCH  14  22
ATOM     21  C   UNL     1     -12.470  15.926  74.424  0.00  0.00    +0.253 C 
ATOM     22  O   UNL     1     -13.152  15.926  73.192  0.00  0.00    -0.468 OA
ENDBRANCH  14  22
ENDBRANCH  13  19
ENDBRANCH   1  13
TORSDOF 9
ENDMDL
