MODEL 1
REMARK VINA RESULT:      -7.7      0.000      0.000
REMARK  Name = 
REMARK  5 active torsions:
REMARK  status: ('A' for Active; 'I' for Inactive)
REMARK    1  A    between atoms: C_2  and  O_3
REMARK    2  A    between atoms: C_2  and  C_16
REMARK    3  A    between atoms: O_3  and  C_4
REMARK    4  A    between atoms: C_16  and  C_18
REMARK    5  A    between atoms: C_16  and  C_24
REMARK                            x       y       z     vdW  Elec       q    Type
REMARK                         _______ _______ _______ _____ _____    ______ ____
ROOT
ATOM      1  O   UNL     1      -8.482  14.037  68.746  0.00  0.00    -0.247 OA
ATOM      2  C   UNL     1      -9.666  14.015  68.313  0.00  0.00    +0.353 C 
ENDROOT
BRANCH   2   3
ATOM      3  C   UNL     1     -10.259  12.829  67.655  0.00  0.00    +0.252 C 
ATOM      4  O   UNL     1      -9.344  11.774  67.503  0.00  0.00    -0.205 OA
BRANCH   3   5
ATOM      5  C   UNL     1     -11.403  12.400  68.496  0.00  0.00    +0.019 A 
ATOM      6  C   UNL     1     -11.734  11.063  68.680  0.00  0.00    -0.001 A 
ATOM      7  C   UNL     1     -11.948  10.565  69.960  0.00  0.00    -0.000 A 
ATOM      8  C   UNL     1     -12.373  11.428  70.956  0.00  0.00    -0.000 A 
ATOM      9  C   UNL     1     -12.404  12.775  70.669  0.00  0.00    -0.000 A 
ATOM     10  C   UNL     1     -11.758  13.245  69.538  0.00  0.00    -0.001 A 
ENDBRANCH   3   5
BRANCH   3  11
ATOM     11  C   UNL     1     -10.716  13.147  66.267  0.00  0.00    +0.019 A 
ATOM     12  C   UNL     1     -10.032  12.685  65.151  0.00  0.00    -0.001 A 
ATOM     13  C   UNL     1     -10.649  12.376  63.968  0.00  0.00    -0.000 A 
ATOM     14  C   UNL     1     -12.027  12.444  63.880  0.00  0.00    -0.000 A 
ATOM     15  C   UNL     1     -12.702  13.095  64.883  0.00  0.00    -0.000 A 
ATOM     16  C   UNL     1     -12.100  13.177  66.129  0.00  0.00    -0.001 A 
ENDBRANCH   3  11
ENDBRANCH   2   3
BRANCH   2  17
ATOM     17  O   UNL     1     -10.115  15.233  67.842  0.00  0.00    -0.450 OA
BRANCH  17  18
ATOM     18  C   UNL     1      -9.443  16.399  67.715  0.00  0.00    +0.180 C 
ATOM     19  C   UNL     1     -10.146  17.416  68.630  0.00  0.00    +0.099 C 
ATOM     20  C   UNL     1      -9.549  18.951  68.448  0.00  0.00    +0.062 C 
ATOM     21  N   UNL     1      -8.567  18.612  67.242  0.00  0.00    +0.289 N 
ATOM     22  C   UNL     1     -10.005  18.025  67.052  0.00  0.00    +0.062 C 
ATOM     23  C   UNL     1     -10.321  19.200  66.006  0.00  0.00    +0.061 C 
ATOM     24  C   UNL     1      -8.379  19.872  66.759  0.00  0.00    +0.108 C 
ATOM     25  C   UNL     1      -7.233  20.374  67.612  0.00  0.00    +0.067 C 
ATOM     26  C   UNL     1      -6.797  19.194  68.462  0.00  0.00    +0.067 C 
ATOM     27  C   UNL     1      -7.655  18.038  68.019  0.00  0.00    +0.108 C 
ATOM     28  C   UNL     1     -10.681  19.650  67.459  0.00  0.00    +0.061 C 
ATOM     29  C   UNL     1      -9.493  16.757  66.188  0.00  0.00    +0.099 C 
ENDBRANCH  17  18
ENDBRANCH   2  17
TORSDOF 5
ENDMDL
MODEL 2
REMARK VINA RESULT:      -7.6      1.740      3.954
REMARK  Name = 
REMARK  5 active torsions:
REMARK  status: ('A' for Active; 'I' for Inactive)
REMARK    1  A    between atoms: C_2  and  O_3
REMARK    2  A    between atoms: C_2  and  C_16
REMARK    3  A    between atoms: O_3  and  C_4
REMARK    4  A    between atoms: C_16  and  C_18
REMARK    5  A    between atoms: C_16  and  C_24
REMARK                            x       y       z     vdW  Elec       q    Type
REMARK                         _______ _______ _______ _____ _____    ______ ____
ROOT
ATOM      1  O   UNL     1      -9.341  14.205  69.330  0.00  0.00    -0.247 OA
ATOM      2  C   UNL     1     -10.195  15.097  69.076  0.00  0.00    +0.353 C 
ENDROOT
BRANCH   2   3
ATOM      3  C   UNL     1     -11.648  14.899  69.278  0.00  0.00    +0.252 C 
ATOM      4  O   UNL     1     -12.419  15.960  68.778  0.00  0.00    -0.205 OA
BRANCH   3   5
ATOM      5  C   UNL     1     -12.008  13.634  68.591  0.00  0.00    +0.019 A 
ATOM      6  C   UNL     1     -12.049  13.523  67.207  0.00  0.00    -0.001 A 
ATOM      7  C   UNL     1     -11.401  12.471  66.569  0.00  0.00    -0.000 A 
ATOM      8  C   UNL     1     -11.202  11.286  67.258  0.00  0.00    -0.000 A 
ATOM      9  C   UNL     1     -11.510  11.264  68.601  0.00  0.00    -0.000 A 
ATOM     10  C   UNL     1     -11.725  12.457  69.270  0.00  0.00    -0.001 A 
ENDBRANCH   3   5
BRANCH   3  11
ATOM     11  C   UNL     1     -11.992  14.823  70.732  0.00  0.00    +0.019 A 
ATOM     12  C   UNL     1     -11.417  15.678  71.662  0.00  0.00    -0.001 A 
ATOM     13  C   UNL     1     -12.067  16.111  72.786  0.00  0.00    -0.000 A 
ATOM     14  C   UNL     1     -13.387  15.756  72.988  0.00  0.00    -0.000 A 
ATOM     15  C   UNL     1     -13.908  14.750  72.211  0.00  0.00    -0.000 A 
ATOM     16  C   UNL     1     -13.326  14.514  70.975  0.00  0.00    -0.001 A 
ENDBRANCH   3  11
ENDBRANCH   2   3
BRANCH   2  17
ATOM     17  O   UNL     1      -9.856  15.914  68.016  0.00  0.00    -0.450 OA
BRANCH  17  18
ATOM     18  C   UNL     1      -9.037  16.989  67.995  0.00  0.00    +0.180 C 
ATOM     19  C   UNL     1      -9.775  18.122  68.728  0.00  0.00    +0.099 C 
ATOM     20  C   UNL     1      -8.973  19.568  68.629  0.00  0.00    +0.062 C 
ATOM     21  N   UNL     1      -7.826  19.063  67.649  0.00  0.00    +0.289 N 
ATOM     22  C   UNL     1      -9.260  18.634  67.194  0.00  0.00    +0.062 C 
ATOM     23  C   UNL     1      -9.224  19.786  66.078  0.00  0.00    +0.061 C 
ATOM     24  C   UNL     1      -7.398  20.269  67.181  0.00  0.00    +0.108 C 
ATOM     25  C   UNL     1      -6.386  20.678  68.231  0.00  0.00    +0.067 C 
ATOM     26  C   UNL     1      -6.267  19.498  69.180  0.00  0.00    +0.067 C 
ATOM     27  C   UNL     1      -7.157  18.427  68.605  0.00  0.00    +0.108 C 
ATOM     28  C   UNL     1      -9.801  20.344  67.420  0.00  0.00    +0.061 C 
ATOM     29  C   UNL     1      -8.748  17.277  66.480  0.00  0.00    +0.099 C 
ENDBRANCH  17  18
ENDBRANCH   2  17
TORSDOF 5
ENDMDL
MODEL 3
REMARK VINA RESULT:      -7.5      1.330      3.652
REMARK  Name = 
REMARK  5 active torsions:
REMARK  status: ('A' for Active; 'I' for Inactive)
REMARK    1  A    between atoms: C_2  and  O_3
REMARK    2  A    between atoms: C_2  and  C_16
REMARK    3  A    between atoms: O_3  and  C_4
REMARK    4  A    between atoms: C_16  and  C_18
REMARK    5  A    between atoms: C_16  and  C_24
REMARK                            x       y       z     vdW  Elec       q    Type
REMARK                         _______ _______ _______ _____ _____    ______ ____
ROOT
ATOM      1  O   UNL     1      -9.353  13.591  66.255  0.00  0.00    -0.247 OA
ATOM      2  C   UNL     1     -10.022  13.724  67.315  0.00  0.00    +0.353 C 
ENDROOT
BRANCH   2   3
ATOM      3  C   UNL     1     -11.268  12.969  67.579  0.00  0.00    +0.252 C 
ATOM      4  O   UNL     1     -12.075  13.573  68.556  0.00  0.00    -0.205 OA
BRANCH   3   5
ATOM      5  C   UNL     1     -11.997  12.882  66.290  0.00  0.00    +0.019 A 
ATOM      6  C   UNL     1     -12.561  13.994  65.677  0.00  0.00    -0.001 A 
ATOM      7  C   UNL     1     -12.320  14.248  64.332  0.00  0.00    -0.000 A 
ATOM      8  C   UNL     1     -12.015  13.191  63.490  0.00  0.00    -0.000 A 
ATOM      9  C   UNL     1     -11.803  11.955  64.062  0.00  0.00    -0.000 A 
ATOM     10  C   UNL     1     -11.618  11.862  65.431  0.00  0.00    -0.001 A 
ENDBRANCH   3   5
BRANCH   3  11
ATOM     11  C   UNL     1     -10.975  11.602  68.111  0.00  0.00    +0.019 A 
ATOM     12  C   UNL     1      -9.673  11.158  68.301  0.00  0.00    -0.001 A 
ATOM     13  C   UNL     1      -9.316  10.285  69.294  0.00  0.00    -0.000 A 
ATOM     14  C   UNL     1     -10.264   9.873  70.212  0.00  0.00    -0.000 A 
ATOM     15  C   UNL     1     -11.584  10.119  69.926  0.00  0.00    -0.000 A 
ATOM     16  C   UNL     1     -11.882  11.172  69.073  0.00  0.00    -0.001 A 
ENDBRANCH   3  11
ENDBRANCH   2   3
BRANCH   2  17
ATOM     17  O   UNL     1      -9.982  14.997  67.849  0.00  0.00    -0.450 OA
BRANCH  17  18
ATOM     18  C   UNL     1      -9.398  16.111  67.356  0.00  0.00    +0.180 C 
ATOM     19  C   UNL     1      -8.910  16.927  68.564  0.00  0.00    +0.099 C 
ATOM     20  C   UNL     1      -8.328  18.416  68.131  0.00  0.00    +0.062 C 
ATOM     21  N   UNL     1      -8.709  18.308  66.589  0.00  0.00    +0.289 N 
ATOM     22  C   UNL     1      -9.872  17.883  67.544  0.00  0.00    +0.062 C 
ATOM     23  C   UNL     1     -10.587  19.292  67.263  0.00  0.00    +0.061 C 
ATOM     24  C   UNL     1      -8.669  19.631  66.266  0.00  0.00    +0.108 C 
ATOM     25  C   UNL     1      -7.205  19.837  65.939  0.00  0.00    +0.067 C 
ATOM     26  C   UNL     1      -6.564  18.462  66.005  0.00  0.00    +0.067 C 
ATOM     27  C   UNL     1      -7.692  17.505  66.296  0.00  0.00    +0.108 C 
ATOM     28  C   UNL     1      -9.611  19.407  68.480  0.00  0.00    +0.061 C 
ATOM     29  C   UNL     1     -10.497  16.825  66.493  0.00  0.00    +0.099 C 
ENDBRANCH  17  18
ENDBRANCH   2  17
TORSDOF 5
ENDMDL
MODEL 4
REMARK VINA RESULT:      -7.5      3.476      7.805
REMARK  Name = 
REMARK  5 active torsions:
REMARK  status: ('A' for Active; 'I' for Inactive)
REMARK    1  A    between atoms: C_2  and  O_3
REMARK    2  A    between atoms: C_2  and  C_16
REMARK    3  A    between atoms: O_3  and  C_4
REMARK    4  A    between atoms: C_16  and  C_18
REMARK    5  A    between atoms: C_16  and  C_24
REMARK                            x       y       z     vdW  Elec       q    Type
REMARK                         _______ _______ _______ _____ _____    ______ ____
ROOT
ATOM      1  O   UNL     1      -8.849  11.492  68.604  0.00  0.00    -0.247 OA
ATOM      2  C   UNL     1      -9.915  11.091  68.063  0.00  0.00    +0.353 C 
ENDROOT
BRANCH   2   3
ATOM      3  C   UNL     1     -10.981  12.012  67.607  0.00  0.00    +0.252 C 
ATOM      4  O   UNL     1     -12.270  11.489  67.791  0.00  0.00    -0.205 OA
BRANCH   3   5
ATOM      5  C   UNL     1     -10.820  13.269  68.380  0.00  0.00    +0.019 A 
ATOM      6  C   UNL     1     -10.275  14.420  67.826  0.00  0.00    -0.001 A 
ATOM      7  C   UNL     1     -10.928  15.640  67.964  0.00  0.00    -0.000 A 
ATOM      8  C   UNL     1     -11.763  15.837  69.052  0.00  0.00    -0.000 A 
ATOM      9  C   UNL     1     -12.036  14.753  69.857  0.00  0.00    -0.000 A 
ATOM     10  C   UNL     1     -11.720  13.480  69.414  0.00  0.00    -0.001 A 
ENDBRANCH   3   5
BRANCH   3  11
ATOM     11  C   UNL     1     -10.878  12.281  66.139  0.00  0.00    +0.019 A 
ATOM     12  C   UNL     1     -10.065  11.516  65.314  0.00  0.00    -0.001 A 
ATOM     13  C   UNL     1     -10.359  11.256  64.002  0.00  0.00    -0.000 A 
ATOM     14  C   UNL     1     -11.556  11.700  63.473  0.00  0.00    -0.000 A 
ATOM     15  C   UNL     1     -12.271  12.628  64.189  0.00  0.00    -0.000 A 
ATOM     16  C   UNL     1     -12.077  12.684  65.561  0.00  0.00    -0.001 A 
ENDBRANCH   3  11
ENDBRANCH   2   3
BRANCH   2  17
ATOM     17  O   UNL     1     -10.356   9.868  68.529  0.00  0.00    -0.450 OA
BRANCH  17  18
ATOM     18  C   UNL     1     -10.211   9.319  69.755  0.00  0.00    +0.180 C 
ATOM     19  C   UNL     1     -10.243   7.794  69.564  0.00  0.00    +0.099 C 
ATOM     20  C   UNL     1     -10.258   6.974  71.004  0.00  0.00    +0.062 C 
ATOM     21  N   UNL     1     -10.370   8.262  71.934  0.00  0.00    +0.289 N 
ATOM     22  C   UNL     1     -11.374   8.277  70.734  0.00  0.00    +0.062 C 
ATOM     23  C   UNL     1     -12.553   7.873  71.746  0.00  0.00    +0.061 C 
ATOM     24  C   UNL     1     -10.824   7.665  73.071  0.00  0.00    +0.108 C 
ATOM     25  C   UNL     1      -9.537   7.234  73.742  0.00  0.00    +0.067 C 
ATOM     26  C   UNL     1      -8.413   7.795  72.889  0.00  0.00    +0.067 C 
ATOM     27  C   UNL     1      -9.089   8.587  71.800  0.00  0.00    +0.108 C 
ATOM     28  C   UNL     1     -11.863   6.593  71.171  0.00  0.00    +0.061 C 
ATOM     29  C   UNL     1     -11.388   9.890  70.622  0.00  0.00    +0.099 C 
ENDBRANCH  17  18
ENDBRANCH   2  17
TORSDOF 5
ENDMDL
MODEL 5
REMARK VINA RESULT:      -7.3      3.461      8.304
REMARK  Name = 
REMARK  5 active torsions:
REMARK  status: ('A' for Active; 'I' for Inactive)
REMARK    1  A    between atoms: C_2  and  O_3
REMARK    2  A    between atoms: C_2  and  C_16
REMARK    3  A    between atoms: O_3  and  C_4
REMARK    4  A    between atoms: C_16  and  C_18
REMARK    5  A    between atoms: C_16  and  C_24
REMARK                            x       y       z     vdW  Elec       q    Type
REMARK                         _______ _______ _______ _____ _____    ______ ____
ROOT
ATOM      1  O   UNL     1     -12.466  11.077  68.431  0.00  0.00    -0.247 OA
ATOM      2  C   UNL     1     -11.387  11.713  68.574  0.00  0.00    +0.353 C 
ENDROOT
BRANCH   2   3
ATOM      3  C   UNL     1     -10.787  12.530  67.495  0.00  0.00    +0.252 C 
ATOM      4  O   UNL     1      -9.383  12.532  67.529  0.00  0.00    -0.205 OA
BRANCH   3   5
ATOM      5  C   UNL     1     -11.270  11.964  66.211  0.00  0.00    +0.019 A 
ATOM      6  C   UNL     1     -12.176  12.632  65.397  0.00  0.00    -0.001 A 
ATOM      7  C   UNL     1     -11.919  12.781  64.039  0.00  0.00    -0.000 A 
ATOM      8  C   UNL     1     -11.112  11.854  63.400  0.00  0.00    -0.000 A 
ATOM      9  C   UNL     1     -10.467  10.918  64.180  0.00  0.00    -0.000 A 
ATOM     10  C   UNL     1     -10.409  11.099  65.551  0.00  0.00    -0.001 A 
ENDBRANCH   3   5
BRANCH   3  11
ATOM     11  C   UNL     1     -11.179  13.968  67.617  0.00  0.00    +0.019 A 
ATOM     12  C   UNL     1     -11.932  14.429  68.688  0.00  0.00    -0.001 A 
ATOM     13  C   UNL     1     -11.803  15.689  69.208  0.00  0.00    -0.000 A 
ATOM     14  C   UNL     1     -10.830  16.535  68.711  0.00  0.00    -0.000 A 
ATOM     15  C   UNL     1     -10.226  16.192  67.526  0.00  0.00    -0.000 A 
ATOM     16  C   UNL     1     -10.204  14.852  67.169  0.00  0.00    -0.001 A 
ENDBRANCH   3  11
ENDBRANCH   2   3
BRANCH   2  17
ATOM     17  O   UNL     1     -10.483  11.103  69.420  0.00  0.00    -0.450 OA
BRANCH  17  18
ATOM     18  C   UNL     1     -10.309   9.788  69.679  0.00  0.00    +0.180 C 
ATOM     19  C   UNL     1     -10.969   9.514  71.041  0.00  0.00    +0.099 C 
ATOM     20  C   UNL     1     -10.683   7.975  71.586  0.00  0.00    +0.062 C 
ATOM     21  N   UNL     1      -9.692   7.558  70.412  0.00  0.00    +0.289 N 
ATOM     22  C   UNL     1      -9.365   8.958  71.028  0.00  0.00    +0.062 C 
ATOM     23  C   UNL     1      -8.140   8.295  71.826  0.00  0.00    +0.061 C 
ATOM     24  C   UNL     1      -9.085   6.497  71.013  0.00  0.00    +0.108 C 
ATOM     25  C   UNL     1     -10.029   5.359  70.684  0.00  0.00    +0.067 C 
ATOM     26  C   UNL     1     -11.080   5.944  69.757  0.00  0.00    +0.067 C 
ATOM     27  C   UNL     1     -10.666   7.374  69.527  0.00  0.00    +0.108 C 
ATOM     28  C   UNL     1      -9.453   8.214  72.672  0.00  0.00    +0.061 C 
ATOM     29  C   UNL     1      -8.759   9.547  69.649  0.00  0.00    +0.099 C 
ENDBRANCH  17  18
ENDBRANCH   2  17
TORSDOF 5
ENDMDL
MODEL 6
REMARK VINA RESULT:      -7.3      3.634      8.342
REMARK  Name = 
REMARK  5 active torsions:
REMARK  status: ('A' for Active; 'I' for Inactive)
REMARK    1  A    between atoms: C_2  and  O_3
REMARK    2  A    between atoms: C_2  and  C_16
REMARK    3  A    between atoms: O_3  and  C_4
REMARK    4  A    between atoms: C_16  and  C_18
REMARK    5  A    between atoms: C_16  and  C_24
REMARK                            x       y       z     vdW  Elec       q    Type
REMARK                         _______ _______ _______ _____ _____    ______ ____
ROOT
ATOM      1  O   UNL     1     -12.100  10.859  67.805  0.00  0.00    -0.247 OA
ATOM      2  C   UNL     1     -11.135  11.357  68.446  0.00  0.00    +0.353 C 
ENDROOT
BRANCH   2   3
ATOM      3  C   UNL     1     -10.593  12.705  68.165  0.00  0.00    +0.252 C 
ATOM      4  O   UNL     1      -9.237  12.831  68.507  0.00  0.00    -0.205 OA
BRANCH   3   5
ATOM      5  C   UNL     1     -10.782  12.949  66.714  0.00  0.00    +0.019 A 
ATOM      6  C   UNL     1     -10.060  12.268  65.743  0.00  0.00    -0.001 A 
ATOM      7  C   UNL     1     -10.715  11.673  64.671  0.00  0.00    -0.000 A 
ATOM      8  C   UNL     1     -11.934  12.186  64.259  0.00  0.00    -0.000 A 
ATOM      9  C   UNL     1     -12.518  13.160  65.038  0.00  0.00    -0.000 A 
ATOM     10  C   UNL     1     -12.038  13.386  66.317  0.00  0.00    -0.001 A 
ENDBRANCH   3   5
BRANCH   3  11
ATOM     11  C   UNL     1     -11.293  13.754  68.970  0.00  0.00    +0.019 A 
ATOM     12  C   UNL     1     -12.126  13.423  70.030  0.00  0.00    -0.001 A 
ATOM     13  C   UNL     1     -12.278  14.211  71.140  0.00  0.00    -0.000 A 
ATOM     14  C   UNL     1     -11.517  15.358  71.269  0.00  0.00    -0.000 A 
ATOM     15  C   UNL     1     -10.855  15.818  70.158  0.00  0.00    -0.000 A 
ATOM     16  C   UNL     1     -10.538  14.906  69.162  0.00  0.00    -0.001 A 
ENDBRANCH   3  11
ENDBRANCH   2   3
BRANCH   2  17
ATOM     17  O   UNL     1     -10.207  10.429  68.874  0.00  0.00    -0.450 OA
BRANCH  17  18
ATOM     18  C   UNL     1     -10.191   9.700  70.012  0.00  0.00    +0.180 C 
ATOM     19  C   UNL     1     -10.160   8.221  69.590  0.00  0.00    +0.099 C 
ATOM     20  C   UNL     1     -10.322   7.190  70.877  0.00  0.00    +0.062 C 
ATOM     21  N   UNL     1     -10.577   8.319  71.970  0.00  0.00    +0.289 N 
ATOM     22  C   UNL     1     -11.433   8.509  70.675  0.00  0.00    +0.062 C 
ATOM     23  C   UNL     1     -12.711   7.945  71.465  0.00  0.00    +0.061 C 
ATOM     24  C   UNL     1     -11.145   7.551  72.942  0.00  0.00    +0.108 C 
ATOM     25  C   UNL     1      -9.934   7.033  73.689  0.00  0.00    +0.067 C 
ATOM     26  C   UNL     1      -8.733   7.728  73.072  0.00  0.00    +0.067 C 
ATOM     27  C   UNL     1      -9.298   8.672  72.043  0.00  0.00    +0.108 C 
ATOM     28  C   UNL     1     -11.924   6.774  70.791  0.00  0.00    +0.061 C 
ATOM     29  C   UNL     1     -11.478  10.120  70.807  0.00  0.00    +0.099 C 
ENDBRANCH  17  18
ENDBRANCH   2  17
TORSDOF 5
ENDMDL
MODEL 7
REMARK VINA RESULT:      -7.2      2.266      4.784
REMARK  Name = 
REMARK  5 active torsions:
REMARK  status: ('A' for Active; 'I' for Inactive)
REMARK    1  A    between atoms: C_2  and  O_3
REMARK    2  A    between atoms: C_2  and  C_16
REMARK    3  A    between atoms: O_3  and  C_4
REMARK    4  A    between atoms: C_16  and  C_18
REMARK    5  A    between atoms: C_16  and  C_24
REMARK                            x       y       z     vdW  Elec       q    Type
REMARK                         _______ _______ _______ _____ _____    ______ ____
ROOT
ATOM      1  O   UNL     1      -7.449  15.247  68.309  0.00  0.00    -0.247 OA
ATOM      2  C   UNL     1      -7.757  16.081  67.415  0.00  0.00    +0.353 C 
ENDROOT
BRANCH   2   3
ATOM      3  C   UNL     1      -9.111  16.163  66.824  0.00  0.00    +0.252 C 
ATOM      4  O   UNL     1      -9.090  16.291  65.426  0.00  0.00    -0.205 OA
BRANCH   3   5
ATOM      5  C   UNL     1      -9.825  14.922  67.216  0.00  0.00    +0.019 A 
ATOM      6  C   UNL     1     -11.079  14.941  67.814  0.00  0.00    -0.001 A 
ATOM      7  C   UNL     1     -12.100  14.136  67.323  0.00  0.00    -0.000 A 
ATOM      8  C   UNL     1     -11.775  12.969  66.654  0.00  0.00    -0.000 A 
ATOM      9  C   UNL     1     -10.448  12.744  66.361  0.00  0.00    -0.000 A 
ATOM     10  C   UNL     1      -9.540  13.783  66.477  0.00  0.00    -0.001 A 
ENDBRANCH   3   5
BRANCH   3  11
ATOM     11  C   UNL     1      -9.848  17.370  67.311  0.00  0.00    +0.019 A 
ATOM     12  C   UNL     1      -9.543  17.967  68.527  0.00  0.00    -0.001 A 
ATOM     13  C   UNL     1      -9.668  19.312  68.755  0.00  0.00    -0.000 A 
ATOM     14  C   UNL     1     -10.038  20.146  67.717  0.00  0.00    -0.000 A 
ATOM     15  C   UNL     1     -10.547  19.570  66.579  0.00  0.00    -0.000 A 
ATOM     16  C   UNL     1     -10.195  18.258  66.299  0.00  0.00    -0.001 A 
ENDBRANCH   3  11
ENDBRANCH   2   3
BRANCH   2  17
ATOM     17  O   UNL     1      -6.721  16.391  66.556  0.00  0.00    -0.450 OA
BRANCH  17  18
ATOM     18  C   UNL     1      -5.893  17.459  66.568  0.00  0.00    +0.180 C 
ATOM     19  C   UNL     1      -5.914  18.019  68.000  0.00  0.00    +0.099 C 
ATOM     20  C   UNL     1      -5.084  19.447  68.135  0.00  0.00    +0.062 C 
ATOM     21  N   UNL     1      -4.764  19.607  66.584  0.00  0.00    +0.289 N 
ATOM     22  C   UNL     1      -6.257  19.240  66.872  0.00  0.00    +0.062 C 
ATOM     23  C   UNL     1      -6.662  20.767  66.590  0.00  0.00    +0.061 C 
ATOM     24  C   UNL     1      -4.481  20.940  66.561  0.00  0.00    +0.108 C 
ATOM     25  C   UNL     1      -3.009  20.961  66.915  0.00  0.00    +0.067 C 
ATOM     26  C   UNL     1      -2.574  19.507  66.981  0.00  0.00    +0.067 C 
ATOM     27  C   UNL     1      -3.789  18.704  66.593  0.00  0.00    +0.108 C 
ATOM     28  C   UNL     1      -6.306  20.566  68.100  0.00  0.00    +0.061 C 
ATOM     29  C   UNL     1      -6.447  18.443  65.478  0.00  0.00    +0.099 C 
ENDBRANCH  17  18
ENDBRANCH   2  17
TORSDOF 5
ENDMDL
MODEL 8
REMARK VINA RESULT:      -7.1      2.474      7.284
REMARK  Name = 
REMARK  5 active torsions:
REMARK  status: ('A' for Active; 'I' for Inactive)
REMARK    1  A    between atoms: C_2  and  O_3
REMARK    2  A    between atoms: C_2  and  C_16
REMARK    3  A    between atoms: O_3  and  C_4
REMARK    4  A    between atoms: C_16  and  C_18
REMARK    5  A    between atoms: C_16  and  C_24
REMARK                            x       y       z     vdW  Elec       q    Type
REMARK                         _______ _______ _______ _____ _____    ______ ____
ROOT
ATOM      1  O   UNL     1     -11.644  15.633  68.214  0.00  0.00    -0.247 OA
ATOM      2  C   UNL     1     -10.646  15.312  67.515  0.00  0.00    +0.353 C 
ENDROOT
BRANCH   2   3
ATOM      3  C   UNL     1      -9.619  16.288  67.084  0.00  0.00    +0.252 C 
ATOM      4  O   UNL     1      -9.235  16.120  65.744  0.00  0.00    -0.205 OA
BRANCH   3   5
ATOM      5  C   UNL     1     -10.200  17.638  67.287  0.00  0.00    +0.019 A 
ATOM      6  C   UNL     1     -10.006  18.365  68.455  0.00  0.00    -0.001 A 
ATOM      7  C   UNL     1      -9.590  19.690  68.395  0.00  0.00    -0.000 A 
ATOM      8  C   UNL     1      -9.888  20.438  67.268  0.00  0.00    -0.000 A 
ATOM      9  C   UNL     1     -10.441  19.783  66.189  0.00  0.00    -0.000 A 
ATOM     10  C   UNL     1     -10.415  18.399  66.147  0.00  0.00    -0.001 A 
ENDBRANCH   3   5
BRANCH   3  11
ATOM     11  C   UNL     1      -8.357  16.135  67.870  0.00  0.00    +0.019 A 
ATOM     12  C   UNL     1      -8.287  15.306  68.982  0.00  0.00    -0.001 A 
ATOM     13  C   UNL     1      -7.151  14.635  69.348  0.00  0.00    -0.000 A 
ATOM     14  C   UNL     1      -6.029  14.708  68.544  0.00  0.00    -0.000 A 
ATOM     15  C   UNL     1      -5.998  15.676  67.570  0.00  0.00    -0.000 A 
ATOM     16  C   UNL     1      -7.207  16.155  67.088  0.00  0.00    -0.001 A 
ENDBRANCH   3  11
ENDBRANCH   2   3
BRANCH   2  17
ATOM     17  O   UNL     1     -10.890  14.286  66.624  0.00  0.00    -0.450 OA
BRANCH  17  18
ATOM     18  C   UNL     1     -10.807  12.951  66.817  0.00  0.00    +0.180 C 
ATOM     19  C   UNL     1      -9.311  12.594  66.798  0.00  0.00    +0.099 C 
ATOM     20  C   UNL     1      -9.050  10.958  66.841  0.00  0.00    +0.062 C 
ATOM     21  N   UNL     1     -10.581  10.536  66.742  0.00  0.00    +0.289 N 
ATOM     22  C   UNL     1     -10.173  11.628  65.699  0.00  0.00    +0.062 C 
ATOM     23  C   UNL     1     -10.149  10.499  64.560  0.00  0.00    +0.061 C 
ATOM     24  C   UNL     1     -10.421   9.246  66.333  0.00  0.00    +0.108 C 
ATOM     25  C   UNL     1     -10.254   8.512  67.648  0.00  0.00    +0.067 C 
ATOM     26  C   UNL     1     -10.481   9.547  68.736  0.00  0.00    +0.067 C 
ATOM     27  C   UNL     1     -10.841  10.820  68.014  0.00  0.00    +0.108 C 
ATOM     28  C   UNL     1      -8.749  10.611  65.248  0.00  0.00    +0.061 C 
ATOM     29  C   UNL     1     -11.644  12.299  65.660  0.00  0.00    +0.099 C 
ENDBRANCH  17  18
ENDBRANCH   2  17
TORSDOF 5
ENDMDL
MODEL 9
REMARK VINA RESULT:      -7.1      2.121      7.261
REMARK  Name = 
REMARK  5 active torsions:
REMARK  status: ('A' for Active; 'I' for Inactive)
REMARK    1  A    between atoms: C_2  and  O_3
REMARK    2  A    between atoms: C_2  and  C_16
REMARK    3  A    between atoms: O_3  and  C_4
REMARK    4  A    between atoms: C_16  and  C_18
REMARK    5  A    between atoms: C_16  and  C_24
REMARK                            x       y       z     vdW  Elec       q    Type
REMARK                         _______ _______ _______ _____ _____    ______ ____
ROOT
ATOM      1  O   UNL     1      -5.940  16.608  66.303  0.00  0.00    -0.247 OA
ATOM      2  C   UNL     1      -6.938  16.790  67.052  0.00  0.00    +0.353 C 
ENDROOT
BRANCH   2   3
ATOM      3  C   UNL     1      -7.028  17.913  68.013  0.00  0.00    +0.252 C 
ATOM      4  O   UNL     1      -7.415  17.501  69.298  0.00  0.00    -0.205 OA
BRANCH   3   5
ATOM      5  C   UNL     1      -5.687  18.547  68.057  0.00  0.00    +0.019 A 
ATOM      6  C   UNL     1      -5.423  19.774  67.462  0.00  0.00    -0.001 A 
ATOM      7  C   UNL     1      -4.774  20.773  68.178  0.00  0.00    -0.000 A 
ATOM      8  C   UNL     1      -3.930  20.418  69.217  0.00  0.00    -0.000 A 
ATOM      9  C   UNL     1      -3.900  19.094  69.597  0.00  0.00    -0.000 A 
ATOM     10  C   UNL     1      -4.891  18.236  69.150  0.00  0.00    -0.001 A 
ENDBRANCH   3   5
BRANCH   3  11
ATOM     11  C   UNL     1      -8.066  18.906  67.595  0.00  0.00    +0.019 A 
ATOM     12  C   UNL     1      -8.648  18.865  66.336  0.00  0.00    -0.001 A 
ATOM     13  C   UNL     1      -9.939  19.253  66.092  0.00  0.00    -0.000 A 
ATOM     14  C   UNL     1     -10.746  19.632  67.148  0.00  0.00    -0.000 A 
ATOM     15  C   UNL     1     -10.145  19.886  68.357  0.00  0.00    -0.000 A 
ATOM     16  C   UNL     1      -8.928  19.276  68.622  0.00  0.00    -0.001 A 
ENDBRANCH   3  11
ENDBRANCH   2   3
BRANCH   2  17
ATOM     17  O   UNL     1      -7.560  15.624  67.451  0.00  0.00    -0.450 OA
BRANCH  17  18
ATOM     18  C   UNL     1      -8.662  15.028  66.943  0.00  0.00    +0.180 C 
ATOM     19  C   UNL     1      -9.870  15.631  67.678  0.00  0.00    +0.099 C 
ATOM     20  C   UNL     1     -11.291  14.869  67.294  0.00  0.00    +0.062 C 
ATOM     21  N   UNL     1     -10.638  13.730  66.395  0.00  0.00    +0.289 N 
ATOM     22  C   UNL     1      -9.903  13.936  67.760  0.00  0.00    +0.062 C 
ATOM     23  C   UNL     1     -10.611  12.607  68.315  0.00  0.00    +0.061 C 
ATOM     24  C   UNL     1     -11.663  12.832  66.410  0.00  0.00    +0.108 C 
ATOM     25  C   UNL     1     -12.525  13.312  65.261  0.00  0.00    +0.067 C 
ATOM     26  C   UNL     1     -11.754  14.444  64.605  0.00  0.00    +0.067 C 
ATOM     27  C   UNL     1     -10.448  14.530  65.351  0.00  0.00    +0.108 C 
ATOM     28  C   UNL     1     -11.506  13.859  68.591  0.00  0.00    +0.061 C 
ATOM     29  C   UNL     1      -8.462  13.489  67.179  0.00  0.00    +0.099 C 
ENDBRANCH  17  18
ENDBRANCH   2  17
TORSDOF 5
ENDMDL
