MODEL 1
REMARK VINA RESULT:      -7.6      0.000      0.000
REMARK  Name = 
REMARK  4 active torsions:
REMARK  status: ('A' for Active; 'I' for Inactive)
REMARK    1  A    between atoms: O_2  and  C_3
REMARK    2  A    between atoms: C_3  and  N_5
REMARK    3  A    between atoms: C_11  and  C_12
REMARK    4  A    between atoms: C_12  and  C_14
REMARK                            x       y       z     vdW  Elec       q    Type
REMARK                         _______ _______ _______ _____ _____    ______ ____
ROOT
ATOM      1  N   UNL     1     -13.503  15.818  71.051  0.00  0.00    -0.106 NA
ATOM      2  C   UNL     1     -12.564  15.141  70.456  0.00  0.00    +0.246 A 
ATOM      3  N   UNL     1     -11.973  15.359  69.276  0.00  0.00    -0.211 NA
ATOM      4  C   UNL     1     -11.512  14.206  68.742  0.00  0.00    +0.102 A 
ATOM      5  C   UNL     1     -11.753  13.240  69.694  0.00  0.00    +0.102 A 
ATOM      6  C   UNL     1     -11.651  11.910  69.304  0.00  0.00    +0.021 A 
ATOM      7  C   UNL     1     -11.707  11.522  67.981  0.00  0.00    +0.005 A 
ATOM      8  C   UNL     1     -11.615  12.510  67.016  0.00  0.00    +0.041 A 
ATOM      9  C   UNL     1     -11.436  13.807  67.412  0.00  0.00    +0.024 A 
ATOM     10  N   UNL     1     -12.385  13.827  70.733  0.00  0.00    -0.211 NA
ENDROOT
BRANCH   1  11
ATOM     11  C   UNL     1     -14.015  15.398  72.302  0.00  0.00    +0.428 C 
ATOM     12  O   UNL     1     -14.547  14.266  72.423  0.00  0.00    -0.224 OA
BRANCH  11  14
ATOM     13  C   UNL     1     -12.406  15.602  74.112  0.00  0.00    +0.257 C 
ATOM     14  O   UNL     1     -13.587  16.020  73.469  0.00  0.00    -0.429 OA
ENDBRANCH  11  14
ENDBRANCH   1  11
BRANCH   8  15
ATOM     15  C   UNL     1     -11.751  12.211  65.595  0.00  0.00    +0.196 C 
ATOM     16  O   UNL     1     -12.859  12.538  65.072  0.00  0.00    -0.287 OA
BRANCH  15  17
ATOM     17  C   UNL     1     -10.687  11.611  64.799  0.00  0.00    +0.039 A 
ATOM     18  C   UNL     1     -10.191  10.394  65.250  0.00  0.00    +0.003 A 
ATOM     19  C   UNL     1      -9.279   9.675  64.488  0.00  0.00    +0.000 A 
ATOM     20  C   UNL     1      -9.295   9.897  63.123  0.00  0.00    +0.000 A 
ATOM     21  C   UNL     1      -9.649  11.174  62.707  0.00  0.00    +0.000 A 
ATOM     22  C   UNL     1     -10.522  11.937  63.467  0.00  0.00    +0.003 A 
ENDBRANCH  15  17
ENDBRANCH   8  15
TORSDOF 4
ENDMDL
MODEL 2
REMARK VINA RESULT:      -7.1      4.588      8.125
REMARK  Name = 
REMARK  4 active torsions:
REMARK  status: ('A' for Active; 'I' for Inactive)
REMARK    1  A    between atoms: O_2  and  C_3
REMARK    2  A    between atoms: C_3  and  N_5
REMARK    3  A    between atoms: C_11  and  C_12
REMARK    4  A    between atoms: C_12  and  C_14
REMARK                            x       y       z     vdW  Elec       q    Type
REMARK                         _______ _______ _______ _____ _____    ______ ____
ROOT
ATOM      1  N   UNL     1      -7.106  18.525  66.848  0.00  0.00    -0.106 NA
ATOM      2  C   UNL     1      -8.357  18.169  66.791  0.00  0.00    +0.246 A 
ATOM      3  N   UNL     1      -9.315  18.268  67.720  0.00  0.00    -0.211 NA
ATOM      4  C   UNL     1     -10.261  17.318  67.548  0.00  0.00    +0.102 A 
ATOM      5  C   UNL     1      -9.909  16.658  66.390  0.00  0.00    +0.102 A 
ATOM      6  C   UNL     1     -10.535  15.446  66.123  0.00  0.00    +0.021 A 
ATOM      7  C   UNL     1     -11.167  14.709  67.104  0.00  0.00    +0.005 A 
ATOM      8  C   UNL     1     -11.390  15.321  68.326  0.00  0.00    +0.041 A 
ATOM      9  C   UNL     1     -11.012  16.626  68.490  0.00  0.00    +0.024 A 
ATOM     10  N   UNL     1      -8.755  17.194  65.939  0.00  0.00    -0.211 NA
ENDROOT
BRANCH   1  11
ATOM     11  C   UNL     1      -6.242  18.305  65.748  0.00  0.00    +0.428 C 
ATOM     12  O   UNL     1      -5.473  17.312  65.732  0.00  0.00    -0.224 OA
BRANCH  11  14
ATOM     13  C   UNL     1      -6.162  20.262  64.307  0.00  0.00    +0.257 C 
ATOM     14  O   UNL     1      -6.508  18.914  64.527  0.00  0.00    -0.429 OA
ENDBRANCH  11  14
ENDBRANCH   1  11
BRANCH   8  15
ATOM     15  C   UNL     1     -11.970  14.600  69.452  0.00  0.00    +0.196 C 
ATOM     16  O   UNL     1     -12.023  13.339  69.323  0.00  0.00    -0.287 OA
BRANCH  15  17
ATOM     17  C   UNL     1     -12.433  15.257  70.669  0.00  0.00    +0.039 A 
ATOM     18  C   UNL     1     -13.759  15.042  71.019  0.00  0.00    +0.003 A 
ATOM     19  C   UNL     1     -14.256  15.505  72.231  0.00  0.00    +0.000 A 
ATOM     20  C   UNL     1     -13.340  15.681  73.254  0.00  0.00    +0.000 A 
ATOM     21  C   UNL     1     -12.055  16.046  72.878  0.00  0.00    +0.000 A 
ATOM     22  C   UNL     1     -11.544  15.639  71.654  0.00  0.00    +0.003 A 
ENDBRANCH  15  17
ENDBRANCH   8  15
TORSDOF 4
ENDMDL
MODEL 3
REMARK VINA RESULT:      -7.1      4.535      6.472
REMARK  Name = 
REMARK  4 active torsions:
REMARK  status: ('A' for Active; 'I' for Inactive)
REMARK    1  A    between atoms: O_2  and  C_3
REMARK    2  A    between atoms: C_3  and  N_5
REMARK    3  A    between atoms: C_11  and  C_12
REMARK    4  A    between atoms: C_12  and  C_14
REMARK                            x       y       z     vdW  Elec       q    Type
REMARK                         _______ _______ _______ _____ _____    ______ ____
ROOT
ATOM      1  N   UNL     1     -13.613  13.747  72.702  0.00  0.00    -0.106 NA
ATOM      2  C   UNL     1     -13.427  12.756  71.878  0.00  0.00    +0.246 A 
ATOM      3  N   UNL     1     -13.510  11.438  72.096  0.00  0.00    -0.211 NA
ATOM      4  C   UNL     1     -12.720  10.753  71.241  0.00  0.00    +0.102 A 
ATOM      5  C   UNL     1     -12.196  11.700  70.388  0.00  0.00    +0.102 A 
ATOM      6  C   UNL     1     -11.123  11.325  69.588  0.00  0.00    +0.021 A 
ATOM      7  C   UNL     1     -10.337  10.228  69.874  0.00  0.00    +0.005 A 
ATOM      8  C   UNL     1     -10.788   9.347  70.843  0.00  0.00    +0.041 A 
ATOM      9  C   UNL     1     -11.998   9.581  71.437  0.00  0.00    +0.024 A 
ATOM     10  N   UNL     1     -12.644  12.910  70.784  0.00  0.00    -0.211 NA
ENDROOT
BRANCH   1  11
ATOM     11  C   UNL     1     -13.449  15.085  72.270  0.00  0.00    +0.428 C 
ATOM     12  O   UNL     1     -14.295  15.615  71.507  0.00  0.00    -0.224 OA
BRANCH  11  14
ATOM     13  C   UNL     1     -12.397  15.753  74.358  0.00  0.00    +0.257 C 
ATOM     14  O   UNL     1     -12.617  15.944  72.980  0.00  0.00    -0.429 OA
ENDBRANCH  11  14
ENDBRANCH   1  11
BRANCH   8  15
ATOM     15  C   UNL     1      -9.990   8.207  71.277  0.00  0.00    +0.196 C 
ATOM     16  O   UNL     1      -8.887   8.050  70.670  0.00  0.00    -0.287 OA
BRANCH  15  17
ATOM     17  C   UNL     1     -10.391   7.315  72.359  0.00  0.00    +0.039 A 
ATOM     18  C   UNL     1     -11.017   6.133  71.983  0.00  0.00    +0.003 A 
ATOM     19  C   UNL     1     -11.309   5.156  72.926  0.00  0.00    +0.000 A 
ATOM     20  C   UNL     1     -10.526   5.136  74.066  0.00  0.00    +0.000 A 
ATOM     21  C   UNL     1     -10.040   6.359  74.505  0.00  0.00    +0.000 A 
ATOM     22  C   UNL     1      -9.780   7.373  73.595  0.00  0.00    +0.003 A 
ENDBRANCH  15  17
ENDBRANCH   8  15
TORSDOF 4
ENDMDL
MODEL 4
REMARK VINA RESULT:      -7.1      3.074      7.947
REMARK  Name = 
REMARK  4 active torsions:
REMARK  status: ('A' for Active; 'I' for Inactive)
REMARK    1  A    between atoms: O_2  and  C_3
REMARK    2  A    between atoms: C_3  and  N_5
REMARK    3  A    between atoms: C_11  and  C_12
REMARK    4  A    between atoms: C_12  and  C_14
REMARK                            x       y       z     vdW  Elec       q    Type
REMARK                         _______ _______ _______ _____ _____    ______ ____
ROOT
ATOM      1  N   UNL     1      -9.970  11.978  63.650  0.00  0.00    -0.106 NA
ATOM      2  C   UNL     1     -10.898  12.186  64.539  0.00  0.00    +0.246 A 
ATOM      3  N   UNL     1     -11.593  13.298  64.804  0.00  0.00    -0.211 NA
ATOM      4  C   UNL     1     -12.004  13.321  66.090  0.00  0.00    +0.102 A 
ATOM      5  C   UNL     1     -11.619  12.108  66.619  0.00  0.00    +0.102 A 
ATOM      6  C   UNL     1     -11.650  11.968  68.002  0.00  0.00    +0.021 A 
ATOM      7  C   UNL     1     -11.666  13.054  68.854  0.00  0.00    +0.005 A 
ATOM      8  C   UNL     1     -11.905  14.301  68.303  0.00  0.00    +0.041 A 
ATOM      9  C   UNL     1     -12.151  14.395  66.961  0.00  0.00    +0.024 A 
ATOM     10  N   UNL     1     -10.956  11.427  65.660  0.00  0.00    -0.211 NA
ENDROOT
BRANCH   1  11
ATOM     11  C   UNL     1      -9.334  10.717  63.550  0.00  0.00    +0.428 C 
ATOM     12  O   UNL     1      -9.529   9.984  62.548  0.00  0.00    -0.224 OA
BRANCH  11  14
ATOM     13  C   UNL     1      -7.957   9.151  64.800  0.00  0.00    +0.257 C 
ATOM     14  O   UNL     1      -8.204  10.450  64.315  0.00  0.00    -0.429 OA
ENDBRANCH  11  14
ENDBRANCH   1  11
BRANCH   8  15
ATOM     15  C   UNL     1     -11.855  15.517  69.106  0.00  0.00    +0.196 C 
ATOM     16  O   UNL     1     -11.394  16.541  68.517  0.00  0.00    -0.287 OA
BRANCH  15  17
ATOM     17  C   UNL     1     -12.332  15.587  70.483  0.00  0.00    +0.039 A 
ATOM     18  C   UNL     1     -13.622  15.126  70.712  0.00  0.00    +0.003 A 
ATOM     19  C   UNL     1     -14.116  15.018  72.005  0.00  0.00    +0.000 A 
ATOM     20  C   UNL     1     -13.185  14.857  73.017  0.00  0.00    +0.000 A 
ATOM     21  C   UNL     1     -11.951  15.461  72.824  0.00  0.00    +0.000 A 
ATOM     22  C   UNL     1     -11.448  15.626  71.542  0.00  0.00    +0.003 A 
ENDBRANCH  15  17
ENDBRANCH   8  15
TORSDOF 4
ENDMDL
MODEL 5
REMARK VINA RESULT:      -7.1      3.969      5.079
REMARK  Name = 
REMARK  4 active torsions:
REMARK  status: ('A' for Active; 'I' for Inactive)
REMARK    1  A    between atoms: O_2  and  C_3
REMARK    2  A    between atoms: C_3  and  N_5
REMARK    3  A    between atoms: C_11  and  C_12
REMARK    4  A    between atoms: C_12  and  C_14
REMARK                            x       y       z     vdW  Elec       q    Type
REMARK                         _______ _______ _______ _____ _____    ______ ____
ROOT
ATOM      1  N   UNL     1      -8.851  18.297  66.111  0.00  0.00    -0.106 NA
ATOM      2  C   UNL     1      -9.069  17.370  66.999  0.00  0.00    +0.246 A 
ATOM      3  N   UNL     1      -8.679  16.091  67.010  0.00  0.00    -0.211 NA
ATOM      4  C   UNL     1      -9.532  15.327  67.727  0.00  0.00    +0.102 A 
ATOM      5  C   UNL     1     -10.447  16.207  68.264  0.00  0.00    +0.102 A 
ATOM      6  C   UNL     1     -11.610  15.676  68.808  0.00  0.00    +0.021 A 
ATOM      7  C   UNL     1     -12.059  14.408  68.498  0.00  0.00    +0.005 A 
ATOM      8  C   UNL     1     -11.192  13.566  67.823  0.00  0.00    +0.041 A 
ATOM      9  C   UNL     1      -9.932  14.010  67.531  0.00  0.00    +0.024 A 
ATOM     10  N   UNL     1     -10.145  17.445  67.819  0.00  0.00    -0.211 NA
ENDROOT
BRANCH   1  11
ATOM     11  C   UNL     1      -9.383  19.598  66.279  0.00  0.00    +0.428 C 
ATOM     12  O   UNL     1     -10.546  19.865  65.885  0.00  0.00    -0.224 OA
BRANCH  11  14
ATOM     13  C   UNL     1      -7.425  20.555  67.356  0.00  0.00    +0.257 C 
ATOM     14  O   UNL     1      -8.823  20.458  67.216  0.00  0.00    -0.429 OA
ENDBRANCH  11  14
ENDBRANCH   1  11
BRANCH   8  15
ATOM     15  C   UNL     1     -11.602  12.240  67.375  0.00  0.00    +0.196 C 
ATOM     16  O   UNL     1     -12.090  11.488  68.271  0.00  0.00    -0.287 OA
BRANCH  15  17
ATOM     17  C   UNL     1     -11.503  11.799  65.988  0.00  0.00    +0.039 A 
ATOM     18  C   UNL     1     -12.196  12.554  65.050  0.00  0.00    +0.003 A 
ATOM     19  C   UNL     1     -12.052  12.302  63.692  0.00  0.00    +0.000 A 
ATOM     20  C   UNL     1     -10.870  11.703  63.291  0.00  0.00    +0.000 A 
ATOM     21  C   UNL     1     -10.279  10.833  64.196  0.00  0.00    +0.000 A 
ATOM     22  C   UNL     1     -10.440  11.028  65.559  0.00  0.00    +0.003 A 
ENDBRANCH  15  17
ENDBRANCH   8  15
TORSDOF 4
ENDMDL
MODEL 6
REMARK VINA RESULT:      -7.0      5.924      6.949
REMARK  Name = 
REMARK  4 active torsions:
REMARK  status: ('A' for Active; 'I' for Inactive)
REMARK    1  A    between atoms: O_2  and  C_3
REMARK    2  A    between atoms: C_3  and  N_5
REMARK    3  A    between atoms: C_11  and  C_12
REMARK    4  A    between atoms: C_12  and  C_14
REMARK                            x       y       z     vdW  Elec       q    Type
REMARK                         _______ _______ _______ _____ _____    ______ ____
ROOT
ATOM      1  N   UNL     1      -5.698  19.053  68.882  0.00  0.00    -0.106 NA
ATOM      2  C   UNL     1      -6.984  18.855  68.825  0.00  0.00    +0.246 A 
ATOM      3  N   UNL     1      -7.670  17.707  68.800  0.00  0.00    -0.211 NA
ATOM      4  C   UNL     1      -8.856  17.862  68.173  0.00  0.00    +0.102 A 
ATOM      5  C   UNL     1      -8.942  19.206  67.879  0.00  0.00    +0.102 A 
ATOM      6  C   UNL     1      -9.920  19.608  66.977  0.00  0.00    +0.021 A 
ATOM      7  C   UNL     1     -10.521  18.729  66.099  0.00  0.00    +0.005 A 
ATOM      8  C   UNL     1     -10.315  17.375  66.301  0.00  0.00    +0.041 A 
ATOM      9  C   UNL     1      -9.565  16.973  67.372  0.00  0.00    +0.024 A 
ATOM     10  N   UNL     1      -7.800  19.795  68.291  0.00  0.00    -0.211 NA
ENDROOT
BRANCH   1  11
ATOM     11  C   UNL     1      -5.168  20.366  68.872  0.00  0.00    +0.428 C 
ATOM     12  O   UNL     1      -4.885  20.929  67.785  0.00  0.00    -0.224 OA
BRANCH  11  14
ATOM     13  C   UNL     1      -4.302  21.331  70.928  0.00  0.00    +0.257 C 
ATOM     14  O   UNL     1      -5.334  21.188  69.981  0.00  0.00    -0.429 OA
ENDBRANCH  11  14
ENDBRANCH   1  11
BRANCH   8  15
ATOM     15  C   UNL     1     -10.835  16.373  65.379  0.00  0.00    +0.196 C 
ATOM     16  O   UNL     1     -11.246  16.817  64.264  0.00  0.00    -0.287 OA
BRANCH  15  17
ATOM     17  C   UNL     1     -10.858  14.945  65.679  0.00  0.00    +0.039 A 
ATOM     18  C   UNL     1     -11.903  14.501  66.479  0.00  0.00    +0.003 A 
ATOM     19  C   UNL     1     -12.094  13.144  66.705  0.00  0.00    +0.000 A 
ATOM     20  C   UNL     1     -11.605  12.277  65.744  0.00  0.00    +0.000 A 
ATOM     21  C   UNL     1     -10.466  12.685  65.064  0.00  0.00    +0.000 A 
ATOM     22  C   UNL     1     -10.221  14.035  64.861  0.00  0.00    +0.003 A 
ENDBRANCH  15  17
ENDBRANCH   8  15
TORSDOF 4
ENDMDL
MODEL 7
REMARK VINA RESULT:      -7.0      5.621      8.193
REMARK  Name = 
REMARK  4 active torsions:
REMARK  status: ('A' for Active; 'I' for Inactive)
REMARK    1  A    between atoms: O_2  and  C_3
REMARK    2  A    between atoms: C_3  and  N_5
REMARK    3  A    between atoms: C_11  and  C_12
REMARK    4  A    between atoms: C_12  and  C_14
REMARK                            x       y       z     vdW  Elec       q    Type
REMARK                         _______ _______ _______ _____ _____    ______ ____
ROOT
ATOM      1  N   UNL     1     -12.366  14.087  66.651  0.00  0.00    -0.106 NA
ATOM      2  C   UNL     1     -11.307  14.626  67.184  0.00  0.00    +0.246 A 
ATOM      3  N   UNL     1     -11.208  15.661  68.025  0.00  0.00    -0.211 NA
ATOM      4  C   UNL     1     -10.013  16.279  67.899  0.00  0.00    +0.102 A 
ATOM      5  C   UNL     1      -9.303  15.520  66.994  0.00  0.00    +0.102 A 
ATOM      6  C   UNL     1      -8.151  16.075  66.450  0.00  0.00    +0.021 A 
ATOM      7  C   UNL     1      -7.907  17.433  66.465  0.00  0.00    +0.005 A 
ATOM      8  C   UNL     1      -8.718  18.224  67.262  0.00  0.00    +0.041 A 
ATOM      9  C   UNL     1      -9.688  17.625  68.019  0.00  0.00    +0.024 A 
ATOM     10  N   UNL     1     -10.101  14.515  66.577  0.00  0.00    -0.211 NA
ENDROOT
BRANCH   1  11
ATOM     11  C   UNL     1     -12.249  12.999  65.753  0.00  0.00    +0.428 C 
ATOM     12  O   UNL     1     -12.012  11.842  66.183  0.00  0.00    -0.224 OA
BRANCH  11  14
ATOM     13  C   UNL     1     -12.402  12.193  63.465  0.00  0.00    +0.257 C 
ATOM     14  O   UNL     1     -12.786  13.096  64.474  0.00  0.00    -0.429 OA
ENDBRANCH  11  14
ENDBRANCH   1  11
BRANCH   8  15
ATOM     15  C   UNL     1      -8.597  19.677  67.279  0.00  0.00    +0.196 C 
ATOM     16  O   UNL     1      -9.666  20.317  67.044  0.00  0.00    -0.287 OA
BRANCH  15  17
ATOM     17  C   UNL     1      -7.350  20.372  67.579  0.00  0.00    +0.039 A 
ATOM     18  C   UNL     1      -6.759  20.076  68.800  0.00  0.00    +0.003 A 
ATOM     19  C   UNL     1      -5.502  20.575  69.118  0.00  0.00    +0.000 A 
ATOM     20  C   UNL     1      -4.669  20.887  68.058  0.00  0.00    +0.000 A 
ATOM     21  C   UNL     1      -5.285  21.327  66.895  0.00  0.00    +0.000 A 
ATOM     22  C   UNL     1      -6.559  20.884  66.570  0.00  0.00    +0.003 A 
ENDBRANCH  15  17
ENDBRANCH   8  15
TORSDOF 4
ENDMDL
MODEL 8
REMARK VINA RESULT:      -6.9      4.136      5.660
REMARK  Name = 
REMARK  4 active torsions:
REMARK  status: ('A' for Active; 'I' for Inactive)
REMARK    1  A    between atoms: O_2  and  C_3
REMARK    2  A    between atoms: C_3  and  N_5
REMARK    3  A    between atoms: C_11  and  C_12
REMARK    4  A    between atoms: C_12  and  C_14
REMARK                            x       y       z     vdW  Elec       q    Type
REMARK                         _______ _______ _______ _____ _____    ______ ____
ROOT
ATOM      1  N   UNL     1     -13.307  15.908  71.863  0.00  0.00    -0.106 NA
ATOM      2  C   UNL     1     -12.270  15.702  71.103  0.00  0.00    +0.246 A 
ATOM      3  N   UNL     1     -11.262  16.526  70.794  0.00  0.00    -0.211 NA
ATOM      4  C   UNL     1     -10.728  16.213  69.594  0.00  0.00    +0.102 A 
ATOM      5  C   UNL     1     -11.386  15.073  69.186  0.00  0.00    +0.102 A 
ATOM      6  C   UNL     1     -11.250  14.690  67.857  0.00  0.00    +0.021 A 
ATOM      7  C   UNL     1     -10.834  15.565  66.875  0.00  0.00    +0.005 A 
ATOM      8  C   UNL     1     -10.308  16.781  67.276  0.00  0.00    +0.041 A 
ATOM      9  C   UNL     1     -10.189  17.040  68.614  0.00  0.00    +0.024 A 
ATOM     10  N   UNL     1     -12.313  14.771  70.120  0.00  0.00    -0.211 NA
ENDROOT
BRANCH   1  11
ATOM     11  C   UNL     1     -14.284  14.898  72.040  0.00  0.00    +0.428 C 
ATOM     12  O   UNL     1     -15.271  14.826  71.265  0.00  0.00    -0.224 OA
BRANCH  11  14
ATOM     13  C   UNL     1     -13.644  12.555  72.126  0.00  0.00    +0.257 C 
ATOM     14  O   UNL     1     -13.977  13.759  72.775  0.00  0.00    -0.429 OA
ENDBRANCH  11  14
ENDBRANCH   1  11
BRANCH   8  15
ATOM     15  C   UNL     1      -9.922  17.806  66.314  0.00  0.00    +0.196 C 
ATOM     16  O   UNL     1     -10.770  18.046  65.403  0.00  0.00    -0.287 OA
BRANCH  15  17
ATOM     17  C   UNL     1      -8.668  18.547  66.395  0.00  0.00    +0.039 A 
ATOM     18  C   UNL     1      -8.713  19.762  67.066  0.00  0.00    +0.003 A 
ATOM     19  C   UNL     1      -7.547  20.474  67.320  0.00  0.00    +0.000 A 
ATOM     20  C   UNL     1      -6.373  19.745  67.385  0.00  0.00    +0.000 A 
ATOM     21  C   UNL     1      -6.301  18.614  66.583  0.00  0.00    +0.000 A 
ATOM     22  C   UNL     1      -7.452  17.905  66.272  0.00  0.00    +0.003 A 
ENDBRANCH  15  17
ENDBRANCH   8  15
TORSDOF 4
ENDMDL
MODEL 9
REMARK VINA RESULT:      -6.9      3.777      6.853
REMARK  Name = 
REMARK  4 active torsions:
REMARK  status: ('A' for Active; 'I' for Inactive)
REMARK    1  A    between atoms: O_2  and  C_3
REMARK    2  A    between atoms: C_3  and  N_5
REMARK    3  A    between atoms: C_11  and  C_12
REMARK    4  A    between atoms: C_12  and  C_14
REMARK                            x       y       z     vdW  Elec       q    Type
REMARK                         _______ _______ _______ _____ _____    ______ ____
ROOT
ATOM      1  N   UNL     1     -12.094  12.183  65.482  0.00  0.00    -0.106 NA
ATOM      2  C   UNL     1     -11.555  12.054  66.660  0.00  0.00    +0.246 A 
ATOM      3  N   UNL     1     -11.130  10.951  67.287  0.00  0.00    -0.211 NA
ATOM      4  C   UNL     1     -11.185  11.102  68.629  0.00  0.00    +0.102 A 
ATOM      5  C   UNL     1     -11.579  12.407  68.834  0.00  0.00    +0.102 A 
ATOM      6  C   UNL     1     -12.002  12.759  70.110  0.00  0.00    +0.021 A 
ATOM      7  C   UNL     1     -12.407  11.823  71.040  0.00  0.00    +0.005 A 
ATOM      8  C   UNL     1     -12.146  10.491  70.767  0.00  0.00    +0.041 A 
ATOM      9  C   UNL     1     -11.473  10.170  69.620  0.00  0.00    +0.024 A 
ATOM     10  N   UNL     1     -11.790  12.973  67.627  0.00  0.00    -0.211 NA
ENDROOT
BRANCH   1  11
ATOM     11  C   UNL     1     -12.502  13.454  65.010  0.00  0.00    +0.428 C 
ATOM     12  O   UNL     1     -13.557  13.984  65.441  0.00  0.00    -0.224 OA
BRANCH  11  14
ATOM     13  C   UNL     1     -11.121  15.454  65.067  0.00  0.00    +0.257 C 
ATOM     14  O   UNL     1     -11.577  14.297  64.405  0.00  0.00    -0.429 OA
ENDBRANCH  11  14
ENDBRANCH   1  11
BRANCH   8  15
ATOM     15  C   UNL     1     -12.611   9.422  71.643  0.00  0.00    +0.196 C 
ATOM     16  O   UNL     1     -13.805   9.535  72.056  0.00  0.00    -0.287 OA
BRANCH  15  17
ATOM     17  C   UNL     1     -11.791   8.272  72.005  0.00  0.00    +0.039 A 
ATOM     18  C   UNL     1     -12.167   7.051  71.460  0.00  0.00    +0.003 A 
ATOM     19  C   UNL     1     -11.372   5.925  71.629  0.00  0.00    +0.000 A 
ATOM     20  C   UNL     1     -10.023   6.142  71.853  0.00  0.00    +0.000 A 
ATOM     21  C   UNL     1      -9.689   7.302  72.538  0.00  0.00    +0.000 A 
ATOM     22  C   UNL     1     -10.487   8.431  72.428  0.00  0.00    +0.003 A 
ENDBRANCH  15  17
ENDBRANCH   8  15
TORSDOF 4
ENDMDL
