MODEL 1
REMARK VINA RESULT:      -7.1      0.000      0.000
REMARK  Name = 
REMARK  2 active torsions:
REMARK  status: ('A' for Active; 'I' for Inactive)
REMARK    1  A    between atoms: C_6  and  N_7
REMARK    2  A    between atoms: C_20  and  C_21
REMARK                            x       y       z     vdW  Elec       q    Type
REMARK                         _______ _______ _______ _____ _____    ______ ____
ROOT
ATOM      1  C   UNL     1      -9.506  14.805  68.504  0.00  0.00    +0.028 C 
ATOM      2  C   UNL     1      -8.801  13.585  67.608  0.00  0.00    +0.129 C 
ATOM      3  N   UNL     1      -9.408  14.047  66.210  0.00  0.00    -0.321 N 
ATOM      4  C   UNL     1      -9.627  15.316  66.006  0.00  0.00    +0.099 A 
ATOM      5  C   UNL     1     -10.494  15.730  64.997  0.00  0.00    +0.060 A 
ATOM      6  C   UNL     1     -11.426  14.815  64.516  0.00  0.00    +0.205 A 
ATOM      7  C   UNL     1     -11.239  13.482  64.855  0.00  0.00    +0.136 A 
ATOM      8  O   UNL     1     -12.582  15.178  64.181  0.00  0.00    -0.286 OA
ATOM      9  C   UNL     1     -10.922  17.049  65.123  0.00  0.00    +0.036 A 
ATOM     10  C   UNL     1     -10.302  17.948  65.977  0.00  0.00    +0.157 A 
ATOM     11  F   UNL     1     -10.914  19.064  66.453  0.00  0.00    -0.203 F 
ATOM     12  C   UNL     1      -9.004  17.599  66.328  0.00  0.00    +0.112 A 
ATOM     13  C   UNL     1      -8.663  16.253  66.356  0.00  0.00    +0.170 A 
ATOM     14  O   UNL     1      -7.708  15.762  67.244  0.00  0.00    -0.471 OA
ATOM     15  C   UNL     1     -10.213  13.097  65.698  0.00  0.00    +0.086 A 
ATOM     16  C   UNL     1      -7.386  14.429  67.367  0.00  0.00    +0.228 C 
ENDROOT
BRANCH  12  17
ATOM     17  N   UNL     1      -8.222  18.547  67.049  0.00  0.00    -0.301 N 
ATOM     18  C   UNL     1      -7.109  19.208  66.448  0.00  0.00    +0.108 C 
ATOM     19  C   UNL     1      -5.851  19.211  67.239  0.00  0.00    +0.094 C 
ATOM     20  N   UNL     1      -6.003  19.137  68.653  0.00  0.00    -0.269 NA
ATOM     21  C   UNL     1      -5.924  20.419  69.322  0.00  0.00    +0.090 C 
ATOM     22  C   UNL     1      -7.083  18.314  69.111  0.00  0.00    +0.094 C 
ATOM     23  C   UNL     1      -8.401  18.700  68.474  0.00  0.00    +0.108 C 
ENDBRANCH  12  17
BRANCH   7  24
ATOM     24  C   UNL     1     -12.181  12.452  64.424  0.00  0.00    +0.392 C 
ATOM     25  O   UNL     1     -11.864  11.614  63.371  0.00  0.00    -0.240 OA
ATOM     26  O   UNL     1     -13.344  12.462  64.930  0.00  0.00    -0.240 OA
ENDBRANCH   7  24
TORSDOF 2
ENDMDL
MODEL 2
REMARK VINA RESULT:      -7.0      2.934      7.509
REMARK  Name = 
REMARK  2 active torsions:
REMARK  status: ('A' for Active; 'I' for Inactive)
REMARK    1  A    between atoms: C_6  and  N_7
REMARK    2  A    between atoms: C_20  and  C_21
REMARK                            x       y       z     vdW  Elec       q    Type
REMARK                         _______ _______ _______ _____ _____    ______ ____
ROOT
ATOM      1  C   UNL     1     -10.179  19.315  68.417  0.00  0.00    +0.028 C 
ATOM      2  C   UNL     1      -9.156  20.315  67.556  0.00  0.00    +0.129 C 
ATOM      3  N   UNL     1      -7.832  19.481  67.857  0.00  0.00    -0.321 N 
ATOM      4  C   UNL     1      -7.922  18.190  68.014  0.00  0.00    +0.099 A 
ATOM      5  C   UNL     1      -6.904  17.484  68.650  0.00  0.00    +0.060 A 
ATOM      6  C   UNL     1      -6.031  18.188  69.473  0.00  0.00    +0.205 A 
ATOM      7  C   UNL     1      -6.045  19.572  69.375  0.00  0.00    +0.136 A 
ATOM      8  O   UNL     1      -5.581  17.680  70.530  0.00  0.00    -0.286 OA
ATOM      9  C   UNL     1      -7.278  16.212  69.079  0.00  0.00    +0.036 A 
ATOM     10  C   UNL     1      -8.439  15.597  68.638  0.00  0.00    +0.157 A 
ATOM     11  F   UNL     1      -9.057  14.597  69.322  0.00  0.00    -0.203 F 
ATOM     12  C   UNL     1      -8.937  16.104  67.445  0.00  0.00    +0.112 A 
ATOM     13  C   UNL     1      -8.684  17.434  67.132  0.00  0.00    +0.170 A 
ATOM     14  O   UNL     1      -9.586  18.191  66.387  0.00  0.00    -0.471 OA
ATOM     15  C   UNL     1      -6.946  20.220  68.549  0.00  0.00    +0.086 A 
ATOM     16  C   UNL     1      -9.423  19.530  66.113  0.00  0.00    +0.228 C 
ENDROOT
BRANCH  12  17
ATOM     17  N   UNL     1     -10.016  15.418  66.817  0.00  0.00    -0.301 N 
ATOM     18  C   UNL     1     -11.308  15.347  67.420  0.00  0.00    +0.108 C 
ATOM     19  C   UNL     1     -11.926  13.997  67.478  0.00  0.00    +0.094 C 
ATOM     20  N   UNL     1     -11.523  13.083  66.463  0.00  0.00    -0.269 NA
ATOM     21  C   UNL     1     -12.448  12.990  65.352  0.00  0.00    +0.090 C 
ATOM     22  C   UNL     1     -10.150  13.177  66.062  0.00  0.00    +0.094 C 
ATOM     23  C   UNL     1      -9.772  14.587  65.661  0.00  0.00    +0.108 C 
ENDBRANCH  12  17
BRANCH   7  24
ATOM     24  C   UNL     1      -5.188  20.401  70.220  0.00  0.00    +0.392 C 
ATOM     25  O   UNL     1      -5.641  20.846  71.448  0.00  0.00    -0.240 OA
ATOM     26  O   UNL     1      -4.101  20.827  69.725  0.00  0.00    -0.240 OA
ENDBRANCH   7  24
TORSDOF 2
ENDMDL
MODEL 3
REMARK VINA RESULT:      -7.0      4.484      7.435
REMARK  Name = 
REMARK  2 active torsions:
REMARK  status: ('A' for Active; 'I' for Inactive)
REMARK    1  A    between atoms: C_6  and  N_7
REMARK    2  A    between atoms: C_20  and  C_21
REMARK                            x       y       z     vdW  Elec       q    Type
REMARK                         _______ _______ _______ _____ _____    ______ ____
ROOT
ATOM      1  C   UNL     1     -11.974  14.658  66.915  0.00  0.00    +0.028 C 
ATOM      2  C   UNL     1     -11.353  15.857  67.897  0.00  0.00    +0.129 C 
ATOM      3  N   UNL     1     -11.409  15.005  69.241  0.00  0.00    -0.321 N 
ATOM      4  C   UNL     1     -11.254  13.713  69.175  0.00  0.00    +0.099 A 
ATOM      5  C   UNL     1     -11.674  12.896  70.222  0.00  0.00    +0.060 A 
ATOM      6  C   UNL     1     -12.619  13.401  71.110  0.00  0.00    +0.205 A 
ATOM      7  C   UNL     1     -12.858  14.768  71.072  0.00  0.00    +0.136 A 
ATOM      8  O   UNL     1     -13.511  12.664  71.600  0.00  0.00    -0.286 OA
ATOM      9  C   UNL     1     -11.794  11.551  69.881  0.00  0.00    +0.036 A 
ATOM     10  C   UNL     1     -11.249  11.034  68.716  0.00  0.00    +0.157 A 
ATOM     11  F   UNL     1     -11.687   9.887  68.135  0.00  0.00    -0.203 F 
ATOM     12  C   UNL     1     -10.226  11.802  68.174  0.00  0.00    +0.112 A 
ATOM     13  C   UNL     1     -10.235  13.174  68.398  0.00  0.00    +0.170 A 
ATOM     14  O   UNL     1      -9.719  14.068  67.462  0.00  0.00    -0.471 OA
ATOM     15  C   UNL     1     -12.235  15.576  70.137  0.00  0.00    +0.086 A 
ATOM     16  C   UNL     1      -9.770  15.436  67.597  0.00  0.00    +0.228 C 
ENDROOT
BRANCH  12  17
ATOM     17  N   UNL     1      -9.480  11.263  67.087  0.00  0.00    -0.301 N 
ATOM     18  C   UNL     1      -9.996  11.258  65.757  0.00  0.00    +0.108 C 
ATOM     19  C   UNL     1      -9.905   9.966  65.028  0.00  0.00    +0.094 C 
ATOM     20  N   UNL     1      -8.843   9.103  65.422  0.00  0.00    -0.269 NA
ATOM     21  C   UNL     1      -7.675   9.177  64.568  0.00  0.00    +0.090 C 
ATOM     22  C   UNL     1      -8.534   9.109  66.821  0.00  0.00    +0.094 C 
ATOM     23  C   UNL     1      -8.275  10.508  67.339  0.00  0.00    +0.108 C 
ENDBRANCH  12  17
BRANCH   7  24
ATOM     24  C   UNL     1     -13.854  15.388  71.942  0.00  0.00    +0.392 C 
ATOM     25  O   UNL     1     -15.145  15.589  71.491  0.00  0.00    -0.240 OA
ATOM     26  O   UNL     1     -13.458  15.878  73.043  0.00  0.00    -0.240 OA
ENDBRANCH   7  24
TORSDOF 2
ENDMDL
MODEL 4
REMARK VINA RESULT:      -6.9      2.764      6.900
REMARK  Name = 
REMARK  2 active torsions:
REMARK  status: ('A' for Active; 'I' for Inactive)
REMARK    1  A    between atoms: C_6  and  N_7
REMARK    2  A    between atoms: C_20  and  C_21
REMARK                            x       y       z     vdW  Elec       q    Type
REMARK                         _______ _______ _______ _____ _____    ______ ____
ROOT
ATOM      1  C   UNL     1      -6.506  15.905  67.249  0.00  0.00    +0.028 C 
ATOM      2  C   UNL     1      -6.047  16.104  68.842  0.00  0.00    +0.129 C 
ATOM      3  N   UNL     1      -6.809  17.487  69.053  0.00  0.00    -0.321 N 
ATOM      4  C   UNL     1      -7.908  17.709  68.389  0.00  0.00    +0.099 A 
ATOM      5  C   UNL     1      -8.388  19.007  68.232  0.00  0.00    +0.060 A 
ATOM      6  C   UNL     1      -7.497  20.062  68.402  0.00  0.00    +0.205 A 
ATOM      7  C   UNL     1      -6.278  19.772  69.000  0.00  0.00    +0.136 A 
ATOM      8  O   UNL     1      -7.571  21.097  67.693  0.00  0.00    -0.286 OA
ATOM      9  C   UNL     1      -9.332  19.144  67.217  0.00  0.00    +0.036 A 
ATOM     10  C   UNL     1      -9.959  18.051  66.640  0.00  0.00    +0.157 A 
ATOM     11  F   UNL     1     -10.529  18.086  65.407  0.00  0.00    -0.203 F 
ATOM     12  C   UNL     1      -9.937  16.902  67.421  0.00  0.00    +0.112 A 
ATOM     13  C   UNL     1      -8.881  16.721  68.306  0.00  0.00    +0.170 A 
ATOM     14  O   UNL     1      -8.411  15.449  68.627  0.00  0.00    -0.471 OA
ATOM     15  C   UNL     1      -5.940  18.474  69.339  0.00  0.00    +0.086 A 
ATOM     16  C   UNL     1      -7.323  15.215  69.436  0.00  0.00    +0.228 C 
ENDROOT
BRANCH  12  17
ATOM     17  N   UNL     1     -10.713  15.784  66.999  0.00  0.00    -0.301 N 
ATOM     18  C   UNL     1     -11.673  15.175  67.860  0.00  0.00    +0.108 C 
ATOM     19  C   UNL     1     -11.604  13.694  67.966  0.00  0.00    +0.094 C 
ATOM     20  N   UNL     1     -11.076  13.012  66.833  0.00  0.00    -0.269 NA
ATOM     21  C   UNL     1     -12.085  12.474  65.945  0.00  0.00    +0.090 C 
ATOM     22  C   UNL     1     -10.011  13.688  66.152  0.00  0.00    +0.094 C 
ATOM     23  C   UNL     1     -10.390  15.102  65.768  0.00  0.00    +0.108 C 
ENDBRANCH  12  17
BRANCH   7  24
ATOM     24  C   UNL     1      -5.264  20.806  69.192  0.00  0.00    +0.392 C 
ATOM     25  O   UNL     1      -4.324  21.052  68.209  0.00  0.00    -0.240 OA
ATOM     26  O   UNL     1      -5.174  21.342  70.338  0.00  0.00    -0.240 OA
ENDBRANCH   7  24
TORSDOF 2
ENDMDL
MODEL 5
REMARK VINA RESULT:      -6.9      4.988      8.098
REMARK  Name = 
REMARK  2 active torsions:
REMARK  status: ('A' for Active; 'I' for Inactive)
REMARK    1  A    between atoms: C_6  and  N_7
REMARK    2  A    between atoms: C_20  and  C_21
REMARK                            x       y       z     vdW  Elec       q    Type
REMARK                         _______ _______ _______ _____ _____    ______ ____
ROOT
ATOM      1  C   UNL     1      -9.623  11.844  68.695  0.00  0.00    +0.028 C 
ATOM      2  C   UNL     1     -11.155  12.506  68.766  0.00  0.00    +0.129 C 
ATOM      3  N   UNL     1     -11.504  12.260  67.232  0.00  0.00    -0.321 N 
ATOM      4  C   UNL     1     -10.985  11.230  66.625  0.00  0.00    +0.099 A 
ATOM      5  C   UNL     1     -10.932  11.183  65.234  0.00  0.00    +0.060 A 
ATOM      6  C   UNL     1     -11.029  12.380  64.532  0.00  0.00    +0.205 A 
ATOM      7  C   UNL     1     -11.464  13.495  65.236  0.00  0.00    +0.136 A 
ATOM      8  O   UNL     1     -10.369  12.573  63.480  0.00  0.00    -0.286 OA
ATOM      9  C   UNL     1     -10.044  10.235  64.731  0.00  0.00    +0.036 A 
ATOM     10  C   UNL     1      -9.511   9.231  65.524  0.00  0.00    +0.157 A 
ATOM     11  F   UNL     1      -8.357   8.578  65.222  0.00  0.00    -0.203 F 
ATOM     12  C   UNL     1     -10.243   8.959  66.673  0.00  0.00    +0.112 A 
ATOM     13  C   UNL     1     -10.987   9.985  67.243  0.00  0.00    +0.170 A 
ATOM     14  O   UNL     1     -11.206  10.049  68.618  0.00  0.00    -0.471 OA
ATOM     15  C   UNL     1     -11.715  13.427  66.595  0.00  0.00    +0.086 A 
ATOM     16  C   UNL     1     -11.869  11.079  69.243  0.00  0.00    +0.228 C 
ENDROOT
BRANCH  12  17
ATOM     17  N   UNL     1      -9.881   7.824  67.453  0.00  0.00    -0.301 N 
ATOM     18  C   UNL     1     -10.758   6.709  67.600  0.00  0.00    +0.108 C 
ATOM     19  C   UNL     1     -10.967   6.225  68.990  0.00  0.00    +0.094 C 
ATOM     20  N   UNL     1      -9.897   6.461  69.900  0.00  0.00    -0.269 NA
ATOM     21  C   UNL     1      -9.024   5.322  70.090  0.00  0.00    +0.090 C 
ATOM     22  C   UNL     1      -9.198   7.698  69.716  0.00  0.00    +0.094 C 
ATOM     23  C   UNL     1      -8.708   7.868  68.294  0.00  0.00    +0.108 C 
ENDBRANCH  12  17
BRANCH   7  24
ATOM     24  C   UNL     1     -11.567  14.803  64.596  0.00  0.00    +0.392 C 
ATOM     25  O   UNL     1     -10.627  15.783  64.855  0.00  0.00    -0.240 OA
ATOM     26  O   UNL     1     -12.621  15.060  63.938  0.00  0.00    -0.240 OA
ENDBRANCH   7  24
TORSDOF 2
ENDMDL
MODEL 6
REMARK VINA RESULT:      -6.8      3.988      5.565
REMARK  Name = 
REMARK  2 active torsions:
REMARK  status: ('A' for Active; 'I' for Inactive)
REMARK    1  A    between atoms: C_6  and  N_7
REMARK    2  A    between atoms: C_20  and  C_21
REMARK                            x       y       z     vdW  Elec       q    Type
REMARK                         _______ _______ _______ _____ _____    ______ ____
ROOT
ATOM      1  C   UNL     1     -10.590  14.894  65.140  0.00  0.00    +0.028 C 
ATOM      2  C   UNL     1     -11.708  14.039  64.240  0.00  0.00    +0.129 C 
ATOM      3  N   UNL     1     -11.090  12.604  64.547  0.00  0.00    -0.321 N 
ATOM      4  C   UNL     1     -10.498  12.403  65.690  0.00  0.00    +0.099 A 
ATOM      5  C   UNL     1      -9.621  11.333  65.853  0.00  0.00    +0.060 A 
ATOM      6  C   UNL     1      -9.063  10.761  64.714  0.00  0.00    +0.205 A 
ATOM      7  C   UNL     1      -9.636  11.093  63.493  0.00  0.00    +0.136 A 
ATOM      8  O   UNL     1      -7.880  10.338  64.711  0.00  0.00    -0.286 OA
ATOM      9  C   UNL     1      -8.791  11.444  66.967  0.00  0.00    +0.036 A 
ATOM     10  C   UNL     1      -9.032  12.361  67.977  0.00  0.00    +0.157 A 
ATOM     11  F   UNL     1      -8.066  12.802  68.826  0.00  0.00    -0.203 F 
ATOM     12  C   UNL     1     -10.344  12.813  68.039  0.00  0.00    +0.112 A 
ATOM     13  C   UNL     1     -11.090  12.847  66.867  0.00  0.00    +0.170 A 
ATOM     14  O   UNL     1     -12.082  13.803  66.662  0.00  0.00    -0.471 OA
ATOM     15  C   UNL     1     -10.667  12.012  63.415  0.00  0.00    +0.086 A 
ATOM     16  C   UNL     1     -12.798  13.930  65.494  0.00  0.00    +0.228 C 
ENDROOT
BRANCH  12  17
ATOM     17  N   UNL     1     -10.732  13.611  69.153  0.00  0.00    -0.301 N 
ATOM     18  C   UNL     1     -11.758  13.190  70.051  0.00  0.00    +0.108 C 
ATOM     19  C   UNL     1     -12.804  14.199  70.362  0.00  0.00    +0.094 C 
ATOM     20  N   UNL     1     -12.403  15.562  70.270  0.00  0.00    -0.269 NA
ATOM     21  C   UNL     1     -12.053  16.161  71.542  0.00  0.00    +0.090 C 
ATOM     22  C   UNL     1     -11.474  15.859  69.220  0.00  0.00    +0.094 C 
ATOM     23  C   UNL     1     -10.252  14.967  69.275  0.00  0.00    +0.108 C 
ENDBRANCH  12  17
BRANCH   7  24
ATOM     24  C   UNL     1      -9.101  10.569  62.239  0.00  0.00    +0.392 C 
ATOM     25  O   UNL     1      -9.357   9.263  61.863  0.00  0.00    -0.240 OA
ATOM     26  O   UNL     1      -8.273  11.287  61.601  0.00  0.00    -0.240 OA
ENDBRANCH   7  24
TORSDOF 2
ENDMDL
MODEL 7
REMARK VINA RESULT:      -6.7      4.926      8.155
REMARK  Name = 
REMARK  2 active torsions:
REMARK  status: ('A' for Active; 'I' for Inactive)
REMARK    1  A    between atoms: C_6  and  N_7
REMARK    2  A    between atoms: C_20  and  C_21
REMARK                            x       y       z     vdW  Elec       q    Type
REMARK                         _______ _______ _______ _____ _____    ______ ____
ROOT
ATOM      1  C   UNL     1      -9.515  11.987  68.610  0.00  0.00    +0.028 C 
ATOM      2  C   UNL     1     -11.029  12.678  68.747  0.00  0.00    +0.129 C 
ATOM      3  N   UNL     1     -11.459  12.415  67.236  0.00  0.00    -0.321 N 
ATOM      4  C   UNL     1     -10.990  11.367  66.620  0.00  0.00    +0.099 A 
ATOM      5  C   UNL     1     -11.007  11.298  65.229  0.00  0.00    +0.060 A 
ATOM      6  C   UNL     1     -11.117  12.486  64.514  0.00  0.00    +0.205 A 
ATOM      7  C   UNL     1     -11.497  13.619  65.221  0.00  0.00    +0.136 A 
ATOM      8  O   UNL     1     -10.508  12.651  63.428  0.00  0.00    -0.286 OA
ATOM      9  C   UNL     1     -10.162  10.326  64.698  0.00  0.00    +0.036 A 
ATOM     10  C   UNL     1      -9.608   9.324  65.479  0.00  0.00    +0.157 A 
ATOM     11  F   UNL     1      -8.483   8.645  65.131  0.00  0.00    -0.203 F 
ATOM     12  C   UNL     1     -10.287   9.084  66.667  0.00  0.00    +0.112 A 
ATOM     13  C   UNL     1     -10.983  10.132  67.257  0.00  0.00    +0.170 A 
ATOM     14  O   UNL     1     -11.132  10.220  68.640  0.00  0.00    -0.471 OA
ATOM     15  C   UNL     1     -11.681  13.576  66.592  0.00  0.00    +0.086 A 
ATOM     16  C   UNL     1     -11.744  11.272  69.281  0.00  0.00    +0.228 C 
ENDROOT
BRANCH  12  17
ATOM     17  N   UNL     1      -9.907   7.953  67.446  0.00  0.00    -0.301 N 
ATOM     18  C   UNL     1      -8.691   7.936  68.193  0.00  0.00    +0.108 C 
ATOM     19  C   UNL     1      -7.841   6.729  68.025  0.00  0.00    +0.094 C 
ATOM     20  N   UNL     1      -8.525   5.528  67.681  0.00  0.00    -0.269 NA
ATOM     21  C   UNL     1      -8.792   4.659  68.808  0.00  0.00    +0.090 C 
ATOM     22  C   UNL     1      -9.645   5.690  66.802  0.00  0.00    +0.094 C 
ATOM     23  C   UNL     1     -10.633   6.711  67.323  0.00  0.00    +0.108 C 
ENDBRANCH  12  17
BRANCH   7  24
ATOM     24  C   UNL     1     -11.608  14.920  64.566  0.00  0.00    +0.392 C 
ATOM     25  O   UNL     1     -10.661  15.900  64.796  0.00  0.00    -0.240 OA
ATOM     26  O   UNL     1     -12.673  15.171  63.923  0.00  0.00    -0.240 OA
ENDBRANCH   7  24
TORSDOF 2
ENDMDL
MODEL 8
REMARK VINA RESULT:      -6.7      5.410      8.253
REMARK  Name = 
REMARK  2 active torsions:
REMARK  status: ('A' for Active; 'I' for Inactive)
REMARK    1  A    between atoms: C_6  and  N_7
REMARK    2  A    between atoms: C_20  and  C_21
REMARK                            x       y       z     vdW  Elec       q    Type
REMARK                         _______ _______ _______ _____ _____    ______ ____
ROOT
ATOM      1  C   UNL     1     -10.192   9.359  66.406  0.00  0.00    +0.028 C 
ATOM      2  C   UNL     1      -8.824  10.266  66.097  0.00  0.00    +0.129 C 
ATOM      3  N   UNL     1      -9.266  11.519  66.976  0.00  0.00    -0.321 N 
ATOM      4  C   UNL     1     -10.007  11.320  68.030  0.00  0.00    +0.099 A 
ATOM      5  C   UNL     1     -10.731  12.369  68.592  0.00  0.00    +0.060 A 
ATOM      6  C   UNL     1     -10.998  13.482  67.801  0.00  0.00    +0.205 A 
ATOM      7  C   UNL     1     -10.283  13.604  66.617  0.00  0.00    +0.136 A 
ATOM      8  O   UNL     1     -12.088  14.100  67.893  0.00  0.00    -0.286 OA
ATOM      9  C   UNL     1     -11.744  11.960  69.456  0.00  0.00    +0.036 A 
ATOM     10  C   UNL     1     -11.816  10.666  69.949  0.00  0.00    +0.157 A 
ATOM     11  F   UNL     1     -12.965  10.111  70.416  0.00  0.00    -0.203 F 
ATOM     12  C   UNL     1     -10.614   9.971  69.905  0.00  0.00    +0.112 A 
ATOM     13  C   UNL     1      -9.694  10.296  68.916  0.00  0.00    +0.170 A 
ATOM     14  O   UNL     1      -8.834   9.341  68.379  0.00  0.00    -0.471 OA
ATOM     15  C   UNL     1      -9.401  12.618  66.211  0.00  0.00    +0.086 A 
ATOM     16  C   UNL     1      -7.958   9.589  67.347  0.00  0.00    +0.228 C 
ENDROOT
BRANCH  12  17
ATOM     17  N   UNL     1     -10.542   8.706  70.556  0.00  0.00    -0.301 N 
ATOM     18  C   UNL     1     -10.963   7.507  69.908  0.00  0.00    +0.108 C 
ATOM     19  C   UNL     1     -11.870   6.627  70.691  0.00  0.00    +0.094 C 
ATOM     20  N   UNL     1     -11.746   6.708  72.107  0.00  0.00    -0.269 NA
ATOM     21  C   UNL     1     -10.928   5.663  72.688  0.00  0.00    +0.090 C 
ATOM     22  C   UNL     1     -11.463   8.014  72.625  0.00  0.00    +0.094 C 
ATOM     23  C   UNL     1     -10.248   8.634  71.969  0.00  0.00    +0.108 C 
ENDBRANCH  12  17
BRANCH   7  24
ATOM     24  C   UNL     1     -10.514  14.720  65.703  0.00  0.00    +0.392 C 
ATOM     25  O   UNL     1     -11.461  14.615  64.701  0.00  0.00    -0.240 OA
ATOM     26  O   UNL     1      -9.717  15.704  65.755  0.00  0.00    -0.240 OA
ENDBRANCH   7  24
TORSDOF 2
ENDMDL
MODEL 9
REMARK VINA RESULT:      -6.6      5.301      7.138
REMARK  Name = 
REMARK  2 active torsions:
REMARK  status: ('A' for Active; 'I' for Inactive)
REMARK    1  A    between atoms: C_6  and  N_7
REMARK    2  A    between atoms: C_20  and  C_21
REMARK                            x       y       z     vdW  Elec       q    Type
REMARK                         _______ _______ _______ _____ _____    ______ ____
ROOT
ATOM      1  C   UNL     1      -8.739  10.545  69.156  0.00  0.00    +0.028 C 
ATOM      2  C   UNL     1      -9.279   9.106  68.504  0.00  0.00    +0.129 C 
ATOM      3  N   UNL     1     -10.705   9.138  69.211  0.00  0.00    -0.321 N 
ATOM      4  C   UNL     1     -11.261  10.291  69.456  0.00  0.00    +0.099 A 
ATOM      5  C   UNL     1     -12.285  10.397  70.395  0.00  0.00    +0.060 A 
ATOM      6  C   UNL     1     -12.406   9.391  71.350  0.00  0.00    +0.205 A 
ATOM      7  C   UNL     1     -11.700   8.217  71.127  0.00  0.00    +0.136 A 
ATOM      8  O   UNL     1     -12.752   9.652  72.529  0.00  0.00    -0.286 OA
ATOM      9  C   UNL     1     -12.528  11.699  70.826  0.00  0.00    +0.036 A 
ATOM     10  C   UNL     1     -12.025  12.803  70.156  0.00  0.00    +0.157 A 
ATOM     11  F   UNL     1     -11.861  14.018  70.743  0.00  0.00    -0.203 F 
ATOM     12  C   UNL     1     -11.676  12.560  68.833  0.00  0.00    +0.112 A 
ATOM     13  C   UNL     1     -11.274  11.278  68.478  0.00  0.00    +0.170 A 
ATOM     14  O   UNL     1     -10.348  11.062  67.459  0.00  0.00    -0.471 OA
ATOM     15  C   UNL     1     -10.854   8.088  70.040  0.00  0.00    +0.086 A 
ATOM     16  C   UNL     1      -9.857   9.823  67.117  0.00  0.00    +0.228 C 
ENDROOT
BRANCH  12  17
ATOM     17  N   UNL     1     -11.327  13.670  68.012  0.00  0.00    -0.301 N 
ATOM     18  C   UNL     1     -12.071  13.995  66.839  0.00  0.00    +0.108 C 
ATOM     19  C   UNL     1     -11.274  14.235  65.608  0.00  0.00    +0.094 C 
ATOM     20  N   UNL     1      -9.947  14.713  65.809  0.00  0.00    -0.269 NA
ATOM     21  C   UNL     1      -9.809  16.148  65.665  0.00  0.00    +0.090 C 
ATOM     22  C   UNL     1      -9.271  14.182  66.955  0.00  0.00    +0.094 C 
ATOM     23  C   UNL     1     -10.077  14.362  68.223  0.00  0.00    +0.108 C 
ENDBRANCH  12  17
BRANCH   7  24
ATOM     24  C   UNL     1     -11.738   7.116  72.086  0.00  0.00    +0.392 C 
ATOM     25  O   UNL     1     -10.775   7.019  73.073  0.00  0.00    -0.240 OA
ATOM     26  O   UNL     1     -12.570   6.181  71.884  0.00  0.00    -0.240 OA
ENDBRANCH   7  24
TORSDOF 2
ENDMDL
