MODEL 1
REMARK VINA RESULT:      -7.2      0.000      0.000
REMARK  Name = 
REMARK  3 active torsions:
REMARK  status: ('A' for Active; 'I' for Inactive)
REMARK    1  A    between atoms: C_2  and  C_4
REMARK    2  A    between atoms: N_10  and  C_11
REMARK    3  A    between atoms: C_14  and  C_15
REMARK                            x       y       z     vdW  Elec       q    Type
REMARK                         _______ _______ _______ _____ _____    ______ ____
ROOT
ATOM      1  C   UNL     1     -11.080  12.138  64.354  0.00  0.00    +0.076 A 
ATOM      2  C   UNL     1     -10.328  12.502  65.440  0.00  0.00    +0.107 A 
ATOM      3  C   UNL     1      -9.360  11.629  65.925  0.00  0.00    +0.039 A 
ATOM      4  C   UNL     1      -8.893  12.270  67.057  0.00  0.00    +0.102 A 
ATOM      5  N   UNL     1      -9.377  13.531  67.097  0.00  0.00    -0.228 N 
ATOM      6  C   UNL     1      -8.940  10.569  65.152  0.00  0.00    +0.003 A 
ATOM      7  C   UNL     1      -9.447  10.462  63.861  0.00  0.00    +0.000 A 
ATOM      8  N   UNL     1     -10.449  13.520  66.312  0.00  0.00    -0.165 NA
ATOM      9  C   UNL     1     -10.581  11.174  63.505  0.00  0.00    +0.006 A 
ENDROOT
BRANCH   5  10
ATOM     10  C   UNL     1      -8.768  14.694  67.673  0.00  0.00    +0.083 A 
ATOM     11  C   UNL     1      -9.439  15.418  68.650  0.00  0.00    +0.019 A 
ATOM     12  C   UNL     1      -9.348  16.799  68.677  0.00  0.00    -0.003 A 
ATOM     13  C   UNL     1      -8.435  17.389  67.810  0.00  0.00    -0.021 A 
ATOM     14  C   UNL     1      -7.364  16.625  67.419  0.00  0.00    -0.003 A 
ATOM     15  C   UNL     1      -7.646  15.295  67.132  0.00  0.00    +0.019 A 
BRANCH  13  16
ATOM     16  C   UNL     1      -8.030  18.848  68.413  0.00  0.00    +0.040 C 
ATOM     17  C   UNL     1      -7.817  19.530  66.916  0.00  0.00    +0.093 C 
ATOM     18  N   UNL     1      -8.735  18.931  66.022  0.00  0.00    -0.218 NA
ATOM     19  C   UNL     1     -10.109  19.384  66.240  0.00  0.00    +0.089 C 
ATOM     20  C   UNL     1      -9.981  20.221  67.512  0.00  0.00    +0.019 C 
ATOM     21  C   UNL     1      -9.624  19.276  68.575  0.00  0.00    +0.007 C 
ENDBRANCH  13  16
ENDBRANCH   5  10
BRANCH   1  23
ATOM     22  N   UNL     1     -13.229  12.447  64.593  0.00  0.00    -0.084 NA
ATOM     23  C   UNL     1     -12.401  12.728  64.109  0.00  0.00    +0.286 C 
ATOM     24  O   UNL     1     -12.485  13.581  63.175  0.00  0.00    -0.267 OA
ENDBRANCH   1  23
TORSDOF 3
ENDMDL
MODEL 2
REMARK VINA RESULT:      -6.9      4.661      6.917
REMARK  Name = 
REMARK  3 active torsions:
REMARK  status: ('A' for Active; 'I' for Inactive)
REMARK    1  A    between atoms: C_2  and  C_4
REMARK    2  A    between atoms: N_10  and  C_11
REMARK    3  A    between atoms: C_14  and  C_15
REMARK                            x       y       z     vdW  Elec       q    Type
REMARK                         _______ _______ _______ _____ _____    ______ ____
ROOT
ATOM      1  C   UNL     1     -11.889   8.868  71.667  0.00  0.00    +0.076 A 
ATOM      2  C   UNL     1     -10.956   9.380  70.805  0.00  0.00    +0.107 A 
ATOM      3  C   UNL     1      -9.612   9.079  70.994  0.00  0.00    +0.039 A 
ATOM      4  C   UNL     1      -8.978   9.837  70.028  0.00  0.00    +0.102 A 
ATOM      5  N   UNL     1      -9.895  10.353  69.181  0.00  0.00    -0.228 N 
ATOM      6  C   UNL     1      -9.249   8.040  71.823  0.00  0.00    +0.003 A 
ATOM      7  C   UNL     1     -10.263   7.267  72.380  0.00  0.00    +0.000 A 
ATOM      8  N   UNL     1     -11.043  10.324  69.849  0.00  0.00    -0.165 NA
ATOM      9  C   UNL     1     -11.565   7.739  72.388  0.00  0.00    +0.006 A 
ENDROOT
BRANCH   5  10
ATOM     10  C   UNL     1      -9.737  10.668  67.792  0.00  0.00    +0.083 A 
ATOM     11  C   UNL     1      -9.176  11.881  67.414  0.00  0.00    +0.019 A 
ATOM     12  C   UNL     1      -9.658  12.555  66.305  0.00  0.00    -0.003 A 
ATOM     13  C   UNL     1     -10.586  11.885  65.513  0.00  0.00    -0.021 A 
ATOM     14  C   UNL     1     -10.550  10.514  65.538  0.00  0.00    -0.003 A 
ATOM     15  C   UNL     1     -10.346   9.939  66.787  0.00  0.00    +0.019 A 
BRANCH  13  16
ATOM     16  C   UNL     1     -10.534  12.528  64.016  0.00  0.00    +0.040 C 
ATOM     17  C   UNL     1     -12.170  12.386  63.780  0.00  0.00    +0.093 C 
ATOM     18  N   UNL     1     -12.815  12.563  65.026  0.00  0.00    -0.218 NA
ATOM     19  C   UNL     1     -12.811  13.959  65.468  0.00  0.00    +0.089 C 
ATOM     20  C   UNL     1     -11.920  14.631  64.424  0.00  0.00    +0.019 C 
ATOM     21  C   UNL     1     -10.580  14.070  64.625  0.00  0.00    +0.007 C 
ENDBRANCH  13  16
ENDBRANCH   5  10
BRANCH   1  23
ATOM     22  N   UNL     1     -14.065   9.041  71.741  0.00  0.00    -0.084 NA
ATOM     23  C   UNL     1     -13.193   9.515  71.853  0.00  0.00    +0.286 C 
ATOM     24  O   UNL     1     -13.187  10.760  72.088  0.00  0.00    -0.267 OA
ENDBRANCH   1  23
TORSDOF 3
ENDMDL
MODEL 3
REMARK VINA RESULT:      -6.8      2.271      3.746
REMARK  Name = 
REMARK  3 active torsions:
REMARK  status: ('A' for Active; 'I' for Inactive)
REMARK    1  A    between atoms: C_2  and  C_4
REMARK    2  A    between atoms: N_10  and  C_11
REMARK    3  A    between atoms: C_14  and  C_15
REMARK                            x       y       z     vdW  Elec       q    Type
REMARK                         _______ _______ _______ _____ _____    ______ ____
ROOT
ATOM      1  C   UNL     1     -11.665  12.969  66.736  0.00  0.00    +0.076 A 
ATOM      2  C   UNL     1     -11.304  14.271  66.960  0.00  0.00    +0.107 A 
ATOM      3  C   UNL     1     -11.474  14.819  68.227  0.00  0.00    +0.039 A 
ATOM      4  C   UNL     1     -11.114  16.142  68.052  0.00  0.00    +0.102 A 
ATOM      5  N   UNL     1     -10.545  16.301  66.836  0.00  0.00    -0.228 N 
ATOM      6  C   UNL     1     -11.693  13.996  69.309  0.00  0.00    +0.003 A 
ATOM      7  C   UNL     1     -11.651  12.621  69.101  0.00  0.00    +0.000 A 
ATOM      8  N   UNL     1     -10.960  15.263  66.118  0.00  0.00    -0.165 NA
ATOM      9  C   UNL     1     -11.741  12.115  67.815  0.00  0.00    +0.006 A 
ENDROOT
BRANCH   5  10
ATOM     10  C   UNL     1      -9.542  17.247  66.446  0.00  0.00    +0.083 A 
ATOM     11  C   UNL     1      -8.254  16.814  66.156  0.00  0.00    +0.019 A 
ATOM     12  C   UNL     1      -7.163  17.582  66.525  0.00  0.00    -0.003 A 
ATOM     13  C   UNL     1      -7.426  18.852  67.028  0.00  0.00    -0.021 A 
ATOM     14  C   UNL     1      -8.598  19.447  66.636  0.00  0.00    -0.003 A 
ATOM     15  C   UNL     1      -9.709  18.612  66.586  0.00  0.00    +0.019 A 
BRANCH  13  16
ATOM     16  C   UNL     1      -6.100  19.773  66.800  0.00  0.00    +0.040 C 
ATOM     17  C   UNL     1      -6.316  20.625  68.206  0.00  0.00    +0.093 C 
ATOM     18  N   UNL     1      -6.897  19.761  69.163  0.00  0.00    -0.218 NA
ATOM     19  C   UNL     1      -5.946  18.778  69.684  0.00  0.00    +0.089 C 
ATOM     20  C   UNL     1      -4.719  19.010  68.804  0.00  0.00    +0.019 C 
ATOM     21  C   UNL     1      -5.118  18.606  67.452  0.00  0.00    +0.007 C 
ENDBRANCH  13  16
ENDBRANCH   5  10
BRANCH   1  23
ATOM     22  N   UNL     1     -11.356  11.988  64.809  0.00  0.00    -0.084 NA
ATOM     23  C   UNL     1     -11.996  12.491  65.389  0.00  0.00    +0.286 C 
ATOM     24  O   UNL     1     -13.131  12.813  64.928  0.00  0.00    -0.267 OA
ENDBRANCH   1  23
TORSDOF 3
ENDMDL
MODEL 4
REMARK VINA RESULT:      -6.8      2.397      3.670
REMARK  Name = 
REMARK  3 active torsions:
REMARK  status: ('A' for Active; 'I' for Inactive)
REMARK    1  A    between atoms: C_2  and  C_4
REMARK    2  A    between atoms: N_10  and  C_11
REMARK    3  A    between atoms: C_14  and  C_15
REMARK                            x       y       z     vdW  Elec       q    Type
REMARK                         _______ _______ _______ _____ _____    ______ ____
ROOT
ATOM      1  C   UNL     1     -11.655  13.381  66.745  0.00  0.00    +0.076 A 
ATOM      2  C   UNL     1     -11.529  14.566  67.419  0.00  0.00    +0.107 A 
ATOM      3  C   UNL     1     -11.705  14.591  68.799  0.00  0.00    +0.039 A 
ATOM      4  C   UNL     1     -11.612  15.935  69.107  0.00  0.00    +0.102 A 
ATOM      5  N   UNL     1     -11.173  16.620  68.027  0.00  0.00    -0.228 N 
ATOM      6  C   UNL     1     -11.687  13.415  69.515  0.00  0.00    +0.003 A 
ATOM      7  C   UNL     1     -11.404  12.238  68.830  0.00  0.00    +0.000 A 
ATOM      8  N   UNL     1     -11.438  15.838  66.986  0.00  0.00    -0.165 NA
ATOM      9  C   UNL     1     -11.492  12.207  67.448  0.00  0.00    +0.006 A 
ENDROOT
BRANCH   5  10
ATOM     10  C   UNL     1     -10.396  17.823  68.000  0.00  0.00    +0.083 A 
ATOM     11  C   UNL     1     -10.401  18.628  66.868  0.00  0.00    +0.019 A 
ATOM     12  C   UNL     1      -9.240  19.261  66.460  0.00  0.00    -0.003 A 
ATOM     13  C   UNL     1      -8.148  19.192  67.319  0.00  0.00    -0.021 A 
ATOM     14  C   UNL     1      -8.415  19.012  68.652  0.00  0.00    -0.003 A 
ATOM     15  C   UNL     1      -9.430  18.109  68.947  0.00  0.00    +0.019 A 
BRANCH  13  16
ATOM     16  C   UNL     1      -7.168  20.455  66.998  0.00  0.00    +0.040 C 
ATOM     17  C   UNL     1      -5.791  19.635  67.425  0.00  0.00    +0.093 C 
ATOM     18  N   UNL     1      -5.964  18.272  67.092  0.00  0.00    -0.218 NA
ATOM     19  C   UNL     1      -5.885  18.032  65.650  0.00  0.00    +0.089 C 
ATOM     20  C   UNL     1      -5.815  19.449  65.084  0.00  0.00    +0.019 C 
ATOM     21  C   UNL     1      -7.112  20.062  65.387  0.00  0.00    +0.007 C 
ENDBRANCH  13  16
ENDBRANCH   5  10
BRANCH   1  23
ATOM     22  N   UNL     1     -11.313  13.196  64.596  0.00  0.00    -0.084 NA
ATOM     23  C   UNL     1     -11.988  13.348  65.317  0.00  0.00    +0.286 C 
ATOM     24  O   UNL     1     -13.187  13.608  65.000  0.00  0.00    -0.267 OA
ENDBRANCH   1  23
TORSDOF 3
ENDMDL
MODEL 5
REMARK VINA RESULT:      -6.6      1.576      2.461
REMARK  Name = 
REMARK  3 active torsions:
REMARK  status: ('A' for Active; 'I' for Inactive)
REMARK    1  A    between atoms: C_2  and  C_4
REMARK    2  A    between atoms: N_10  and  C_11
REMARK    3  A    between atoms: C_14  and  C_15
REMARK                            x       y       z     vdW  Elec       q    Type
REMARK                         _______ _______ _______ _____ _____    ______ ____
ROOT
ATOM      1  C   UNL     1     -11.307  12.460  64.833  0.00  0.00    +0.076 A 
ATOM      2  C   UNL     1     -11.063  13.348  65.847  0.00  0.00    +0.107 A 
ATOM      3  C   UNL     1     -10.326  12.938  66.953  0.00  0.00    +0.039 A 
ATOM      4  C   UNL     1     -10.375  14.034  67.793  0.00  0.00    +0.102 A 
ATOM      5  N   UNL     1     -10.892  15.092  67.129  0.00  0.00    -0.228 N 
ATOM      6  C   UNL     1      -9.587  11.777  66.895  0.00  0.00    +0.003 A 
ATOM      7  C   UNL     1      -9.538  11.095  65.683  0.00  0.00    +0.000 A 
ATOM      8  N   UNL     1     -11.565  14.569  66.109  0.00  0.00    -0.165 NA
ATOM      9  C   UNL     1     -10.469  11.375  64.697  0.00  0.00    +0.006 A 
ENDROOT
BRANCH   5  10
ATOM     10  C   UNL     1     -10.614  16.483  67.329  0.00  0.00    +0.083 A 
ATOM     11  C   UNL     1     -10.190  17.267  66.264  0.00  0.00    +0.019 A 
ATOM     12  C   UNL     1      -9.240  18.254  66.463  0.00  0.00    -0.003 A 
ATOM     13  C   UNL     1      -8.876  18.525  67.777  0.00  0.00    -0.021 A 
ATOM     14  C   UNL     1      -9.800  18.239  68.750  0.00  0.00    -0.003 A 
ATOM     15  C   UNL     1     -10.498  17.048  68.586  0.00  0.00    +0.019 A 
BRANCH  13  16
ATOM     16  C   UNL     1      -8.291  20.045  67.839  0.00  0.00    +0.040 C 
ATOM     17  C   UNL     1      -7.180  19.686  69.018  0.00  0.00    +0.093 C 
ATOM     18  N   UNL     1      -6.748  18.353  68.829  0.00  0.00    -0.218 NA
ATOM     19  C   UNL     1      -5.853  18.211  67.679  0.00  0.00    +0.089 C 
ATOM     20  C   UNL     1      -5.908  19.600  67.046  0.00  0.00    +0.019 C 
ATOM     21  C   UNL     1      -7.280  19.759  66.555  0.00  0.00    +0.007 C 
ENDBRANCH  13  16
ENDBRANCH   5  10
BRANCH   1  23
ATOM     22  N   UNL     1     -13.187  11.965  63.838  0.00  0.00    -0.084 NA
ATOM     23  C   UNL     1     -12.449  12.632  63.928  0.00  0.00    +0.286 C 
ATOM     24  O   UNL     1     -12.436  13.651  63.174  0.00  0.00    -0.267 OA
ENDBRANCH   1  23
TORSDOF 3
ENDMDL
MODEL 6
REMARK VINA RESULT:      -6.5      3.788      8.247
REMARK  Name = 
REMARK  3 active torsions:
REMARK  status: ('A' for Active; 'I' for Inactive)
REMARK    1  A    between atoms: C_2  and  C_4
REMARK    2  A    between atoms: N_10  and  C_11
REMARK    3  A    between atoms: C_14  and  C_15
REMARK                            x       y       z     vdW  Elec       q    Type
REMARK                         _______ _______ _______ _____ _____    ______ ____
ROOT
ATOM      1  C   UNL     1      -5.311  19.976  69.834  0.00  0.00    +0.076 A 
ATOM      2  C   UNL     1      -6.411  19.933  69.019  0.00  0.00    +0.107 A 
ATOM      3  C   UNL     1      -6.395  20.622  67.811  0.00  0.00    +0.039 A 
ATOM      4  C   UNL     1      -7.676  20.442  67.325  0.00  0.00    +0.102 A 
ATOM      5  N   UNL     1      -8.319  19.517  68.071  0.00  0.00    -0.228 N 
ATOM      6  C   UNL     1      -5.200  21.072  67.292  0.00  0.00    +0.003 A 
ATOM      7  C   UNL     1      -4.030  20.738  67.965  0.00  0.00    +0.000 A 
ATOM      8  N   UNL     1      -7.662  19.480  69.225  0.00  0.00    -0.165 NA
ATOM      9  C   UNL     1      -4.092  20.288  69.274  0.00  0.00    +0.006 A 
ENDROOT
BRANCH   5  10
ATOM     10  C   UNL     1      -9.346  18.608  67.658  0.00  0.00    +0.083 A 
ATOM     11  C   UNL     1     -10.161  18.003  68.606  0.00  0.00    +0.019 A 
ATOM     12  C   UNL     1     -10.563  16.689  68.440  0.00  0.00    -0.003 A 
ATOM     13  C   UNL     1     -10.262  16.085  67.224  0.00  0.00    -0.021 A 
ATOM     14  C   UNL     1     -10.109  16.911  66.140  0.00  0.00    -0.003 A 
ATOM     15  C   UNL     1      -9.417  18.093  66.376  0.00  0.00    +0.019 A 
BRANCH  13  16
ATOM     16  C   UNL     1     -11.315  14.862  66.990  0.00  0.00    +0.040 C 
ATOM     17  C   UNL     1     -10.211  13.921  66.186  0.00  0.00    +0.093 C 
ATOM     18  N   UNL     1      -8.931  14.174  66.732  0.00  0.00    -0.218 NA
ATOM     19  C   UNL     1      -8.757  13.576  68.057  0.00  0.00    +0.089 C 
ATOM     20  C   UNL     1     -10.159  13.054  68.369  0.00  0.00    +0.019 C 
ATOM     21  C   UNL     1     -11.006  14.244  68.498  0.00  0.00    +0.007 C 
ENDBRANCH  13  16
ENDBRANCH   5  10
BRANCH   1  23
ATOM     22  N   UNL     1      -5.045  18.925  71.730  0.00  0.00    -0.084 NA
ATOM     23  C   UNL     1      -5.422  19.731  71.277  0.00  0.00    +0.286 C 
ATOM     24  O   UNL     1      -6.104  20.561  71.950  0.00  0.00    -0.267 OA
ENDBRANCH   1  23
TORSDOF 3
ENDMDL
MODEL 7
REMARK VINA RESULT:      -6.4      5.011      8.138
REMARK  Name = 
REMARK  3 active torsions:
REMARK  status: ('A' for Active; 'I' for Inactive)
REMARK    1  A    between atoms: C_2  and  C_4
REMARK    2  A    between atoms: N_10  and  C_11
REMARK    3  A    between atoms: C_14  and  C_15
REMARK                            x       y       z     vdW  Elec       q    Type
REMARK                         _______ _______ _______ _____ _____    ______ ____
ROOT
ATOM      1  C   UNL     1     -11.151  12.008  64.924  0.00  0.00    +0.076 A 
ATOM      2  C   UNL     1     -10.867  11.074  65.884  0.00  0.00    +0.107 A 
ATOM      3  C   UNL     1     -10.126   9.947  65.544  0.00  0.00    +0.039 A 
ATOM      4  C   UNL     1     -10.131   9.200  66.706  0.00  0.00    +0.102 A 
ATOM      5  N   UNL     1     -10.628   9.942  67.721  0.00  0.00    -0.228 N 
ATOM      6  C   UNL     1      -9.421   9.919  64.361  0.00  0.00    +0.003 A 
ATOM      7  C   UNL     1      -9.409  11.072  63.581  0.00  0.00    +0.000 A 
ATOM      8  N   UNL     1     -11.330  10.906  67.137  0.00  0.00    -0.165 NA
ATOM      9  C   UNL     1     -10.347  12.065  63.807  0.00  0.00    +0.006 A 
ENDROOT
BRANCH   5  10
ATOM     10  C   UNL     1     -10.308   9.860  69.115  0.00  0.00    +0.083 A 
ATOM     11  C   UNL     1      -9.057   9.406  69.516  0.00  0.00    +0.019 A 
ATOM     12  C   UNL     1      -8.934   8.613  70.643  0.00  0.00    -0.003 A 
ATOM     13  C   UNL     1     -10.071   8.448  71.426  0.00  0.00    -0.021 A 
ATOM     14  C   UNL     1     -11.015   9.442  71.372  0.00  0.00    -0.003 A 
ATOM     15  C   UNL     1     -11.264   9.967  70.108  0.00  0.00    +0.019 A 
BRANCH  13  16
ATOM     16  C   UNL     1      -9.596   8.061  72.937  0.00  0.00    +0.040 C 
ATOM     17  C   UNL     1     -10.937   7.133  73.239  0.00  0.00    +0.093 C 
ATOM     18  N   UNL     1     -11.336   6.523  72.027  0.00  0.00    -0.218 NA
ATOM     19  C   UNL     1     -10.443   5.436  71.624  0.00  0.00    +0.089 C 
ATOM     20  C   UNL     1      -9.312   5.543  72.647  0.00  0.00    +0.019 C 
ATOM     21  C   UNL     1      -8.649   6.821  72.373  0.00  0.00    +0.007 C 
ENDBRANCH  13  16
ENDBRANCH   5  10
BRANCH   1  23
ATOM     22  N   UNL     1     -13.187  12.741  64.625  0.00  0.00    -0.084 NA
ATOM     23  C   UNL     1     -12.301  12.910  65.055  0.00  0.00    +0.286 C 
ATOM     24  O   UNL     1     -12.113  13.993  65.687  0.00  0.00    -0.267 OA
ENDBRANCH   1  23
TORSDOF 3
ENDMDL
MODEL 8
REMARK VINA RESULT:      -6.4      4.733      8.020
REMARK  Name = 
REMARK  3 active torsions:
REMARK  status: ('A' for Active; 'I' for Inactive)
REMARK    1  A    between atoms: C_2  and  C_4
REMARK    2  A    between atoms: N_10  and  C_11
REMARK    3  A    between atoms: C_14  and  C_15
REMARK                            x       y       z     vdW  Elec       q    Type
REMARK                         _______ _______ _______ _____ _____    ______ ____
ROOT
ATOM      1  C   UNL     1     -10.556  11.083  64.470  0.00  0.00    +0.076 A 
ATOM      2  C   UNL     1     -10.724  11.462  65.775  0.00  0.00    +0.107 A 
ATOM      3  C   UNL     1     -11.554  12.537  66.074  0.00  0.00    +0.039 A 
ATOM      4  C   UNL     1     -11.397  12.692  67.438  0.00  0.00    +0.102 A 
ATOM      5  N   UNL     1     -10.716  11.637  67.939  0.00  0.00    -0.228 N 
ATOM      6  C   UNL     1     -12.438  13.007  65.127  0.00  0.00    +0.003 A 
ATOM      7  C   UNL     1     -12.525  12.322  63.919  0.00  0.00    +0.000 A 
ATOM      8  N   UNL     1     -10.076  11.109  66.901  0.00  0.00    -0.165 NA
ATOM      9  C   UNL     1     -11.523  11.437  63.555  0.00  0.00    +0.006 A 
ENDROOT
BRANCH   5  10
ATOM     10  C   UNL     1     -10.816  11.062  69.247  0.00  0.00    +0.083 A 
ATOM     11  C   UNL     1      -9.753  10.337  69.771  0.00  0.00    +0.019 A 
ATOM     12  C   UNL     1      -9.991   9.210  70.539  0.00  0.00    -0.003 A 
ATOM     13  C   UNL     1     -11.311   8.954  70.892  0.00  0.00    -0.021 A 
ATOM     14  C   UNL     1     -12.160  10.030  70.949  0.00  0.00    -0.003 A 
ATOM     15  C   UNL     1     -12.014  10.967  69.932  0.00  0.00    +0.019 A 
BRANCH  13  16
ATOM     16  C   UNL     1     -11.307   8.035  72.238  0.00  0.00    +0.040 C 
ATOM     17  C   UNL     1     -12.533   7.054  71.704  0.00  0.00    +0.093 C 
ATOM     18  N   UNL     1     -12.428   6.938  70.299  0.00  0.00    -0.218 NA
ATOM     19  C   UNL     1     -11.312   6.083  69.888  0.00  0.00    +0.089 C 
ATOM     20  C   UNL     1     -10.604   5.807  71.213  0.00  0.00    +0.019 C 
ATOM     21  C   UNL     1     -10.068   7.099  71.653  0.00  0.00    +0.007 C 
ENDBRANCH  13  16
ENDBRANCH   5  10
BRANCH   1  23
ATOM     22  N   UNL     1      -8.728  10.680  63.345  0.00  0.00    -0.084 NA
ATOM     23  C   UNL     1      -9.364  10.344  64.038  0.00  0.00    +0.286 C 
ATOM     24  O   UNL     1      -9.196   9.187  64.528  0.00  0.00    -0.267 OA
ENDBRANCH   1  23
TORSDOF 3
ENDMDL
MODEL 9
REMARK VINA RESULT:      -6.3      2.379      3.358
REMARK  Name = 
REMARK  3 active torsions:
REMARK  status: ('A' for Active; 'I' for Inactive)
REMARK    1  A    between atoms: C_2  and  C_4
REMARK    2  A    between atoms: N_10  and  C_11
REMARK    3  A    between atoms: C_14  and  C_15
REMARK                            x       y       z     vdW  Elec       q    Type
REMARK                         _______ _______ _______ _____ _____    ______ ____
ROOT
ATOM      1  C   UNL     1     -10.822  14.814  65.242  0.00  0.00    +0.076 A 
ATOM      2  C   UNL     1     -10.306  15.226  66.442  0.00  0.00    +0.107 A 
ATOM      3  C   UNL     1     -10.034  14.286  67.429  0.00  0.00    +0.039 A 
ATOM      4  C   UNL     1      -9.640  15.059  68.505  0.00  0.00    +0.102 A 
ATOM      5  N   UNL     1      -9.460  16.337  68.104  0.00  0.00    -0.228 N 
ATOM      6  C   UNL     1      -9.977  12.948  67.107  0.00  0.00    +0.003 A 
ATOM      7  C   UNL     1     -10.113  12.593  65.769  0.00  0.00    +0.000 A 
ATOM      8  N   UNL     1     -10.158  16.452  66.979  0.00  0.00    -0.165 NA
ATOM      9  C   UNL     1     -10.633  13.502  64.864  0.00  0.00    +0.006 A 
ENDROOT
BRANCH   5  10
ATOM     10  C   UNL     1      -8.552  17.310  68.634  0.00  0.00    +0.083 A 
ATOM     11  C   UNL     1      -8.820  18.665  68.485  0.00  0.00    +0.019 A 
ATOM     12  C   UNL     1      -7.788  19.555  68.244  0.00  0.00    -0.003 A 
ATOM     13  C   UNL     1      -6.492  19.059  68.333  0.00  0.00    -0.021 A 
ATOM     14  C   UNL     1      -6.298  17.966  69.139  0.00  0.00    -0.003 A 
ATOM     15  C   UNL     1      -7.280  16.985  69.070  0.00  0.00    +0.019 A 
BRANCH  13  16
ATOM     16  C   UNL     1      -5.490  20.306  68.647  0.00  0.00    +0.040 C 
ATOM     17  C   UNL     1      -4.223  19.642  67.808  0.00  0.00    +0.093 C 
ATOM     18  N   UNL     1      -4.747  18.907  66.721  0.00  0.00    -0.218 NA
ATOM     19  C   UNL     1      -5.249  19.768  65.649  0.00  0.00    +0.089 C 
ATOM     20  C   UNL     1      -5.140  21.161  66.269  0.00  0.00    +0.019 C 
ATOM     21  C   UNL     1      -6.102  21.179  67.375  0.00  0.00    +0.007 C 
ENDBRANCH  13  16
ENDBRANCH   5  10
BRANCH   1  23
ATOM     22  N   UNL     1     -11.343  16.686  64.243  0.00  0.00    -0.084 NA
ATOM     23  C   UNL     1     -11.588  15.728  64.387  0.00  0.00    +0.286 C 
ATOM     24  O   UNL     1     -12.657  15.277  63.877  0.00  0.00    -0.267 OA
ENDBRANCH   1  23
TORSDOF 3
ENDMDL
