MODEL 1
REMARK VINA RESULT:      -5.8      0.000      0.000
REMARK  Name = 
REMARK  11 active torsions:
REMARK  status: ('A' for Active; 'I' for Inactive)
REMARK    1  A    between atoms: P_2  and  C_5
REMARK    2  A    between atoms: C_5  and  N_6
REMARK    3  A    between atoms: N_6  and  C_7
REMARK    4  A    between atoms: N_6  and  C_20
REMARK    5  A    between atoms: C_7  and  C_8
REMARK    6  A    between atoms: C_8  and  N_9
REMARK    7  A    between atoms: N_9  and  C_10
REMARK    8  A    between atoms: N_9  and  C_15
REMARK    9  A    between atoms: C_10  and  P_11
REMARK   10  A    between atoms: C_15  and  P_16
REMARK   11  A    between atoms: C_20  and  P_21
REMARK                            x       y       z     vdW  Elec       q    Type
REMARK                         _______ _______ _______ _____ _____    ______ ____
ROOT
ATOM      1  C   UNL     1      -9.070  13.609  67.059  0.00  0.00    +0.090 C 
ENDROOT
BRANCH   1   2
ATOM      2  N   UNL     1     -10.017  12.884  66.270  0.00  0.00    -0.259 NA
BRANCH   2   3
ATOM      3  C   UNL     1      -9.798  11.475  66.204  0.00  0.00    +0.132 C 
BRANCH   3   4
ATOM      4  P   UNL     1     -10.668  10.524  67.454  0.00  0.00    +0.133 P 
ATOM      5  O   UNL     1      -9.824  10.753  68.914  0.00  0.00    -0.356 OA
ATOM      6  O   UNL     1     -10.678   8.874  67.147  0.00  0.00    -0.356 OA
ATOM      7  O   UNL     1     -12.054  11.082  67.644  0.00  0.00    -0.459 OA
ENDBRANCH   3   4
ENDBRANCH   2   3
BRANCH   2   8
ATOM      8  C   UNL     1     -10.393  13.505  65.040  0.00  0.00    +0.132 C 
BRANCH   8  10
ATOM      9  O   UNL     1     -12.681  14.230  66.408  0.00  0.00    -0.459 OA
ATOM     10  P   UNL     1     -12.196  13.777  65.060  0.00  0.00    +0.133 P 
ATOM     11  O   UNL     1     -12.592  14.976  63.925  0.00  0.00    -0.356 OA
ATOM     12  O   UNL     1     -13.042  12.382  64.648  0.00  0.00    -0.356 OA
ENDBRANCH   8  10
ENDBRANCH   2   8
ENDBRANCH   1   2
BRANCH   1  13
ATOM     13  C   UNL     1      -8.903  15.047  66.674  0.00  0.00    +0.090 C 
BRANCH  13  14
ATOM     14  N   UNL     1      -9.485  15.845  67.737  0.00  0.00    -0.259 NA
BRANCH  14  15
ATOM     15  C   UNL     1      -9.010  17.196  67.686  0.00  0.00    +0.132 C 
BRANCH  15  16
ATOM     16  P   UNL     1      -9.947  18.273  66.598  0.00  0.00    +0.133 P 
ATOM     17  O   UNL     1     -11.068  19.226  67.408  0.00  0.00    -0.356 OA
ATOM     18  O   UNL     1     -10.641  17.378  65.354  0.00  0.00    -0.356 OA
ATOM     19  O   UNL     1      -8.955  19.228  65.949  0.00  0.00    -0.459 OA
ENDBRANCH  15  16
ENDBRANCH  14  15
BRANCH  14  20
ATOM     20  C   UNL     1      -9.395  15.228  69.029  0.00  0.00    +0.132 C 
BRANCH  20  21
ATOM     21  P   UNL     1     -11.071  15.232  69.743  0.00  0.00    +0.133 P 
ATOM     22  O   UNL     1     -11.735  13.694  69.498  0.00  0.00    -0.356 OA
ATOM     23  O   UNL     1     -12.018  16.319  68.843  0.00  0.00    -0.356 OA
ATOM     24  O   UNL     1     -11.066  15.627  71.190  0.00  0.00    -0.459 OA
ENDBRANCH  20  21
ENDBRANCH  14  20
ENDBRANCH  13  14
ENDBRANCH   1  13
TORSDOF 11
ENDMDL
MODEL 2
REMARK VINA RESULT:      -5.6      0.218      6.465
REMARK  Name = 
REMARK  11 active torsions:
REMARK  status: ('A' for Active; 'I' for Inactive)
REMARK    1  A    between atoms: P_2  and  C_5
REMARK    2  A    between atoms: C_5  and  N_6
REMARK    3  A    between atoms: N_6  and  C_7
REMARK    4  A    between atoms: N_6  and  C_20
REMARK    5  A    between atoms: C_7  and  C_8
REMARK    6  A    between atoms: C_8  and  N_9
REMARK    7  A    between atoms: N_9  and  C_10
REMARK    8  A    between atoms: N_9  and  C_15
REMARK    9  A    between atoms: C_10  and  P_11
REMARK   10  A    between atoms: C_15  and  P_16
REMARK   11  A    between atoms: C_20  and  P_21
REMARK                            x       y       z     vdW  Elec       q    Type
REMARK                         _______ _______ _______ _____ _____    ______ ____
ROOT
ATOM      1  C   UNL     1      -9.120  15.081  66.642  0.00  0.00    +0.090 C 
ENDROOT
BRANCH   1   2
ATOM      2  N   UNL     1      -9.450  15.955  67.725  0.00  0.00    -0.259 NA
BRANCH   2   3
ATOM      3  C   UNL     1      -8.881  17.262  67.645  0.00  0.00    +0.132 C 
BRANCH   3   4
ATOM      4  P   UNL     1      -9.865  18.451  66.727  0.00  0.00    +0.133 P 
ATOM      5  O   UNL     1     -10.563  17.603  65.427  0.00  0.00    -0.356 OA
ATOM      6  O   UNL     1      -8.956  19.698  66.066  0.00  0.00    -0.356 OA
ATOM      7  O   UNL     1     -10.991  18.955  67.591  0.00  0.00    -0.459 OA
ENDBRANCH   3   4
ENDBRANCH   2   3
BRANCH   2   8
ATOM      8  C   UNL     1      -9.434  15.357  69.022  0.00  0.00    +0.132 C 
BRANCH   8  10
ATOM      9  O   UNL     1     -12.049  16.241  68.899  0.00  0.00    -0.459 OA
ATOM     10  P   UNL     1     -11.144  15.309  69.654  0.00  0.00    +0.133 P 
ATOM     11  O   UNL     1     -11.755  13.732  69.492  0.00  0.00    -0.356 OA
ATOM     12  O   UNL     1     -11.219  15.721  71.284  0.00  0.00    -0.356 OA
ENDBRANCH   8  10
ENDBRANCH   2   8
ENDBRANCH   1   2
BRANCH   1  13
ATOM     13  C   UNL     1      -9.045  13.631  67.008  0.00  0.00    +0.090 C 
BRANCH  13  14
ATOM     14  N   UNL     1     -10.051  12.940  66.225  0.00  0.00    -0.259 NA
BRANCH  14  15
ATOM     15  C   UNL     1      -9.736  11.548  66.094  0.00  0.00    +0.132 C 
BRANCH  15  16
ATOM     16  P   UNL     1     -10.533  10.488  67.304  0.00  0.00    +0.133 P 
ATOM     17  O   UNL     1     -10.573   8.872  66.851  0.00  0.00    -0.356 OA
ATOM     18  O   UNL     1     -12.058  11.089  67.684  0.00  0.00    -0.356 OA
ATOM     19  O   UNL     1      -9.705  10.560  68.579  0.00  0.00    -0.459 OA
ENDBRANCH  15  16
ENDBRANCH  14  15
BRANCH  14  20
ATOM     20  C   UNL     1     -10.367  13.600  64.990  0.00  0.00    +0.132 C 
BRANCH  20  21
ATOM     21  P   UNL     1     -12.182  13.733  64.903  0.00  0.00    +0.133 P 
ATOM     22  O   UNL     1     -12.549  15.042  63.893  0.00  0.00    -0.356 OA
ATOM     23  O   UNL     1     -12.749  14.139  66.452  0.00  0.00    -0.356 OA
ATOM     24  O   UNL     1     -12.818  12.458  64.436  0.00  0.00    -0.459 OA
ENDBRANCH  20  21
ENDBRANCH  14  20
ENDBRANCH  13  14
ENDBRANCH   1  13
TORSDOF 11
ENDMDL
MODEL 3
REMARK VINA RESULT:      -5.6      0.718      1.787
REMARK  Name = 
REMARK  11 active torsions:
REMARK  status: ('A' for Active; 'I' for Inactive)
REMARK    1  A    between atoms: P_2  and  C_5
REMARK    2  A    between atoms: C_5  and  N_6
REMARK    3  A    between atoms: N_6  and  C_7
REMARK    4  A    between atoms: N_6  and  C_20
REMARK    5  A    between atoms: C_7  and  C_8
REMARK    6  A    between atoms: C_8  and  N_9
REMARK    7  A    between atoms: N_9  and  C_10
REMARK    8  A    between atoms: N_9  and  C_15
REMARK    9  A    between atoms: C_10  and  P_11
REMARK   10  A    between atoms: C_15  and  P_16
REMARK   11  A    between atoms: C_20  and  P_21
REMARK                            x       y       z     vdW  Elec       q    Type
REMARK                         _______ _______ _______ _____ _____    ______ ____
ROOT
ATOM      1  C   UNL     1      -9.639  13.852  67.315  0.00  0.00    +0.090 C 
ENDROOT
BRANCH   1   2
ATOM      2  N   UNL     1     -10.175  13.290  66.114  0.00  0.00    -0.259 NA
BRANCH   2   3
ATOM      3  C   UNL     1      -9.665  12.003  65.767  0.00  0.00    +0.132 C 
BRANCH   3   4
ATOM      4  P   UNL     1     -10.224  10.667  66.829  0.00  0.00    +0.133 P 
ATOM      5  O   UNL     1     -11.791  11.081  67.347  0.00  0.00    -0.356 OA
ATOM      6  O   UNL     1      -9.286  10.476  68.208  0.00  0.00    -0.356 OA
ATOM      7  O   UNL     1     -10.337   9.395  66.030  0.00  0.00    -0.459 OA
ENDBRANCH   3   4
ENDBRANCH   2   3
BRANCH   2   8
ATOM      8  C   UNL     1     -10.330  14.203  65.027  0.00  0.00    +0.132 C 
BRANCH   8  10
ATOM      9  O   UNL     1     -12.994  14.009  65.732  0.00  0.00    -0.459 OA
ATOM     10  P   UNL     1     -12.091  14.241  64.554  0.00  0.00    +0.133 P 
ATOM     11  O   UNL     1     -12.459  15.763  63.896  0.00  0.00    -0.356 OA
ATOM     12  O   UNL     1     -12.449  13.080  63.390  0.00  0.00    -0.356 OA
ENDBRANCH   8  10
ENDBRANCH   2   8
ENDBRANCH   1   2
BRANCH   1  13
ATOM     13  C   UNL     1      -8.951  15.170  67.138  0.00  0.00    +0.090 C 
BRANCH  13  14
ATOM     14  N   UNL     1      -9.554  16.097  68.077  0.00  0.00    -0.259 NA
BRANCH  14  15
ATOM     15  C   UNL     1      -8.968  17.399  67.964  0.00  0.00    +0.132 C 
BRANCH  15  16
ATOM     16  P   UNL     1      -9.834  18.512  66.854  0.00  0.00    +0.133 P 
ATOM     17  O   UNL     1     -10.467  17.744  65.501  0.00  0.00    -0.356 OA
ATOM     18  O   UNL     1      -8.848  19.815  66.454  0.00  0.00    -0.356 OA
ATOM     19  O   UNL     1     -11.019  19.080  67.622  0.00  0.00    -0.459 OA
ENDBRANCH  15  16
ENDBRANCH  14  15
BRANCH  14  20
ATOM     20  C   UNL     1      -9.626  15.587  69.417  0.00  0.00    +0.132 C 
BRANCH  20  21
ATOM     21  P   UNL     1     -11.384  15.583  69.895  0.00  0.00    +0.133 P 
ATOM     22  O   UNL     1     -11.500  16.310  71.420  0.00  0.00    -0.356 OA
ATOM     23  O   UNL     1     -11.867  13.966  70.089  0.00  0.00    -0.356 OA
ATOM     24  O   UNL     1     -12.247  16.261  68.873  0.00  0.00    -0.459 OA
ENDBRANCH  20  21
ENDBRANCH  14  20
ENDBRANCH  13  14
ENDBRANCH   1  13
TORSDOF 11
ENDMDL
MODEL 4
REMARK VINA RESULT:      -5.4      1.160      6.069
REMARK  Name = 
REMARK  11 active torsions:
REMARK  status: ('A' for Active; 'I' for Inactive)
REMARK    1  A    between atoms: P_2  and  C_5
REMARK    2  A    between atoms: C_5  and  N_6
REMARK    3  A    between atoms: N_6  and  C_7
REMARK    4  A    between atoms: N_6  and  C_20
REMARK    5  A    between atoms: C_7  and  C_8
REMARK    6  A    between atoms: C_8  and  N_9
REMARK    7  A    between atoms: N_9  and  C_10
REMARK    8  A    between atoms: N_9  and  C_15
REMARK    9  A    between atoms: C_10  and  P_11
REMARK   10  A    between atoms: C_15  and  P_16
REMARK   11  A    between atoms: C_20  and  P_21
REMARK                            x       y       z     vdW  Elec       q    Type
REMARK                         _______ _______ _______ _____ _____    ______ ____
ROOT
ATOM      1  C   UNL     1      -9.445  14.692  67.110  0.00  0.00    +0.090 C 
ENDROOT
BRANCH   1   2
ATOM      2  N   UNL     1      -9.653  15.785  68.009  0.00  0.00    -0.259 NA
BRANCH   2   3
ATOM      3  C   UNL     1      -8.937  16.978  67.688  0.00  0.00    +0.132 C 
BRANCH   3   4
ATOM      4  P   UNL     1      -9.801  18.091  66.576  0.00  0.00    +0.133 P 
ATOM      5  O   UNL     1     -10.964  18.908  67.512  0.00  0.00    -0.356 OA
ATOM      6  O   UNL     1     -10.630  17.296  65.351  0.00  0.00    -0.356 OA
ATOM      7  O   UNL     1      -8.844  19.125  66.045  0.00  0.00    -0.459 OA
ENDBRANCH   3   4
ENDBRANCH   2   3
BRANCH   2   8
ATOM      8  C   UNL     1      -9.683  15.441  69.395  0.00  0.00    +0.132 C 
BRANCH   8  10
ATOM      9  O   UNL     1     -12.300  16.224  68.980  0.00  0.00    -0.459 OA
ATOM     10  P   UNL     1     -11.411  15.529  69.972  0.00  0.00    +0.133 P 
ATOM     11  O   UNL     1     -12.004  13.954  70.201  0.00  0.00    -0.356 OA
ATOM     12  O   UNL     1     -11.538  16.342  71.440  0.00  0.00    -0.356 OA
ENDBRANCH   8  10
ENDBRANCH   2   8
ENDBRANCH   1   2
BRANCH   1  13
ATOM     13  C   UNL     1      -9.663  13.337  67.710  0.00  0.00    +0.090 C 
BRANCH  13  14
ATOM     14  N   UNL     1     -10.628  12.650  66.872  0.00  0.00    -0.259 NA
BRANCH  14  15
ATOM     15  C   UNL     1     -11.672  13.539  66.454  0.00  0.00    +0.132 C 
BRANCH  15  16
ATOM     16  P   UNL     1     -12.077  13.443  64.709  0.00  0.00    +0.133 P 
ATOM     17  O   UNL     1     -12.600  14.902  64.065  0.00  0.00    -0.356 OA
ATOM     18  O   UNL     1     -13.167  12.190  64.436  0.00  0.00    -0.356 OA
ATOM     19  O   UNL     1     -10.797  13.077  63.970  0.00  0.00    -0.459 OA
ENDBRANCH  15  16
ENDBRANCH  14  15
BRANCH  14  20
ATOM     20  C   UNL     1     -11.086  11.409  67.428  0.00  0.00    +0.132 C 
BRANCH  20  21
ATOM     21  P   UNL     1     -10.138  10.079  66.622  0.00  0.00    +0.133 P 
ATOM     22  O   UNL     1     -10.724   8.604  67.211  0.00  0.00    -0.356 OA
ATOM     23  O   UNL     1      -8.524  10.202  67.140  0.00  0.00    -0.356 OA
ATOM     24  O   UNL     1     -10.208  10.163  65.126  0.00  0.00    -0.459 OA
ENDBRANCH  20  21
ENDBRANCH  14  20
ENDBRANCH  13  14
ENDBRANCH   1  13
TORSDOF 11
ENDMDL
MODEL 5
REMARK VINA RESULT:      -5.4      2.287      6.305
REMARK  Name = 
REMARK  11 active torsions:
REMARK  status: ('A' for Active; 'I' for Inactive)
REMARK    1  A    between atoms: P_2  and  C_5
REMARK    2  A    between atoms: C_5  and  N_6
REMARK    3  A    between atoms: N_6  and  C_7
REMARK    4  A    between atoms: N_6  and  C_20
REMARK    5  A    between atoms: C_7  and  C_8
REMARK    6  A    between atoms: C_8  and  N_9
REMARK    7  A    between atoms: N_9  and  C_10
REMARK    8  A    between atoms: N_9  and  C_15
REMARK    9  A    between atoms: C_10  and  P_11
REMARK   10  A    between atoms: C_15  and  P_16
REMARK   11  A    between atoms: C_20  and  P_21
REMARK                            x       y       z     vdW  Elec       q    Type
REMARK                         _______ _______ _______ _____ _____    ______ ____
ROOT
ATOM      1  C   UNL     1      -9.382  15.968  69.177  0.00  0.00    +0.090 C 
ENDROOT
BRANCH   1   2
ATOM      2  N   UNL     1      -8.531  16.796  68.381  0.00  0.00    -0.259 NA
BRANCH   2   3
ATOM      3  C   UNL     1      -8.804  16.776  66.980  0.00  0.00    +0.132 C 
BRANCH   3   4
ATOM      4  P   UNL     1      -9.931  18.056  66.420  0.00  0.00    +0.133 P 
ATOM      5  O   UNL     1      -8.968  19.369  65.925  0.00  0.00    -0.356 OA
ATOM      6  O   UNL     1     -10.948  18.623  67.629  0.00  0.00    -0.356 OA
ATOM      7  O   UNL     1     -10.689  17.574  65.210  0.00  0.00    -0.459 OA
ENDBRANCH   3   4
ENDBRANCH   2   3
BRANCH   2   8
ATOM      8  C   UNL     1      -7.148  16.776  68.737  0.00  0.00    +0.132 C 
BRANCH   8  10
ATOM      9  O   UNL     1      -5.545  18.678  69.940  0.00  0.00    -0.459 OA
ATOM     10  P   UNL     1      -6.555  18.498  68.843  0.00  0.00    +0.133 P 
ATOM     11  O   UNL     1      -5.822  18.926  67.372  0.00  0.00    -0.356 OA
ATOM     12  O   UNL     1      -7.817  19.576  69.119  0.00  0.00    -0.356 OA
ENDBRANCH   8  10
ENDBRANCH   2   8
ENDBRANCH   1   2
BRANCH   1  13
ATOM     13  C   UNL     1      -9.743  14.656  68.552  0.00  0.00    +0.090 C 
BRANCH  13  14
ATOM     14  N   UNL     1     -11.189  14.543  68.599  0.00  0.00    -0.259 NA
BRANCH  14  15
ATOM     15  C   UNL     1     -11.732  14.338  67.289  0.00  0.00    +0.132 C 
BRANCH  15  16
ATOM     16  P   UNL     1     -11.595  12.655  66.682  0.00  0.00    +0.133 P 
ATOM     17  O   UNL     1     -12.017  11.498  67.824  0.00  0.00    -0.356 OA
ATOM     18  O   UNL     1     -10.062  12.395  66.038  0.00  0.00    -0.356 OA
ATOM     19  O   UNL     1     -12.582  12.509  65.533  0.00  0.00    -0.459 OA
ENDBRANCH  15  16
ENDBRANCH  14  15
BRANCH  14  20
ATOM     20  C   UNL     1     -11.819  15.591  69.350  0.00  0.00    +0.132 C 
BRANCH  20  21
ATOM     21  P   UNL     1     -12.480  14.837  70.871  0.00  0.00    +0.133 P 
ATOM     22  O   UNL     1     -13.960  15.585  71.211  0.00  0.00    -0.356 OA
ATOM     23  O   UNL     1     -11.431  15.232  72.147  0.00  0.00    -0.356 OA
ATOM     24  O   UNL     1     -12.609  13.347  70.751  0.00  0.00    -0.459 OA
ENDBRANCH  20  21
ENDBRANCH  14  20
ENDBRANCH  13  14
ENDBRANCH   1  13
TORSDOF 11
ENDMDL
MODEL 6
REMARK VINA RESULT:      -5.4      1.114      5.929
REMARK  Name = 
REMARK  11 active torsions:
REMARK  status: ('A' for Active; 'I' for Inactive)
REMARK    1  A    between atoms: P_2  and  C_5
REMARK    2  A    between atoms: C_5  and  N_6
REMARK    3  A    between atoms: N_6  and  C_7
REMARK    4  A    between atoms: N_6  and  C_20
REMARK    5  A    between atoms: C_7  and  C_8
REMARK    6  A    between atoms: C_8  and  N_9
REMARK    7  A    between atoms: N_9  and  C_10
REMARK    8  A    between atoms: N_9  and  C_15
REMARK    9  A    between atoms: C_10  and  P_11
REMARK   10  A    between atoms: C_15  and  P_16
REMARK   11  A    between atoms: C_20  and  P_21
REMARK                            x       y       z     vdW  Elec       q    Type
REMARK                         _______ _______ _______ _____ _____    ______ ____
ROOT
ATOM      1  C   UNL     1      -9.970  14.331  67.962  0.00  0.00    +0.090 C 
ENDROOT
BRANCH   1   2
ATOM      2  N   UNL     1     -10.468  15.672  67.948  0.00  0.00    -0.259 NA
BRANCH   2   3
ATOM      3  C   UNL     1     -11.783  15.834  68.480  0.00  0.00    +0.132 C 
BRANCH   3   4
ATOM      4  P   UNL     1     -11.988  15.243  70.163  0.00  0.00    +0.133 P 
ATOM      5  O   UNL     1     -12.271  13.568  70.058  0.00  0.00    -0.356 OA
ATOM      6  O   UNL     1     -13.310  15.915  70.948  0.00  0.00    -0.356 OA
ATOM      7  O   UNL     1     -10.705  15.435  70.929  0.00  0.00    -0.459 OA
ENDBRANCH   3   4
ENDBRANCH   2   3
BRANCH   2   8
ATOM      8  C   UNL     1     -10.188  16.418  66.763  0.00  0.00    +0.132 C 
BRANCH   8  10
ATOM      9  O   UNL     1      -8.899  18.115  68.521  0.00  0.00    -0.459 OA
ATOM     10  P   UNL     1      -9.699  18.106  67.248  0.00  0.00    +0.133 P 
ATOM     11  O   UNL     1      -8.745  18.785  66.019  0.00  0.00    -0.356 OA
ATOM     12  O   UNL     1     -11.035  19.104  67.469  0.00  0.00    -0.356 OA
ENDBRANCH   8  10
ENDBRANCH   2   8
ENDBRANCH   1   2
BRANCH   1  13
ATOM     13  C   UNL     1      -9.261  13.913  66.710  0.00  0.00    +0.090 C 
BRANCH  13  14
ATOM     14  N   UNL     1     -10.099  12.927  66.054  0.00  0.00    -0.259 NA
BRANCH  14  15
ATOM     15  C   UNL     1      -9.541  11.613  66.177  0.00  0.00    +0.132 C 
BRANCH  15  16
ATOM     16  P   UNL     1     -10.361  10.566  67.382  0.00  0.00    +0.133 P 
ATOM     17  O   UNL     1     -11.942  11.032  67.703  0.00  0.00    -0.356 OA
ATOM     18  O   UNL     1      -9.428  10.447  68.777  0.00  0.00    -0.356 OA
ATOM     19  O   UNL     1     -10.435   9.168  66.785  0.00  0.00    -0.459 OA
ENDBRANCH  15  16
ENDBRANCH  14  15
BRANCH  14  20
ATOM     20  C   UNL     1     -10.475  13.294  64.719  0.00  0.00    +0.132 C 
BRANCH  20  21
ATOM     21  P   UNL     1     -12.273  13.588  64.730  0.00  0.00    +0.133 P 
ATOM     22  O   UNL     1     -13.000  12.335  63.854  0.00  0.00    -0.356 OA
ATOM     23  O   UNL     1     -12.572  15.021  63.868  0.00  0.00    -0.356 OA
ATOM     24  O   UNL     1     -12.817  13.699  66.123  0.00  0.00    -0.459 OA
ENDBRANCH  20  21
ENDBRANCH  14  20
ENDBRANCH  13  14
ENDBRANCH   1  13
TORSDOF 11
ENDMDL
MODEL 7
REMARK VINA RESULT:      -5.3      2.049      4.201
REMARK  Name = 
REMARK  11 active torsions:
REMARK  status: ('A' for Active; 'I' for Inactive)
REMARK    1  A    between atoms: P_2  and  C_5
REMARK    2  A    between atoms: C_5  and  N_6
REMARK    3  A    between atoms: N_6  and  C_7
REMARK    4  A    between atoms: N_6  and  C_20
REMARK    5  A    between atoms: C_7  and  C_8
REMARK    6  A    between atoms: C_8  and  N_9
REMARK    7  A    between atoms: N_9  and  C_10
REMARK    8  A    between atoms: N_9  and  C_15
REMARK    9  A    between atoms: C_10  and  P_11
REMARK   10  A    between atoms: C_15  and  P_16
REMARK   11  A    between atoms: C_20  and  P_21
REMARK                            x       y       z     vdW  Elec       q    Type
REMARK                         _______ _______ _______ _____ _____    ______ ____
ROOT
ATOM      1  C   UNL     1      -9.137  14.678  66.546  0.00  0.00    +0.090 C 
ENDROOT
BRANCH   1   2
ATOM      2  N   UNL     1     -10.263  13.840  66.821  0.00  0.00    -0.259 NA
BRANCH   2   3
ATOM      3  C   UNL     1     -11.511  14.317  66.315  0.00  0.00    +0.132 C 
BRANCH   3   4
ATOM      4  P   UNL     1     -11.936  13.708  64.681  0.00  0.00    +0.133 P 
ATOM      5  O   UNL     1     -13.142  12.527  64.901  0.00  0.00    -0.356 OA
ATOM      6  O   UNL     1     -10.655  12.959  63.896  0.00  0.00    -0.356 OA
ATOM      7  O   UNL     1     -12.539  14.820  63.864  0.00  0.00    -0.459 OA
ENDBRANCH   3   4
ENDBRANCH   2   3
BRANCH   2   8
ATOM      8  C   UNL     1     -10.306  13.282  68.135  0.00  0.00    +0.132 C 
BRANCH   8  10
ATOM      9  O   UNL     1     -12.192  11.266  68.024  0.00  0.00    -0.459 OA
ATOM     10  P   UNL     1     -10.709  11.509  67.994  0.00  0.00    +0.133 P 
ATOM     11  O   UNL     1     -10.105  10.915  66.522  0.00  0.00    -0.356 OA
ATOM     12  O   UNL     1     -10.012  10.611  69.233  0.00  0.00    -0.356 OA
ENDBRANCH   8  10
ENDBRANCH   2   8
ENDBRANCH   1   2
BRANCH   1  13
ATOM     13  C   UNL     1      -8.531  15.329  67.751  0.00  0.00    +0.090 C 
BRANCH  13  14
ATOM     14  N   UNL     1      -7.962  16.590  67.315  0.00  0.00    -0.259 NA
BRANCH  14  15
ATOM     15  C   UNL     1      -6.545  16.480  67.133  0.00  0.00    +0.132 C 
BRANCH  15  16
ATOM     16  P   UNL     1      -5.804  17.836  66.221  0.00  0.00    +0.133 P 
ATOM     17  O   UNL     1      -5.209  19.056  67.209  0.00  0.00    -0.356 OA
ATOM     18  O   UNL     1      -6.882  18.412  65.064  0.00  0.00    -0.356 OA
ATOM     19  O   UNL     1      -4.611  17.271  65.465  0.00  0.00    -0.459 OA
ENDBRANCH  15  16
ENDBRANCH  14  15
BRANCH  14  20
ATOM     20  C   UNL     1      -8.377  17.710  68.111  0.00  0.00    +0.132 C 
BRANCH  20  21
ATOM     21  P   UNL     1      -9.985  18.265  67.458  0.00  0.00    +0.133 P 
ATOM     22  O   UNL     1     -10.204  19.873  67.940  0.00  0.00    -0.356 OA
ATOM     23  O   UNL     1     -11.200  17.358  68.224  0.00  0.00    -0.356 OA
ATOM     24  O   UNL     1     -10.076  18.098  65.970  0.00  0.00    -0.459 OA
ENDBRANCH  20  21
ENDBRANCH  14  20
ENDBRANCH  13  14
ENDBRANCH   1  13
TORSDOF 11
ENDMDL
MODEL 8
REMARK VINA RESULT:      -5.3      1.767      5.844
REMARK  Name = 
REMARK  11 active torsions:
REMARK  status: ('A' for Active; 'I' for Inactive)
REMARK    1  A    between atoms: P_2  and  C_5
REMARK    2  A    between atoms: C_5  and  N_6
REMARK    3  A    between atoms: N_6  and  C_7
REMARK    4  A    between atoms: N_6  and  C_20
REMARK    5  A    between atoms: C_7  and  C_8
REMARK    6  A    between atoms: C_8  and  N_9
REMARK    7  A    between atoms: N_9  and  C_10
REMARK    8  A    between atoms: N_9  and  C_15
REMARK    9  A    between atoms: C_10  and  P_11
REMARK   10  A    between atoms: C_15  and  P_16
REMARK   11  A    between atoms: C_20  and  P_21
REMARK                            x       y       z     vdW  Elec       q    Type
REMARK                         _______ _______ _______ _____ _____    ______ ____
ROOT
ATOM      1  C   UNL     1     -10.165  13.561  67.853  0.00  0.00    +0.090 C 
ENDROOT
BRANCH   1   2
ATOM      2  N   UNL     1     -10.731  14.874  67.889  0.00  0.00    -0.259 NA
BRANCH   2   3
ATOM      3  C   UNL     1     -12.035  14.956  68.465  0.00  0.00    +0.132 C 
BRANCH   3   4
ATOM      4  P   UNL     1     -12.056  15.018  70.259  0.00  0.00    +0.133 P 
ATOM      5  O   UNL     1     -12.249  13.415  70.799  0.00  0.00    -0.356 OA
ATOM      6  O   UNL     1     -13.342  15.901  70.879  0.00  0.00    -0.356 OA
ATOM      7  O   UNL     1     -10.725  15.506  70.768  0.00  0.00    -0.459 OA
ENDBRANCH   3   4
ENDBRANCH   2   3
BRANCH   2   8
ATOM      8  C   UNL     1     -10.527  15.661  66.715  0.00  0.00    +0.132 C 
BRANCH   8  10
ATOM      9  O   UNL     1      -9.002  17.865  66.046  0.00  0.00    -0.459 OA
ATOM     10  P   UNL     1      -9.713  17.219  67.201  0.00  0.00    +0.133 P 
ATOM     11  O   UNL     1     -10.885  18.305  67.775  0.00  0.00    -0.356 OA
ATOM     12  O   UNL     1      -8.591  16.979  68.431  0.00  0.00    -0.356 OA
ENDBRANCH   8  10
ENDBRANCH   2   8
ENDBRANCH   1   2
BRANCH   1  13
ATOM     13  C   UNL     1      -9.816  13.065  66.483  0.00  0.00    +0.090 C 
BRANCH  13  14
ATOM     14  N   UNL     1     -10.710  11.961  66.189  0.00  0.00    -0.259 NA
BRANCH  14  15
ATOM     15  C   UNL     1     -11.980  12.436  65.725  0.00  0.00    +0.132 C 
BRANCH  15  16
ATOM     16  P   UNL     1     -12.057  12.751  63.960  0.00  0.00    +0.133 P 
ATOM     17  O   UNL     1     -10.648  12.335  63.147  0.00  0.00    -0.356 OA
ATOM     18  O   UNL     1     -12.520  14.344  63.676  0.00  0.00    -0.356 OA
ATOM     19  O   UNL     1     -13.160  11.868  63.394  0.00  0.00    -0.459 OA
ENDBRANCH  15  16
ENDBRANCH  14  15
BRANCH  14  20
ATOM     20  C   UNL     1     -10.783  10.989  67.241  0.00  0.00    +0.132 C 
BRANCH  20  21
ATOM     21  P   UNL     1      -9.842   9.530  66.689  0.00  0.00    +0.133 P 
ATOM     22  O   UNL     1      -9.772   9.576  64.998  0.00  0.00    -0.356 OA
ATOM     23  O   UNL     1     -10.738   8.146  67.101  0.00  0.00    -0.356 OA
ATOM     24  O   UNL     1      -8.480   9.469  67.314  0.00  0.00    -0.459 OA
ENDBRANCH  20  21
ENDBRANCH  14  20
ENDBRANCH  13  14
ENDBRANCH   1  13
TORSDOF 11
ENDMDL
MODEL 9
REMARK VINA RESULT:      -5.3      2.205      4.478
REMARK  Name = 
REMARK  11 active torsions:
REMARK  status: ('A' for Active; 'I' for Inactive)
REMARK    1  A    between atoms: P_2  and  C_5
REMARK    2  A    between atoms: C_5  and  N_6
REMARK    3  A    between atoms: N_6  and  C_7
REMARK    4  A    between atoms: N_6  and  C_20
REMARK    5  A    between atoms: C_7  and  C_8
REMARK    6  A    between atoms: C_8  and  N_9
REMARK    7  A    between atoms: N_9  and  C_10
REMARK    8  A    between atoms: N_9  and  C_15
REMARK    9  A    between atoms: C_10  and  P_11
REMARK   10  A    between atoms: C_15  and  P_16
REMARK   11  A    between atoms: C_20  and  P_21
REMARK                            x       y       z     vdW  Elec       q    Type
REMARK                         _______ _______ _______ _____ _____    ______ ____
ROOT
ATOM      1  C   UNL     1      -9.828  14.984  68.194  0.00  0.00    +0.090 C 
ENDROOT
BRANCH   1   2
ATOM      2  N   UNL     1     -11.252  14.857  68.235  0.00  0.00    -0.259 NA
BRANCH   2   3
ATOM      3  C   UNL     1     -11.875  14.615  66.974  0.00  0.00    +0.132 C 
BRANCH   3   4
ATOM      4  P   UNL     1     -11.710  12.933  66.369  0.00  0.00    +0.133 P 
ATOM      5  O   UNL     1     -12.912  12.722  65.183  0.00  0.00    -0.356 OA
ATOM      6  O   UNL     1     -11.979  11.771  67.551  0.00  0.00    -0.356 OA
ATOM      7  O   UNL     1     -10.375  12.764  65.691  0.00  0.00    -0.459 OA
ENDBRANCH   3   4
ENDBRANCH   2   3
BRANCH   2   8
ATOM      8  C   UNL     1     -11.925  15.787  69.085  0.00  0.00    +0.132 C 
BRANCH   8  10
ATOM      9  O   UNL     1     -12.525  13.429  70.396  0.00  0.00    -0.459 OA
ATOM     10  P   UNL     1     -12.431  14.915  70.605  0.00  0.00    +0.133 P 
ATOM     11  O   UNL     1     -11.284  15.206  71.823  0.00  0.00    -0.356 OA
ATOM     12  O   UNL     1     -13.922  15.453  71.166  0.00  0.00    -0.356 OA
ENDBRANCH   8  10
ENDBRANCH   2   8
ENDBRANCH   1   2
BRANCH   1  13
ATOM     13  C   UNL     1      -9.271  16.083  69.045  0.00  0.00    +0.090 C 
BRANCH  13  14
ATOM     14  N   UNL     1      -8.539  16.976  68.167  0.00  0.00    -0.259 NA
BRANCH  14  15
ATOM     15  C   UNL     1      -9.019  16.879  66.819  0.00  0.00    +0.132 C 
BRANCH  15  16
ATOM     16  P   UNL     1     -10.049  18.252  66.296  0.00  0.00    +0.133 P 
ATOM     17  O   UNL     1     -10.993  18.886  67.532  0.00  0.00    -0.356 OA
ATOM     18  O   UNL     1     -10.959  17.813  64.951  0.00  0.00    -0.356 OA
ATOM     19  O   UNL     1      -9.116  19.368  65.848  0.00  0.00    -0.459 OA
ENDBRANCH  15  16
ENDBRANCH  14  15
BRANCH  14  20
ATOM     20  C   UNL     1      -7.115  16.871  68.303  0.00  0.00    +0.132 C 
BRANCH  20  21
ATOM     21  P   UNL     1      -6.459  18.568  68.398  0.00  0.00    +0.133 P 
ATOM     22  O   UNL     1      -5.903  18.987  66.855  0.00  0.00    -0.356 OA
ATOM     23  O   UNL     1      -5.099  18.545  69.416  0.00  0.00    -0.356 OA
ATOM     24  O   UNL     1      -7.478  19.537  68.919  0.00  0.00    -0.459 OA
ENDBRANCH  20  21
ENDBRANCH  14  20
ENDBRANCH  13  14
ENDBRANCH   1  13
TORSDOF 11
ENDMDL
