MODEL 1
REMARK VINA RESULT:      -7.0      0.000      0.000
REMARK  Name = 
REMARK  5 active torsions:
REMARK  status: ('A' for Active; 'I' for Inactive)
REMARK    1  A    between atoms: C_6  and  O_7
REMARK    2  A    between atoms: O_7  and  C_8
REMARK    3  A    between atoms: C_8  and  C_10
REMARK    4  A    between atoms: C_10  and  C_12
REMARK    5  A    between atoms: C_10  and  C_18
REMARK                            x       y       z     vdW  Elec       q    Type
REMARK                         _______ _______ _______ _____ _____    ______ ____
ROOT
ATOM      1  C   UNL     1      -9.651  16.106  68.503  0.00  0.00    +0.233 C 
ATOM      2  O   UNL     1      -8.500  16.005  69.273  0.00  0.00    -0.210 OA
ENDROOT
BRANCH   1   3
ATOM      3  C   UNL     1      -9.591  17.425  67.795  0.00  0.00    +0.015 A 
ATOM      4  C   UNL     1      -9.456  18.569  68.570  0.00  0.00    -0.001 A 
ATOM      5  C   UNL     1     -10.047  19.768  68.217  0.00  0.00    -0.000 A 
ATOM      6  C   UNL     1     -10.288  19.989  66.875  0.00  0.00    -0.000 A 
ATOM      7  C   UNL     1     -10.355  18.889  66.036  0.00  0.00    -0.000 A 
ATOM      8  C   UNL     1     -10.195  17.613  66.559  0.00  0.00    -0.001 A 
ENDBRANCH   1   3
BRANCH   1   9
ATOM      9  C   UNL     1      -9.608  15.047  67.443  0.00  0.00    +0.043 C 
ATOM     10  C   UNL     1     -10.386  13.815  67.801  0.00  0.00    +0.003 C 
ATOM     11  C   UNL     1      -9.378  12.720  68.025  0.00  0.00    +0.000 C 
ATOM     12  C   UNL     1      -8.103  13.147  67.347  0.00  0.00    +0.000 C 
ATOM     13  C   UNL     1      -8.210  14.623  67.090  0.00  0.00    +0.003 C 
ENDBRANCH   1   9
BRANCH   1  14
ATOM     14  C   UNL     1     -10.891  16.108  69.306  0.00  0.00    +0.349 C 
ATOM     15  O   UNL     1     -11.969  16.515  68.769  0.00  0.00    -0.247 OA
BRANCH  14  16
ATOM     16  O   UNL     1     -10.986  15.797  70.641  0.00  0.00    -0.444 OA
BRANCH  16  20
ATOM     17  C   UNL     1     -13.482  14.226  72.403  0.00  0.00    +0.171 C 
ATOM     18  N   UNL     1     -13.460  14.213  72.384  0.00  0.00    +0.309 N 
ATOM     19  C   UNL     1     -12.438  14.172  71.349  0.00  0.00    +0.153 C 
ATOM     20  C   UNL     1     -12.451  15.806  71.137  0.00  0.00    +0.229 C 
ATOM     21  C   UNL     1     -11.990  16.003  72.708  0.00  0.00    +0.111 C 
ATOM     22  C   UNL     1     -13.027  15.167  73.391  0.00  0.00    +0.113 C 
ATOM     23  C   UNL     1     -14.781  14.510  71.832  0.00  0.00    +0.171 C 
ENDBRANCH  16  20
ENDBRANCH  14  16
ENDBRANCH   1  14
TORSDOF 5
ENDMDL
MODEL 2
REMARK VINA RESULT:      -6.8      1.698      2.409
REMARK  Name = 
REMARK  5 active torsions:
REMARK  status: ('A' for Active; 'I' for Inactive)
REMARK    1  A    between atoms: C_6  and  O_7
REMARK    2  A    between atoms: O_7  and  C_8
REMARK    3  A    between atoms: C_8  and  C_10
REMARK    4  A    between atoms: C_10  and  C_12
REMARK    5  A    between atoms: C_10  and  C_18
REMARK                            x       y       z     vdW  Elec       q    Type
REMARK                         _______ _______ _______ _____ _____    ______ ____
ROOT
ATOM      1  C   UNL     1     -10.392  14.952  67.545  0.00  0.00    +0.233 C 
ATOM      2  O   UNL     1      -9.356  14.056  67.316  0.00  0.00    -0.210 OA
ENDROOT
BRANCH   1   3
ATOM      3  C   UNL     1     -10.003  16.247  66.901  0.00  0.00    +0.015 A 
ATOM      4  C   UNL     1      -8.724  16.344  66.368  0.00  0.00    -0.001 A 
ATOM      5  C   UNL     1      -8.008  17.527  66.391  0.00  0.00    -0.000 A 
ATOM      6  C   UNL     1      -8.726  18.706  66.424  0.00  0.00    -0.000 A 
ATOM      7  C   UNL     1     -10.036  18.660  66.872  0.00  0.00    -0.000 A 
ATOM      8  C   UNL     1     -10.579  17.450  67.285  0.00  0.00    -0.001 A 
ENDBRANCH   1   3
BRANCH   1   9
ATOM      9  C   UNL     1     -11.611  14.462  66.824  0.00  0.00    +0.043 C 
ATOM     10  C   UNL     1     -11.936  13.026  67.110  0.00  0.00    +0.003 C 
ATOM     11  C   UNL     1     -11.670  12.264  65.839  0.00  0.00    +0.000 C 
ATOM     12  C   UNL     1     -11.671  13.266  64.715  0.00  0.00    +0.000 C 
ATOM     13  C   UNL     1     -11.520  14.627  65.333  0.00  0.00    +0.003 C 
ENDBRANCH   1   9
BRANCH   1  14
ATOM     14  C   UNL     1     -10.611  15.235  68.979  0.00  0.00    +0.349 C 
ATOM     15  O   UNL     1      -9.602  15.359  69.741  0.00  0.00    -0.247 OA
BRANCH  14  16
ATOM     16  O   UNL     1     -11.830  15.284  69.612  0.00  0.00    -0.444 OA
BRANCH  16  20
ATOM     17  C   UNL     1     -13.424  14.705  72.600  0.00  0.00    +0.171 C 
ATOM     18  N   UNL     1     -13.431  14.727  72.578  0.00  0.00    +0.309 N 
ATOM     19  C   UNL     1     -13.186  15.592  71.433  0.00  0.00    +0.153 C 
ATOM     20  C   UNL     1     -11.723  14.910  71.109  0.00  0.00    +0.229 C 
ATOM     21  C   UNL     1     -12.464  13.457  70.869  0.00  0.00    +0.111 C 
ATOM     22  C   UNL     1     -13.253  13.354  72.137  0.00  0.00    +0.113 C 
ATOM     23  C   UNL     1     -12.589  15.085  73.719  0.00  0.00    +0.171 C 
ENDBRANCH  16  20
ENDBRANCH  14  16
ENDBRANCH   1  14
TORSDOF 5
ENDMDL
MODEL 3
REMARK VINA RESULT:      -6.7      2.128      3.523
REMARK  Name = 
REMARK  5 active torsions:
REMARK  status: ('A' for Active; 'I' for Inactive)
REMARK    1  A    between atoms: C_6  and  O_7
REMARK    2  A    between atoms: O_7  and  C_8
REMARK    3  A    between atoms: C_8  and  C_10
REMARK    4  A    between atoms: C_10  and  C_12
REMARK    5  A    between atoms: C_10  and  C_18
REMARK                            x       y       z     vdW  Elec       q    Type
REMARK                         _______ _______ _______ _____ _____    ______ ____
ROOT
ATOM      1  C   UNL     1     -10.513  15.440  67.696  0.00  0.00    +0.233 C 
ATOM      2  O   UNL     1     -10.074  16.459  66.862  0.00  0.00    -0.210 OA
ENDROOT
BRANCH   1   3
ATOM      3  C   UNL     1     -11.381  14.540  66.870  0.00  0.00    +0.015 A 
ATOM      4  C   UNL     1     -11.475  13.207  67.249  0.00  0.00    -0.001 A 
ATOM      5  C   UNL     1     -11.607  12.190  66.322  0.00  0.00    -0.000 A 
ATOM      6  C   UNL     1     -12.192  12.502  65.111  0.00  0.00    -0.000 A 
ATOM      7  C   UNL     1     -12.200  13.829  64.714  0.00  0.00    -0.000 A 
ATOM      8  C   UNL     1     -11.616  14.793  65.525  0.00  0.00    -0.001 A 
ENDBRANCH   1   3
BRANCH   1   9
ATOM      9  C   UNL     1      -9.327  14.626  68.117  0.00  0.00    +0.043 C 
ATOM     10  C   UNL     1      -8.665  15.138  69.361  0.00  0.00    +0.003 C 
ATOM     11  C   UNL     1      -7.327  15.684  68.941  0.00  0.00    +0.000 C 
ATOM     12  C   UNL     1      -7.000  15.075  67.604  0.00  0.00    +0.000 C 
ATOM     13  C   UNL     1      -8.278  14.516  67.047  0.00  0.00    +0.003 C 
ENDBRANCH   1   9
BRANCH   1  14
ATOM     14  C   UNL     1     -11.344  15.922  68.819  0.00  0.00    +0.349 C 
ATOM     15  O   UNL     1     -11.085  17.057  69.330  0.00  0.00    -0.247 OA
BRANCH  14  16
ATOM     16  O   UNL     1     -12.334  15.210  69.452  0.00  0.00    -0.444 OA
BRANCH  16  20
ATOM     17  C   UNL     1     -13.486  14.578  72.626  0.00  0.00    +0.171 C 
ATOM     18  N   UNL     1     -13.498  14.596  72.604  0.00  0.00    +0.309 N 
ATOM     19  C   UNL     1     -13.527  15.410  71.398  0.00  0.00    +0.153 C 
ATOM     20  C   UNL     1     -12.009  14.961  70.943  0.00  0.00    +0.229 C 
ATOM     21  C   UNL     1     -12.508  13.392  70.861  0.00  0.00    +0.111 C 
ATOM     22  C   UNL     1     -13.132  13.246  72.214  0.00  0.00    +0.113 C 
ATOM     23  C   UNL     1     -12.617  15.167  73.623  0.00  0.00    +0.171 C 
ENDBRANCH  16  20
ENDBRANCH  14  16
ENDBRANCH   1  14
TORSDOF 5
ENDMDL
MODEL 4
REMARK VINA RESULT:      -6.7      2.669      5.647
REMARK  Name = 
REMARK  5 active torsions:
REMARK  status: ('A' for Active; 'I' for Inactive)
REMARK    1  A    between atoms: C_6  and  O_7
REMARK    2  A    between atoms: O_7  and  C_8
REMARK    3  A    between atoms: C_8  and  C_10
REMARK    4  A    between atoms: C_10  and  C_12
REMARK    5  A    between atoms: C_10  and  C_18
REMARK                            x       y       z     vdW  Elec       q    Type
REMARK                         _______ _______ _______ _____ _____    ______ ____
ROOT
ATOM      1  C   UNL     1     -11.740  15.114  69.797  0.00  0.00    +0.233 C 
ATOM      2  O   UNL     1     -12.745  16.051  69.597  0.00  0.00    -0.210 OA
ENDROOT
BRANCH   1   3
ATOM      3  C   UNL     1     -10.435  15.818  69.585  0.00  0.00    +0.015 A 
ATOM      4  C   UNL     1     -10.456  17.027  68.901  0.00  0.00    -0.001 A 
ATOM      5  C   UNL     1      -9.425  17.415  68.065  0.00  0.00    -0.000 A 
ATOM      6  C   UNL     1      -8.168  16.905  68.325  0.00  0.00    -0.000 A 
ATOM      7  C   UNL     1      -8.078  15.742  69.072  0.00  0.00    -0.000 A 
ATOM      8  C   UNL     1      -9.236  15.121  69.520  0.00  0.00    -0.001 A 
ENDBRANCH   1   3
BRANCH   1   9
ATOM      9  C   UNL     1     -11.769  14.685  71.233  0.00  0.00    +0.043 C 
ATOM     10  C   UNL     1     -12.921  13.783  71.561  0.00  0.00    +0.003 C 
ATOM     11  C   UNL     1     -13.845  14.571  72.450  0.00  0.00    +0.000 C 
ATOM     12  C   UNL     1     -13.041  15.705  73.029  0.00  0.00    +0.000 C 
ATOM     13  C   UNL     1     -11.800  15.841  72.192  0.00  0.00    +0.003 C 
ENDBRANCH   1   9
BRANCH   1  14
ATOM     14  C   UNL     1     -11.784  13.996  68.832  0.00  0.00    +0.349 C 
ATOM     15  O   UNL     1     -11.233  12.894  69.143  0.00  0.00    -0.247 OA
BRANCH  14  16
ATOM     16  O   UNL     1     -12.290  14.054  67.555  0.00  0.00    -0.444 OA
BRANCH  16  20
ATOM     17  C   UNL     1     -11.487  13.238  64.316  0.00  0.00    +0.171 C 
ATOM     18  N   UNL     1     -11.515  13.248  64.328  0.00  0.00    +0.309 N 
ATOM     19  C   UNL     1     -12.525  13.526  65.338  0.00  0.00    +0.153 C 
ATOM     20  C   UNL     1     -11.527  13.124  66.585  0.00  0.00    +0.229 C 
ATOM     21  C   UNL     1     -10.494  14.327  66.133  0.00  0.00    +0.111 C 
ATOM     22  C   UNL     1     -10.320  13.992  64.685  0.00  0.00    +0.113 C 
ATOM     23  C   UNL     1     -11.282  11.813  64.173  0.00  0.00    +0.171 C 
ENDBRANCH  16  20
ENDBRANCH  14  16
ENDBRANCH   1  14
TORSDOF 5
ENDMDL
MODEL 5
REMARK VINA RESULT:      -6.6      2.815      6.008
REMARK  Name = 
REMARK  5 active torsions:
REMARK  status: ('A' for Active; 'I' for Inactive)
REMARK    1  A    between atoms: C_6  and  O_7
REMARK    2  A    between atoms: O_7  and  C_8
REMARK    3  A    between atoms: C_8  and  C_10
REMARK    4  A    between atoms: C_10  and  C_12
REMARK    5  A    between atoms: C_10  and  C_18
REMARK                            x       y       z     vdW  Elec       q    Type
REMARK                         _______ _______ _______ _____ _____    ______ ____
ROOT
ATOM      1  C   UNL     1     -10.515  14.386  67.987  0.00  0.00    +0.233 C 
ATOM      2  O   UNL     1      -9.891  13.234  68.447  0.00  0.00    -0.210 OA
ENDROOT
BRANCH   1   3
ATOM      3  C   UNL     1     -10.874  14.149  66.553  0.00  0.00    +0.015 A 
ATOM      4  C   UNL     1     -12.222  14.063  66.230  0.00  0.00    -0.001 A 
ATOM      5  C   UNL     1     -12.686  13.224  65.234  0.00  0.00    -0.000 A 
ATOM      6  C   UNL     1     -11.812  12.903  64.213  0.00  0.00    -0.000 A 
ATOM      7  C   UNL     1     -10.455  13.044  64.448  0.00  0.00    -0.000 A 
ATOM      8  C   UNL     1     -10.014  13.483  65.689  0.00  0.00    -0.001 A 
ENDBRANCH   1   3
BRANCH   1   9
ATOM      9  C   UNL     1     -11.805  14.557  68.731  0.00  0.00    +0.043 C 
ATOM     10  C   UNL     1     -11.954  15.909  69.362  0.00  0.00    +0.003 C 
ATOM     11  C   UNL     1     -11.872  15.700  70.850  0.00  0.00    +0.000 C 
ATOM     12  C   UNL     1     -12.164  14.246  71.109  0.00  0.00    +0.000 C 
ATOM     13  C   UNL     1     -12.009  13.523  69.802  0.00  0.00    +0.003 C 
ENDBRANCH   1   9
BRANCH   1  14
ATOM     14  C   UNL     1      -9.638  15.575  68.018  0.00  0.00    +0.349 C 
ATOM     15  O   UNL     1      -8.764  15.670  68.935  0.00  0.00    -0.247 OA
BRANCH  14  16
ATOM     16  O   UNL     1      -9.737  16.669  67.191  0.00  0.00    -0.444 OA
BRANCH  16  20
ATOM     17  C   UNL     1      -8.494  19.846  66.781  0.00  0.00    +0.171 C 
ATOM     18  N   UNL     1      -8.490  19.820  66.763  0.00  0.00    +0.309 N 
ATOM     19  C   UNL     1      -8.466  18.409  66.409  0.00  0.00    +0.153 C 
ATOM     20  C   UNL     1      -9.141  17.941  67.838  0.00  0.00    +0.229 C 
ATOM     21  C   UNL     1     -10.483  18.832  67.484  0.00  0.00    +0.111 C 
ATOM     22  C   UNL     1      -9.846  20.149  67.168  0.00  0.00    +0.113 C 
ATOM     23  C   UNL     1      -7.486  20.143  67.775  0.00  0.00    +0.171 C 
ENDBRANCH  16  20
ENDBRANCH  14  16
ENDBRANCH   1  14
TORSDOF 5
ENDMDL
MODEL 6
REMARK VINA RESULT:      -6.6      2.528      4.369
REMARK  Name = 
REMARK  5 active torsions:
REMARK  status: ('A' for Active; 'I' for Inactive)
REMARK    1  A    between atoms: C_6  and  O_7
REMARK    2  A    between atoms: O_7  and  C_8
REMARK    3  A    between atoms: C_8  and  C_10
REMARK    4  A    between atoms: C_10  and  C_12
REMARK    5  A    between atoms: C_10  and  C_18
REMARK                            x       y       z     vdW  Elec       q    Type
REMARK                         _______ _______ _______ _____ _____    ______ ____
ROOT
ATOM      1  C   UNL     1     -11.543  13.179  67.730  0.00  0.00    +0.233 C 
ATOM      2  O   UNL     1     -12.045  11.982  67.233  0.00  0.00    -0.210 OA
ENDROOT
BRANCH   1   3
ATOM      3  C   UNL     1     -10.059  13.150  67.528  0.00  0.00    +0.015 A 
ATOM      4  C   UNL     1      -9.525  12.088  66.809  0.00  0.00    -0.001 A 
ATOM      5  C   UNL     1      -8.286  11.552  67.104  0.00  0.00    -0.000 A 
ATOM      6  C   UNL     1      -7.361  12.381  67.709  0.00  0.00    -0.000 A 
ATOM      7  C   UNL     1      -7.827  13.502  68.375  0.00  0.00    -0.000 A 
ATOM      8  C   UNL     1      -9.192  13.751  68.430  0.00  0.00    -0.001 A 
ENDBRANCH   1   3
BRANCH   1   9
ATOM      9  C   UNL     1     -12.070  14.300  66.887  0.00  0.00    +0.043 C 
ATOM     10  C   UNL     1     -12.772  13.834  65.646  0.00  0.00    +0.003 C 
ATOM     11  C   UNL     1     -11.902  14.231  64.485  0.00  0.00    +0.000 C 
ATOM     12  C   UNL     1     -10.981  15.317  64.973  0.00  0.00    +0.000 C 
ATOM     13  C   UNL     1     -11.006  15.278  66.475  0.00  0.00    +0.003 C 
ENDBRANCH   1   9
BRANCH   1  14
ATOM     14  C   UNL     1     -11.775  13.352  69.179  0.00  0.00    +0.349 C 
ATOM     15  O   UNL     1     -11.794  12.322  69.924  0.00  0.00    -0.247 OA
BRANCH  14  16
ATOM     16  O   UNL     1     -12.077  14.534  69.810  0.00  0.00    -0.444 OA
BRANCH  16  20
ATOM     17  C   UNL     1     -12.774  15.938  72.867  0.00  0.00    +0.171 C 
ATOM     18  N   UNL     1     -12.754  15.948  72.845  0.00  0.00    +0.309 N 
ATOM     19  C   UNL     1     -11.898  15.860  71.671  0.00  0.00    +0.153 C 
ATOM     20  C   UNL     1     -12.389  14.329  71.310  0.00  0.00    +0.229 C 
ATOM     21  C   UNL     1     -13.934  14.876  71.135  0.00  0.00    +0.111 C 
ATOM     22  C   UNL     1     -14.103  15.603  72.432  0.00  0.00    +0.113 C 
ATOM     23  C   UNL     1     -12.253  15.125  73.945  0.00  0.00    +0.171 C 
ENDBRANCH  16  20
ENDBRANCH  14  16
ENDBRANCH   1  14
TORSDOF 5
ENDMDL
MODEL 7
REMARK VINA RESULT:      -6.6      3.263      6.217
REMARK  Name = 
REMARK  5 active torsions:
REMARK  status: ('A' for Active; 'I' for Inactive)
REMARK    1  A    between atoms: C_6  and  O_7
REMARK    2  A    between atoms: O_7  and  C_8
REMARK    3  A    between atoms: C_8  and  C_10
REMARK    4  A    between atoms: C_10  and  C_12
REMARK    5  A    between atoms: C_10  and  C_18
REMARK                            x       y       z     vdW  Elec       q    Type
REMARK                         _______ _______ _______ _____ _____    ______ ____
ROOT
ATOM      1  C   UNL     1     -10.508  14.384  66.380  0.00  0.00    +0.233 C 
ATOM      2  O   UNL     1      -9.488  13.604  66.907  0.00  0.00    -0.210 OA
ENDROOT
BRANCH   1   3
ATOM      3  C   UNL     1     -10.975  13.709  65.127  0.00  0.00    +0.015 A 
ATOM      4  C   UNL     1     -12.343  13.553  64.948  0.00  0.00    -0.001 A 
ATOM      5  C   UNL     1     -12.878  12.450  64.308  0.00  0.00    -0.000 A 
ATOM      6  C   UNL     1     -12.083  11.803  63.382  0.00  0.00    -0.000 A 
ATOM      7  C   UNL     1     -10.712  11.984  63.460  0.00  0.00    -0.000 A 
ATOM      8  C   UNL     1     -10.180  12.786  64.461  0.00  0.00    -0.001 A 
ENDBRANCH   1   3
BRANCH   1   9
ATOM      9  C   UNL     1     -11.663  14.363  67.335  0.00  0.00    +0.043 C 
ATOM     10  C   UNL     1     -11.660  15.512  68.299  0.00  0.00    +0.003 C 
ATOM     11  C   UNL     1     -11.363  14.933  69.656  0.00  0.00    +0.000 C 
ATOM     12  C   UNL     1     -11.673  13.461  69.586  0.00  0.00    +0.000 C 
ATOM     13  C   UNL     1     -11.746  13.092  68.132  0.00  0.00    +0.003 C 
ENDBRANCH   1   9
BRANCH   1  14
ATOM     14  C   UNL     1     -10.066  15.741  65.997  0.00  0.00    +0.349 C 
ATOM     15  O   UNL     1     -10.594  16.294  64.981  0.00  0.00    -0.247 OA
BRANCH  14  16
ATOM     16  O   UNL     1      -9.045  16.450  66.582  0.00  0.00    -0.444 OA
BRANCH  16  20
ATOM     17  C   UNL     1      -8.640  19.588  67.920  0.00  0.00    +0.171 C 
ATOM     18  N   UNL     1      -8.648  19.562  67.934  0.00  0.00    +0.309 N 
ATOM     19  C   UNL     1      -9.134  18.196  68.064  0.00  0.00    +0.153 C 
ATOM     20  C   UNL     1      -9.238  17.977  66.434  0.00  0.00    +0.229 C 
ATOM     21  C   UNL     1      -7.615  18.239  66.306  0.00  0.00    +0.111 C 
ATOM     22  C   UNL     1      -7.501  19.537  67.043  0.00  0.00    +0.113 C 
ATOM     23  C   UNL     1      -9.703  20.475  67.500  0.00  0.00    +0.171 C 
ENDBRANCH  16  20
ENDBRANCH  14  16
ENDBRANCH   1  14
TORSDOF 5
ENDMDL
MODEL 8
REMARK VINA RESULT:      -6.4      1.135      3.883
REMARK  Name = 
REMARK  5 active torsions:
REMARK  status: ('A' for Active; 'I' for Inactive)
REMARK    1  A    between atoms: C_6  and  O_7
REMARK    2  A    between atoms: O_7  and  C_8
REMARK    3  A    between atoms: C_8  and  C_10
REMARK    4  A    between atoms: C_10  and  C_12
REMARK    5  A    between atoms: C_10  and  C_18
REMARK                            x       y       z     vdW  Elec       q    Type
REMARK                         _______ _______ _______ _____ _____    ______ ____
ROOT
ATOM      1  C   UNL     1     -10.739  16.094  68.153  0.00  0.00    +0.233 C 
ATOM      2  O   UNL     1     -12.020  16.625  68.235  0.00  0.00    -0.210 OA
ENDROOT
BRANCH   1   3
ATOM      3  C   UNL     1     -10.775  15.020  67.110  0.00  0.00    +0.015 A 
ATOM      4  C   UNL     1     -11.997  14.414  66.848  0.00  0.00    -0.001 A 
ATOM      5  C   UNL     1     -12.095  13.078  66.506  0.00  0.00    -0.000 A 
ATOM      6  C   UNL     1     -11.004  12.495  65.893  0.00  0.00    -0.000 A 
ATOM      7  C   UNL     1      -9.767  13.098  66.053  0.00  0.00    -0.000 A 
ATOM      8  C   UNL     1      -9.657  14.247  66.825  0.00  0.00    -0.001 A 
ENDBRANCH   1   3
BRANCH   1   9
ATOM      9  C   UNL     1      -9.815  17.158  67.642  0.00  0.00    +0.043 C 
ATOM     10  C   UNL     1      -9.841  18.413  68.464  0.00  0.00    +0.003 C 
ATOM     11  C   UNL     1     -10.487  19.472  67.612  0.00  0.00    +0.000 C 
ATOM     12  C   UNL     1     -10.394  19.007  66.182  0.00  0.00    +0.000 C 
ATOM     13  C   UNL     1     -10.086  17.537  66.213  0.00  0.00    +0.003 C 
ENDBRANCH   1   9
BRANCH   1  14
ATOM     14  C   UNL     1     -10.291  15.457  69.409  0.00  0.00    +0.349 C 
ATOM     15  O   UNL     1      -9.085  15.615  69.780  0.00  0.00    -0.247 OA
BRANCH  14  16
ATOM     16  O   UNL     1     -11.035  14.606  70.190  0.00  0.00    -0.444 OA
BRANCH  16  20
ATOM     17  C   UNL     1     -13.762  14.530  72.279  0.00  0.00    +0.171 C 
ATOM     18  N   UNL     1     -13.747  14.507  72.265  0.00  0.00    +0.309 N 
ATOM     19  C   UNL     1     -12.874  13.831  71.317  0.00  0.00    +0.153 C 
ATOM     20  C   UNL     1     -12.378  15.240  70.623  0.00  0.00    +0.229 C 
ATOM     21  C   UNL     1     -11.760  15.725  72.073  0.00  0.00    +0.111 C 
ATOM     22  C   UNL     1     -12.955  15.514  72.949  0.00  0.00    +0.113 C 
ATOM     23  C   UNL     1     -14.941  15.046  71.616  0.00  0.00    +0.171 C 
ENDBRANCH  16  20
ENDBRANCH  14  16
ENDBRANCH   1  14
TORSDOF 5
ENDMDL
MODEL 9
REMARK VINA RESULT:      -6.4      2.493      4.391
REMARK  Name = 
REMARK  5 active torsions:
REMARK  status: ('A' for Active; 'I' for Inactive)
REMARK    1  A    between atoms: C_6  and  O_7
REMARK    2  A    between atoms: O_7  and  C_8
REMARK    3  A    between atoms: C_8  and  C_10
REMARK    4  A    between atoms: C_10  and  C_12
REMARK    5  A    between atoms: C_10  and  C_18
REMARK                            x       y       z     vdW  Elec       q    Type
REMARK                         _______ _______ _______ _____ _____    ______ ____
ROOT
ATOM      1  C   UNL     1     -11.144  13.642  67.092  0.00  0.00    +0.233 C 
ATOM      2  O   UNL     1     -11.905  14.783  66.875  0.00  0.00    -0.210 OA
ENDROOT
BRANCH   1   3
ATOM      3  C   UNL     1     -11.433  12.701  65.962  0.00  0.00    +0.015 A 
ATOM      4  C   UNL     1     -10.426  11.825  65.578  0.00  0.00    -0.001 A 
ATOM      5  C   UNL     1     -10.249  11.444  64.261  0.00  0.00    -0.000 A 
ATOM      6  C   UNL     1     -11.356  11.470  63.435  0.00  0.00    -0.000 A 
ATOM      7  C   UNL     1     -12.427  12.266  63.807  0.00  0.00    -0.000 A 
ATOM      8  C   UNL     1     -12.355  13.016  64.973  0.00  0.00    -0.001 A 
ENDBRANCH   1   3
BRANCH   1   9
ATOM      9  C   UNL     1      -9.695  14.009  66.985  0.00  0.00    +0.043 C 
ATOM     10  C   UNL     1      -9.066  14.341  68.306  0.00  0.00    +0.003 C 
ATOM     11  C   UNL     1      -8.776  15.817  68.286  0.00  0.00    +0.000 C 
ATOM     12  C   UNL     1      -8.769  16.247  66.843  0.00  0.00    +0.000 C 
ATOM     13  C   UNL     1      -9.446  15.162  66.054  0.00  0.00    +0.003 C 
ENDBRANCH   1   9
BRANCH   1  14
ATOM     14  C   UNL     1     -11.497  12.934  68.339  0.00  0.00    +0.349 C 
ATOM     15  O   UNL     1     -12.115  11.826  68.262  0.00  0.00    -0.247 OA
BRANCH  14  16
ATOM     16  O   UNL     1     -11.308  13.408  69.615  0.00  0.00    -0.444 OA
BRANCH  16  20
ATOM     17  C   UNL     1     -13.334  14.562  72.139  0.00  0.00    +0.171 C 
ATOM     18  N   UNL     1     -13.324  14.533  72.133  0.00  0.00    +0.309 N 
ATOM     19  C   UNL     1     -12.782  13.419  71.370  0.00  0.00    +0.153 C 
ATOM     20  C   UNL     1     -12.448  14.356  70.057  0.00  0.00    +0.229 C 
ATOM     21  C   UNL     1     -11.427  15.265  70.979  0.00  0.00    +0.111 C 
ATOM     22  C   UNL     1     -12.332  15.595  72.124  0.00  0.00    +0.113 C 
ATOM     23  C   UNL     1     -14.631  14.953  71.629  0.00  0.00    +0.171 C 
ENDBRANCH  16  20
ENDBRANCH  14  16
ENDBRANCH   1  14
TORSDOF 5
ENDMDL
