MODEL 1
REMARK VINA RESULT:      -6.8      0.000      0.000
REMARK  Name = 
REMARK  7 active torsions:
REMARK  status: ('A' for Active; 'I' for Inactive)
REMARK    1  A    between atoms: C_4  and  C_5
REMARK    2  A    between atoms: C_9  and  C_10
REMARK    3  A    between atoms: C_10  and  O_12
REMARK    4  A    between atoms: O_12  and  C_13
REMARK    5  A    between atoms: C_13  and  C_14
REMARK    6  A    between atoms: C_18  and  O_19
REMARK    7  A    between atoms: O_19  and  C_20
REMARK                            x       y       z     vdW  Elec       q    Type
REMARK                         _______ _______ _______ _____ _____    ______ ____
ROOT
ATOM      1  C   UNL     1     -11.041  11.011  66.711  0.00  0.00    +0.235 C 
ENDROOT
BRANCH   1   2
ATOM      2  C   UNL     1     -10.376  10.246  67.813  0.00  0.00    +0.024 A 
ATOM      3  C   UNL     1     -11.114  10.133  69.009  0.00  0.00    +0.037 A 
ATOM      4  C   UNL     1     -10.432   9.910  70.196  0.00  0.00    +0.145 A 
ATOM      5  C   UNL     1      -9.111   9.477  70.146  0.00  0.00    +0.037 A 
ATOM      6  C   UNL     1      -8.366   9.545  68.999  0.00  0.00    +0.003 A 
ATOM      7  C   UNL     1      -8.993  10.350  68.025  0.00  0.00    -0.000 A 
BRANCH   4   8
ATOM      8  O   UNL     1     -11.118   9.803  71.395  0.00  0.00    -0.454 OA
BRANCH   8   9
ATOM      9  C   UNL     1     -12.200   8.932  71.369  0.00  0.00    +0.145 A 
ATOM     10  C   UNL     1     -12.040   7.562  71.515  0.00  0.00    +0.037 A 
ATOM     11  C   UNL     1     -13.195   6.831  71.265  0.00  0.00    +0.003 A 
ATOM     12  C   UNL     1     -14.427   7.315  71.679  0.00  0.00    +0.000 A 
ATOM     13  C   UNL     1     -14.466   8.635  72.065  0.00  0.00    +0.003 A 
ATOM     14  C   UNL     1     -13.369   9.437  71.947  0.00  0.00    +0.037 A 
ENDBRANCH   8   9
ENDBRANCH   4   8
ENDBRANCH   1   2
BRANCH   1  15
ATOM     15  O   UNL     1     -12.020  11.937  67.188  0.00  0.00    -0.443 OA
BRANCH  15  16
ATOM     16  C   UNL     1     -11.603  13.180  67.093  0.00  0.00    +0.317 C 
ATOM     17  O   UNL     1     -12.248  13.745  66.135  0.00  0.00    -0.250 OA
BRANCH  16  20
ATOM     18  C   UNL     1      -9.431  14.007  68.300  0.00  0.00    +0.001 C 
ATOM     19  C   UNL     1     -10.498  14.686  68.863  0.00  0.00    +0.015 C 
ATOM     20  C   UNL     1     -11.996  14.403  68.082  0.00  0.00    +0.103 C 
ATOM     21  C   UNL     1     -11.642  13.639  69.589  0.00  0.00    +0.035 C 
ATOM     22  C   UNL     1     -10.529  16.063  69.261  0.00  0.00    +0.001 C 
BRANCH  21  23
ATOM     23  C   UNL     1     -12.434  14.775  70.432  0.00  0.00    -0.003 C 
ATOM     24  C   UNL     1     -12.818  14.499  71.648  0.00  0.00    +0.111 C 
ATOM     25 CL   UNL     1     -14.572  14.781  71.764  0.00  0.00    -0.070 Cl
ATOM     26 CL   UNL     1     -11.981  15.434  72.905  0.00  0.00    -0.070 Cl
ENDBRANCH  21  23
ENDBRANCH  16  20
ENDBRANCH  15  16
ENDBRANCH   1  15
TORSDOF 7
ENDMDL
MODEL 2
REMARK VINA RESULT:      -6.7      3.374      6.713
REMARK  Name = 
REMARK  7 active torsions:
REMARK  status: ('A' for Active; 'I' for Inactive)
REMARK    1  A    between atoms: C_4  and  C_5
REMARK    2  A    between atoms: C_9  and  C_10
REMARK    3  A    between atoms: C_10  and  O_12
REMARK    4  A    between atoms: O_12  and  C_13
REMARK    5  A    between atoms: C_13  and  C_14
REMARK    6  A    between atoms: C_18  and  O_19
REMARK    7  A    between atoms: O_19  and  C_20
REMARK                            x       y       z     vdW  Elec       q    Type
REMARK                         _______ _______ _______ _____ _____    ______ ____
ROOT
ATOM      1  C   UNL     1     -12.176  11.430  70.583  0.00  0.00    +0.235 C 
ENDROOT
BRANCH   1   2
ATOM      2  C   UNL     1     -12.722  12.807  70.798  0.00  0.00    +0.024 A 
ATOM      3  C   UNL     1     -11.911  13.863  70.333  0.00  0.00    +0.037 A 
ATOM      4  C   UNL     1     -12.058  15.118  70.906  0.00  0.00    +0.145 A 
ATOM      5  C   UNL     1     -13.194  15.388  71.662  0.00  0.00    +0.037 A 
ATOM      6  C   UNL     1     -14.022  14.395  72.113  0.00  0.00    +0.003 A 
ATOM      7  C   UNL     1     -13.424  13.124  71.970  0.00  0.00    -0.000 A 
BRANCH   4   8
ATOM      8  O   UNL     1     -11.275  16.181  70.486  0.00  0.00    -0.454 OA
BRANCH   8   9
ATOM      9  C   UNL     1     -10.647  15.992  69.261  0.00  0.00    +0.145 A 
ATOM     10  C   UNL     1     -10.966  16.759  68.150  0.00  0.00    +0.037 A 
ATOM     11  C   UNL     1     -10.391  16.306  66.969  0.00  0.00    +0.003 A 
ATOM     12  C   UNL     1      -9.096  15.806  66.974  0.00  0.00    +0.000 A 
ATOM     13  C   UNL     1      -8.555  15.524  68.207  0.00  0.00    +0.003 A 
ATOM     14  C   UNL     1      -9.297  15.640  69.346  0.00  0.00    +0.037 A 
ENDBRANCH   8   9
ENDBRANCH   4   8
ENDBRANCH   1   2
BRANCH   1  15
ATOM     15  O   UNL     1     -12.425  10.930  69.267  0.00  0.00    -0.443 OA
BRANCH  15  16
ATOM     16  C   UNL     1     -11.309  10.668  68.625  0.00  0.00    +0.317 C 
ATOM     17  O   UNL     1     -11.289   9.411  68.357  0.00  0.00    -0.250 OA
BRANCH  16  20
ATOM     18  C   UNL     1      -9.044  11.979  68.502  0.00  0.00    +0.001 C 
ATOM     19  C   UNL     1      -9.584  11.970  67.227  0.00  0.00    +0.015 C 
ATOM     20  C   UNL     1     -10.991  11.005  67.071  0.00  0.00    +0.103 C 
ATOM     21  C   UNL     1     -11.119  12.725  67.151  0.00  0.00    +0.035 C 
ATOM     22  C   UNL     1      -8.874  11.810  65.992  0.00  0.00    +0.001 C 
BRANCH  21  23
ATOM     23  C   UNL     1     -11.183  12.866  65.537  0.00  0.00    -0.003 C 
ATOM     24  C   UNL     1     -12.312  13.217  64.983  0.00  0.00    +0.111 C 
ATOM     25 CL   UNL     1     -12.754  11.988  63.774  0.00  0.00    -0.070 Cl
ATOM     26 CL   UNL     1     -12.281  14.819  64.218  0.00  0.00    -0.070 Cl
ENDBRANCH  21  23
ENDBRANCH  16  20
ENDBRANCH  15  16
ENDBRANCH   1  15
TORSDOF 7
ENDMDL
MODEL 3
REMARK VINA RESULT:      -6.5      4.042      8.341
REMARK  Name = 
REMARK  7 active torsions:
REMARK  status: ('A' for Active; 'I' for Inactive)
REMARK    1  A    between atoms: C_4  and  C_5
REMARK    2  A    between atoms: C_9  and  C_10
REMARK    3  A    between atoms: C_10  and  O_12
REMARK    4  A    between atoms: O_12  and  C_13
REMARK    5  A    between atoms: C_13  and  C_14
REMARK    6  A    between atoms: C_18  and  O_19
REMARK    7  A    between atoms: O_19  and  C_20
REMARK                            x       y       z     vdW  Elec       q    Type
REMARK                         _______ _______ _______ _____ _____    ______ ____
ROOT
ATOM      1  C   UNL     1     -11.836  13.312  68.349  0.00  0.00    +0.235 C 
ENDROOT
BRANCH   1   2
ATOM      2  C   UNL     1     -11.459  13.765  66.972  0.00  0.00    +0.024 A 
ATOM      3  C   UNL     1     -10.438  14.734  66.907  0.00  0.00    +0.037 A 
ATOM      4  C   UNL     1     -10.370  15.558  65.793  0.00  0.00    +0.145 A 
ATOM      5  C   UNL     1     -11.072  15.205  64.646  0.00  0.00    +0.037 A 
ATOM      6  C   UNL     1     -12.054  14.250  64.659  0.00  0.00    +0.003 A 
ATOM      7  C   UNL     1     -12.436  13.924  65.978  0.00  0.00    -0.000 A 
BRANCH   4   8
ATOM      8  O   UNL     1      -9.388  16.531  65.694  0.00  0.00    -0.454 OA
BRANCH   8   9
ATOM      9  C   UNL     1      -9.550  17.610  66.554  0.00  0.00    +0.145 A 
ATOM     10  C   UNL     1      -8.502  18.098  67.320  0.00  0.00    +0.037 A 
ATOM     11  C   UNL     1      -8.886  19.043  68.263  0.00  0.00    +0.003 A 
ATOM     12  C   UNL     1      -9.858  19.983  67.949  0.00  0.00    +0.000 A 
ATOM     13  C   UNL     1     -10.591  19.745  66.810  0.00  0.00    +0.003 A 
ATOM     14  C   UNL     1     -10.430  18.594  66.094  0.00  0.00    +0.037 A 
ENDBRANCH   8   9
ENDBRANCH   4   8
ENDBRANCH   1   2
BRANCH   1  15
ATOM     15  O   UNL     1     -10.832  12.501  68.963  0.00  0.00    -0.443 OA
BRANCH  15  16
ATOM     16  C   UNL     1     -11.098  11.220  68.841  0.00  0.00    +0.317 C 
ATOM     17  O   UNL     1     -12.354  11.050  69.057  0.00  0.00    -0.250 OA
BRANCH  16  20
ATOM     18  C   UNL     1      -9.496   9.150  68.958  0.00  0.00    +0.001 C 
ATOM     19  C   UNL     1     -10.014   9.197  67.674  0.00  0.00    +0.015 C 
ATOM     20  C   UNL     1     -11.223  10.391  67.453  0.00  0.00    +0.103 C 
ATOM     21  C   UNL     1      -9.624  10.649  66.855  0.00  0.00    +0.035 C 
ATOM     22  C   UNL     1     -10.426   8.084  66.870  0.00  0.00    +0.001 C 
BRANCH  21  23
ATOM     23  C   UNL     1     -10.023  10.143  65.368  0.00  0.00    -0.003 C 
ATOM     24  C   UNL     1      -9.307  10.548  64.354  0.00  0.00    +0.111 C 
ATOM     25 CL   UNL     1     -10.389  11.316  63.168  0.00  0.00    -0.070 Cl
ATOM     26 CL   UNL     1      -8.374   9.263  63.562  0.00  0.00    -0.070 Cl
ENDBRANCH  21  23
ENDBRANCH  16  20
ENDBRANCH  15  16
ENDBRANCH   1  15
TORSDOF 7
ENDMDL
MODEL 4
REMARK VINA RESULT:      -6.5      3.058      4.984
REMARK  Name = 
REMARK  7 active torsions:
REMARK  status: ('A' for Active; 'I' for Inactive)
REMARK    1  A    between atoms: C_4  and  C_5
REMARK    2  A    between atoms: C_9  and  C_10
REMARK    3  A    between atoms: C_10  and  O_12
REMARK    4  A    between atoms: O_12  and  C_13
REMARK    5  A    between atoms: C_13  and  C_14
REMARK    6  A    between atoms: C_18  and  O_19
REMARK    7  A    between atoms: O_19  and  C_20
REMARK                            x       y       z     vdW  Elec       q    Type
REMARK                         _______ _______ _______ _____ _____    ______ ____
ROOT
ATOM      1  C   UNL     1     -10.885  14.831  67.779  0.00  0.00    +0.235 C 
ENDROOT
BRANCH   1   2
ATOM      2  C   UNL     1     -11.222  14.048  69.011  0.00  0.00    +0.024 A 
ATOM      3  C   UNL     1     -11.264  12.648  68.849  0.00  0.00    +0.037 A 
ATOM      4  C   UNL     1     -12.025  11.897  69.733  0.00  0.00    +0.145 A 
ATOM      5  C   UNL     1     -12.445  12.477  70.925  0.00  0.00    +0.037 A 
ATOM      6  C   UNL     1     -12.398  13.830  71.133  0.00  0.00    +0.003 A 
ATOM      7  C   UNL     1     -12.167  14.527  69.928  0.00  0.00    -0.000 A 
BRANCH   4   8
ATOM      8  O   UNL     1     -12.102  10.520  69.604  0.00  0.00    -0.454 OA
BRANCH   8   9
ATOM      9  C   UNL     1     -11.516   9.806  70.642  0.00  0.00    +0.145 A 
ATOM     10  C   UNL     1     -12.198   8.803  71.316  0.00  0.00    +0.037 A 
ATOM     11  C   UNL     1     -11.539   8.335  72.446  0.00  0.00    +0.003 A 
ATOM     12  C   UNL     1     -10.159   8.188  72.434  0.00  0.00    +0.000 A 
ATOM     13  C   UNL     1      -9.490   8.786  71.391  0.00  0.00    +0.003 A 
ATOM     14  C   UNL     1     -10.149   9.561  70.482  0.00  0.00    +0.037 A 
ENDBRANCH   8   9
ENDBRANCH   4   8
ENDBRANCH   1   2
BRANCH   1  15
ATOM     15  O   UNL     1     -11.769  14.564  66.689  0.00  0.00    -0.443 OA
BRANCH  15  16
ATOM     16  C   UNL     1     -11.112  14.317  65.577  0.00  0.00    +0.317 C 
ATOM     17  O   UNL     1     -10.071  15.071  65.553  0.00  0.00    -0.250 OA
BRANCH  16  20
ATOM     18  C   UNL     1     -12.045  13.094  63.457  0.00  0.00    +0.001 C 
ATOM     19  C   UNL     1     -11.036  12.302  63.977  0.00  0.00    +0.015 C 
ATOM     20  C   UNL     1     -10.183  13.023  65.276  0.00  0.00    +0.103 C 
ATOM     21  C   UNL     1     -11.354  11.791  65.580  0.00  0.00    +0.035 C 
ATOM     22  C   UNL     1     -10.054  11.564  63.239  0.00  0.00    +0.001 C 
BRANCH  21  23
ATOM     23  C   UNL     1     -10.223  10.631  65.638  0.00  0.00    -0.003 C 
ATOM     24  C   UNL     1     -10.007  10.022  66.773  0.00  0.00    +0.111 C 
ATOM     25 CL   UNL     1      -8.280  10.170  67.175  0.00  0.00    -0.070 Cl
ATOM     26 CL   UNL     1     -10.474   8.309  66.778  0.00  0.00    -0.070 Cl
ENDBRANCH  21  23
ENDBRANCH  16  20
ENDBRANCH  15  16
ENDBRANCH   1  15
TORSDOF 7
ENDMDL
MODEL 5
REMARK VINA RESULT:      -6.5      3.011      5.295
REMARK  Name = 
REMARK  7 active torsions:
REMARK  status: ('A' for Active; 'I' for Inactive)
REMARK    1  A    between atoms: C_4  and  C_5
REMARK    2  A    between atoms: C_9  and  C_10
REMARK    3  A    between atoms: C_10  and  O_12
REMARK    4  A    between atoms: O_12  and  C_13
REMARK    5  A    between atoms: C_13  and  C_14
REMARK    6  A    between atoms: C_18  and  O_19
REMARK    7  A    between atoms: O_19  and  C_20
REMARK                            x       y       z     vdW  Elec       q    Type
REMARK                         _______ _______ _______ _____ _____    ______ ____
ROOT
ATOM      1  C   UNL     1      -9.205   9.959  69.619  0.00  0.00    +0.235 C 
ENDROOT
BRANCH   1   2
ATOM      2  C   UNL     1     -10.579   9.844  70.204  0.00  0.00    +0.024 A 
ATOM      3  C   UNL     1     -11.399  10.982  70.061  0.00  0.00    +0.037 A 
ATOM      4  C   UNL     1     -12.439  11.172  70.959  0.00  0.00    +0.145 A 
ATOM      5  C   UNL     1     -12.855  10.104  71.748  0.00  0.00    +0.037 A 
ATOM      6  C   UNL     1     -12.101   8.970  71.894  0.00  0.00    +0.003 A 
ATOM      7  C   UNL     1     -10.790   9.159  71.410  0.00  0.00    -0.000 A 
BRANCH   4   8
ATOM      8  O   UNL     1     -13.263  12.281  70.859  0.00  0.00    -0.454 OA
BRANCH   8   9
ATOM      9  C   UNL     1     -12.746  13.441  71.423  0.00  0.00    +0.145 A 
ATOM     10  C   UNL     1     -12.265  14.482  70.642  0.00  0.00    +0.037 A 
ATOM     11  C   UNL     1     -11.607  15.470  71.364  0.00  0.00    +0.003 A 
ATOM     12  C   UNL     1     -12.084  15.855  72.609  0.00  0.00    +0.000 A 
ATOM     13  C   UNL     1     -13.024  15.031  73.184  0.00  0.00    +0.003 A 
ATOM     14  C   UNL     1     -13.383  13.853  72.597  0.00  0.00    +0.037 A 
ENDBRANCH   8   9
ENDBRANCH   4   8
ENDBRANCH   1   2
BRANCH   1  15
ATOM     15  O   UNL     1      -9.214  10.106  68.198  0.00  0.00    -0.443 OA
BRANCH  15  16
ATOM     16  C   UNL     1      -8.694  11.252  67.822  0.00  0.00    +0.317 C 
ATOM     17  O   UNL     1      -7.499  11.030  67.402  0.00  0.00    -0.250 OA
BRANCH  16  20
ATOM     18  C   UNL     1      -9.395  13.699  68.444  0.00  0.00    +0.001 C 
ATOM     19  C   UNL     1      -9.594  13.548  67.082  0.00  0.00    +0.015 C 
ATOM     20  C   UNL     1      -9.026  12.058  66.455  0.00  0.00    +0.103 C 
ATOM     21  C   UNL     1     -10.715  12.309  66.710  0.00  0.00    +0.035 C 
ATOM     22  C   UNL     1      -9.329  14.517  66.061  0.00  0.00    +0.001 C 
BRANCH  21  23
ATOM     23  C   UNL     1     -10.958  12.729  65.163  0.00  0.00    -0.003 C 
ATOM     24  C   UNL     1     -12.176  12.973  64.763  0.00  0.00    +0.111 C 
ATOM     25 CL   UNL     1     -12.533  11.929  63.367  0.00  0.00    -0.070 Cl
ATOM     26 CL   UNL     1     -12.472  14.669  64.328  0.00  0.00    -0.070 Cl
ENDBRANCH  21  23
ENDBRANCH  16  20
ENDBRANCH  15  16
ENDBRANCH   1  15
TORSDOF 7
ENDMDL
MODEL 6
REMARK VINA RESULT:      -6.4      4.795      7.009
REMARK  Name = 
REMARK  7 active torsions:
REMARK  status: ('A' for Active; 'I' for Inactive)
REMARK    1  A    between atoms: C_4  and  C_5
REMARK    2  A    between atoms: C_9  and  C_10
REMARK    3  A    between atoms: C_10  and  O_12
REMARK    4  A    between atoms: O_12  and  C_13
REMARK    5  A    between atoms: C_13  and  C_14
REMARK    6  A    between atoms: C_18  and  O_19
REMARK    7  A    between atoms: O_19  and  C_20
REMARK                            x       y       z     vdW  Elec       q    Type
REMARK                         _______ _______ _______ _____ _____    ______ ____
ROOT
ATOM      1  C   UNL     1     -10.549  18.463  66.541  0.00  0.00    +0.235 C 
ENDROOT
BRANCH   1   2
ATOM      2  C   UNL     1     -10.376  17.039  66.973  0.00  0.00    +0.024 A 
ATOM      3  C   UNL     1     -10.558  16.794  68.350  0.00  0.00    +0.037 A 
ATOM      4  C   UNL     1      -9.951  15.682  68.915  0.00  0.00    +0.145 A 
ATOM      5  C   UNL     1      -9.474  14.675  68.082  0.00  0.00    +0.037 A 
ATOM      6  C   UNL     1      -9.306  14.863  66.736  0.00  0.00    +0.003 A 
ATOM      7  C   UNL     1      -9.389  16.229  66.393  0.00  0.00    -0.000 A 
BRANCH   4   8
ATOM      8  O   UNL     1     -10.096  15.409  70.266  0.00  0.00    -0.454 OA
BRANCH   8   9
ATOM      9  C   UNL     1     -11.411  15.280  70.695  0.00  0.00    +0.145 A 
ATOM     10  C   UNL     1     -12.100  14.080  70.590  0.00  0.00    +0.037 A 
ATOM     11  C   UNL     1     -13.455  14.182  70.879  0.00  0.00    +0.003 A 
ATOM     12  C   UNL     1     -13.886  15.007  71.908  0.00  0.00    +0.000 A 
ATOM     13  C   UNL     1     -12.963  15.900  72.402  0.00  0.00    +0.003 A 
ATOM     14  C   UNL     1     -11.728  16.025  71.834  0.00  0.00    +0.037 A 
ENDBRANCH   8   9
ENDBRANCH   4   8
ENDBRANCH   1   2
BRANCH   1  15
ATOM     15  O   UNL     1      -9.345  19.041  66.031  0.00  0.00    -0.443 OA
BRANCH  15  16
ATOM     16  C   UNL     1      -8.785  19.850  66.901  0.00  0.00    +0.317 C 
ATOM     17  O   UNL     1      -9.720  20.418  67.577  0.00  0.00    -0.250 OA
BRANCH  16  20
ATOM     18  C   UNL     1      -6.418  20.970  66.967  0.00  0.00    +0.001 C 
ATOM     19  C   UNL     1      -6.500  20.118  68.056  0.00  0.00    +0.015 C 
ATOM     20  C   UNL     1      -8.048  19.419  68.280  0.00  0.00    +0.103 C 
ATOM     21  C   UNL     1      -6.762  18.487  67.602  0.00  0.00    +0.035 C 
ATOM     22  C   UNL     1      -5.994  20.355  69.375  0.00  0.00    +0.001 C 
BRANCH  21  23
ATOM     23  C   UNL     1      -6.391  17.828  69.036  0.00  0.00    -0.003 C 
ATOM     24  C   UNL     1      -5.615  16.778  69.061  0.00  0.00    +0.111 C 
ATOM     25 CL   UNL     1      -6.453  15.477  69.940  0.00  0.00    -0.070 Cl
ATOM     26 CL   UNL     1      -4.026  17.066  69.798  0.00  0.00    -0.070 Cl
ENDBRANCH  21  23
ENDBRANCH  16  20
ENDBRANCH  15  16
ENDBRANCH   1  15
TORSDOF 7
ENDMDL
MODEL 7
REMARK VINA RESULT:      -6.4      3.487      7.255
REMARK  Name = 
REMARK  7 active torsions:
REMARK  status: ('A' for Active; 'I' for Inactive)
REMARK    1  A    between atoms: C_4  and  C_5
REMARK    2  A    between atoms: C_9  and  C_10
REMARK    3  A    between atoms: C_10  and  O_12
REMARK    4  A    between atoms: O_12  and  C_13
REMARK    5  A    between atoms: C_13  and  C_14
REMARK    6  A    between atoms: C_18  and  O_19
REMARK    7  A    between atoms: O_19  and  C_20
REMARK                            x       y       z     vdW  Elec       q    Type
REMARK                         _______ _______ _______ _____ _____    ______ ____
ROOT
ATOM      1  C   UNL     1     -12.561   9.597  71.301  0.00  0.00    +0.235 C 
ENDROOT
BRANCH   1   2
ATOM      2  C   UNL     1     -11.794  10.602  70.498  0.00  0.00    +0.024 A 
ATOM      3  C   UNL     1     -12.234  11.936  70.612  0.00  0.00    +0.037 A 
ATOM      4  C   UNL     1     -11.953  12.821  69.581  0.00  0.00    +0.145 A 
ATOM      5  C   UNL     1     -10.984  12.481  68.643  0.00  0.00    +0.037 A 
ATOM      6  C   UNL     1     -10.511  11.203  68.515  0.00  0.00    +0.003 A 
ATOM      7  C   UNL     1     -11.319  10.284  69.217  0.00  0.00    -0.000 A 
BRANCH   4   8
ATOM      8  O   UNL     1     -12.376  14.139  69.648  0.00  0.00    -0.454 OA
BRANCH   8   9
ATOM      9  C   UNL     1     -12.575  14.621  70.936  0.00  0.00    +0.145 A 
ATOM     10  C   UNL     1     -11.611  15.372  71.592  0.00  0.00    +0.037 A 
ATOM     11  C   UNL     1     -11.892  15.599  72.934  0.00  0.00    +0.003 A 
ATOM     12  C   UNL     1     -13.195  15.851  73.338  0.00  0.00    +0.000 A 
ATOM     13  C   UNL     1     -14.183  15.580  72.419  0.00  0.00    +0.003 A 
ATOM     14  C   UNL     1     -13.890  15.002  71.219  0.00  0.00    +0.037 A 
ENDBRANCH   8   9
ENDBRANCH   4   8
ENDBRANCH   1   2
BRANCH   1  15
ATOM     15  O   UNL     1     -11.717   8.734  72.067  0.00  0.00    -0.443 OA
BRANCH  15  16
ATOM     16  C   UNL     1     -11.883   7.472  71.738  0.00  0.00    +0.317 C 
ATOM     17  O   UNL     1     -13.117   7.301  71.421  0.00  0.00    -0.250 OA
BRANCH  16  20
ATOM     18  C   UNL     1     -10.120   5.611  72.280  0.00  0.00    +0.001 C 
ATOM     19  C   UNL     1     -10.194   5.719  70.902  0.00  0.00    +0.015 C 
ATOM     20  C   UNL     1     -11.427   6.772  70.349  0.00  0.00    +0.103 C 
ATOM     21  C   UNL     1      -9.777   7.280  70.336  0.00  0.00    +0.035 C 
ATOM     22  C   UNL     1     -10.153   4.647  69.951  0.00  0.00    +0.001 C 
BRANCH  21  23
ATOM     23  C   UNL     1      -9.591   6.875  68.777  0.00  0.00    -0.003 C 
ATOM     24  C   UNL     1      -8.959   7.699  67.986  0.00  0.00    +0.111 C 
ATOM     25 CL   UNL     1     -10.014   8.076  66.603  0.00  0.00    -0.070 Cl
ATOM     26 CL   UNL     1      -7.400   7.088  67.395  0.00  0.00    -0.070 Cl
ENDBRANCH  21  23
ENDBRANCH  16  20
ENDBRANCH  15  16
ENDBRANCH   1  15
TORSDOF 7
ENDMDL
MODEL 8
REMARK VINA RESULT:      -6.3      3.569      7.549
REMARK  Name = 
REMARK  7 active torsions:
REMARK  status: ('A' for Active; 'I' for Inactive)
REMARK    1  A    between atoms: C_4  and  C_5
REMARK    2  A    between atoms: C_9  and  C_10
REMARK    3  A    between atoms: C_10  and  O_12
REMARK    4  A    between atoms: O_12  and  C_13
REMARK    5  A    between atoms: C_13  and  C_14
REMARK    6  A    between atoms: C_18  and  O_19
REMARK    7  A    between atoms: O_19  and  C_20
REMARK                            x       y       z     vdW  Elec       q    Type
REMARK                         _______ _______ _______ _____ _____    ______ ____
ROOT
ATOM      1  C   UNL     1     -13.059  10.504  72.068  0.00  0.00    +0.235 C 
ENDROOT
BRANCH   1   2
ATOM      2  C   UNL     1     -13.105  11.833  71.380  0.00  0.00    +0.024 A 
ATOM      3  C   UNL     1     -12.241  11.978  70.276  0.00  0.00    +0.037 A 
ATOM      4  C   UNL     1     -11.841  13.254  69.905  0.00  0.00    +0.145 A 
ATOM      5  C   UNL     1     -12.541  14.351  70.394  0.00  0.00    +0.037 A 
ATOM      6  C   UNL     1     -13.410  14.250  71.449  0.00  0.00    +0.003 A 
ATOM      7  C   UNL     1     -13.264  13.016  72.117  0.00  0.00    -0.000 A 
BRANCH   4   8
ATOM      8  O   UNL     1     -10.984  13.440  68.832  0.00  0.00    -0.454 OA
BRANCH   8   9
ATOM      9  C   UNL     1     -11.550  13.195  67.587  0.00  0.00    +0.145 A 
ATOM     10  C   UNL     1     -12.014  14.223  66.779  0.00  0.00    +0.037 A 
ATOM     11  C   UNL     1     -12.725  13.788  65.668  0.00  0.00    +0.003 A 
ATOM     12  C   UNL     1     -12.315  12.654  64.981  0.00  0.00    +0.000 A 
ATOM     13  C   UNL     1     -11.388  11.859  65.614  0.00  0.00    +0.003 A 
ATOM     14  C   UNL     1     -10.978  12.129  66.887  0.00  0.00    +0.037 A 
ENDBRANCH   8   9
ENDBRANCH   4   8
ENDBRANCH   1   2
BRANCH   1  15
ATOM     15  O   UNL     1     -13.475   9.426  71.227  0.00  0.00    -0.443 OA
BRANCH  15  16
ATOM     16  C   UNL     1     -13.229   8.257  71.774  0.00  0.00    +0.317 C 
ATOM     17  O   UNL     1     -14.349   7.644  71.929  0.00  0.00    -0.250 OA
BRANCH  16  20
ATOM     18  C   UNL     1     -10.989   7.589  72.957  0.00  0.00    +0.001 C 
ATOM     19  C   UNL     1     -11.120   6.782  71.840  0.00  0.00    +0.015 C 
ATOM     20  C   UNL     1     -12.618   6.954  71.026  0.00  0.00    +0.103 C 
ATOM     21  C   UNL     1     -11.189   7.676  70.381  0.00  0.00    +0.035 C 
ATOM     22  C   UNL     1     -10.789   5.392  71.738  0.00  0.00    +0.001 C 
BRANCH  21  23
ATOM     23  C   UNL     1     -10.926   6.429  69.379  0.00  0.00    -0.003 C 
ATOM     24  C   UNL     1     -10.124   6.599  68.363  0.00  0.00    +0.111 C 
ATOM     25 CL   UNL     1     -10.997   6.162  66.875  0.00  0.00    -0.070 Cl
ATOM     26 CL   UNL     1      -8.616   5.667  68.464  0.00  0.00    -0.070 Cl
ENDBRANCH  21  23
ENDBRANCH  16  20
ENDBRANCH  15  16
ENDBRANCH   1  15
TORSDOF 7
ENDMDL
MODEL 9
REMARK VINA RESULT:      -6.3      3.608      6.895
REMARK  Name = 
REMARK  7 active torsions:
REMARK  status: ('A' for Active; 'I' for Inactive)
REMARK    1  A    between atoms: C_4  and  C_5
REMARK    2  A    between atoms: C_9  and  C_10
REMARK    3  A    between atoms: C_10  and  O_12
REMARK    4  A    between atoms: O_12  and  C_13
REMARK    5  A    between atoms: C_13  and  C_14
REMARK    6  A    between atoms: C_18  and  O_19
REMARK    7  A    between atoms: O_19  and  C_20
REMARK                            x       y       z     vdW  Elec       q    Type
REMARK                         _______ _______ _______ _____ _____    ______ ____
ROOT
ATOM      1  C   UNL     1     -10.437   9.791  67.766  0.00  0.00    +0.235 C 
ENDROOT
BRANCH   1   2
ATOM      2  C   UNL     1     -11.359  10.358  68.801  0.00  0.00    +0.024 A 
ATOM      3  C   UNL     1     -11.613  11.741  68.699  0.00  0.00    +0.037 A 
ATOM      4  C   UNL     1     -12.009  12.431  69.835  0.00  0.00    +0.145 A 
ATOM      5  C   UNL     1     -12.463  11.716  70.938  0.00  0.00    +0.037 A 
ATOM      6  C   UNL     1     -12.260  10.367  71.065  0.00  0.00    +0.003 A 
ATOM      7  C   UNL     1     -11.317   9.900  70.126  0.00  0.00    -0.000 A 
BRANCH   4   8
ATOM      8  O   UNL     1     -12.259  13.793  69.781  0.00  0.00    -0.454 OA
BRANCH   8   9
ATOM      9  C   UNL     1     -12.509  14.387  71.012  0.00  0.00    +0.145 A 
ATOM     10  C   UNL     1     -11.564  15.183  71.645  0.00  0.00    +0.037 A 
ATOM     11  C   UNL     1     -11.901  15.529  72.947  0.00  0.00    +0.003 A 
ATOM     12  C   UNL     1     -13.217  15.829  73.268  0.00  0.00    +0.000 A 
ATOM     13  C   UNL     1     -14.166  15.490  72.332  0.00  0.00    +0.003 A 
ATOM     14  C   UNL     1     -13.829  14.806  71.201  0.00  0.00    +0.037 A 
ENDBRANCH   8   9
ENDBRANCH   4   8
ENDBRANCH   1   2
BRANCH   1  15
ATOM     15  O   UNL     1     -10.859   8.514  67.282  0.00  0.00    -0.443 OA
BRANCH  15  16
ATOM     16  C   UNL     1      -9.957   7.585  67.505  0.00  0.00    +0.317 C 
ATOM     17  O   UNL     1      -8.795   8.108  67.335  0.00  0.00    -0.250 OA
BRANCH  16  20
ATOM     18  C   UNL     1     -10.168   4.974  67.494  0.00  0.00    +0.001 C 
ATOM     19  C   UNL     1      -9.843   5.354  68.785  0.00  0.00    +0.015 C 
ATOM     20  C   UNL     1      -9.493   7.023  68.954  0.00  0.00    +0.103 C 
ATOM     21  C   UNL     1     -11.012   6.394  69.483  0.00  0.00    +0.035 C 
ATOM     22  C   UNL     1      -8.948   4.685  69.681  0.00  0.00    +0.001 C 
BRANCH  21  23
ATOM     23  C   UNL     1     -10.500   6.255  71.015  0.00  0.00    -0.003 C 
ATOM     24  C   UNL     1     -11.365   6.406  71.981  0.00  0.00    +0.111 C 
ATOM     25 CL   UNL     1     -10.773   7.677  73.077  0.00  0.00    -0.070 Cl
ATOM     26 CL   UNL     1     -11.688   4.925  72.906  0.00  0.00    -0.070 Cl
ENDBRANCH  21  23
ENDBRANCH  16  20
ENDBRANCH  15  16
ENDBRANCH   1  15
TORSDOF 7
ENDMDL
