MODEL 1
REMARK VINA RESULT:      -6.4      0.000      0.000
REMARK  Name = 
REMARK  3 active torsions:
REMARK  status: ('A' for Active; 'I' for Inactive)
REMARK    1  A    between atoms: C_11  and  C_12
REMARK    2  A    between atoms: C_11  and  C_17
REMARK    3  A    between atoms: C_13  and  C_14
REMARK                            x       y       z     vdW  Elec       q    Type
REMARK                         _______ _______ _______ _____ _____    ______ ____
ROOT
ATOM      1  O   UNL     1     -12.808  14.018  64.667  0.00  0.00    -0.224 OA
ATOM      2  C   UNL     1     -12.478  13.575  65.802  0.00  0.00    +0.427 C 
ATOM      3  O   UNL     1     -12.239  14.418  66.872  0.00  0.00    -0.416 OA
ATOM      4  C   UNL     1     -11.273  14.157  67.868  0.00  0.00    +0.297 C 
ATOM      5  C   UNL     1     -10.541  12.899  67.619  0.00  0.00    +0.050 A 
ATOM      6  C   UNL     1     -11.208  11.868  66.991  0.00  0.00    +0.077 A 
ATOM      7  C   UNL     1     -10.749  10.571  67.116  0.00  0.00    +0.017 A 
ATOM      8  C   UNL     1      -9.605  10.314  67.844  0.00  0.00    +0.013 A 
ATOM      9  C   UNL     1      -8.751  11.369  68.115  0.00  0.00    +0.058 A 
ATOM     10 CL   UNL     1      -7.228  11.071  68.905  0.00  0.00    -0.082 Cl
ATOM     11  C   UNL     1      -9.275  12.638  68.086  0.00  0.00    +0.013 A 
ATOM     12  N   UNL     1     -12.182  12.196  65.992  0.00  0.00    -0.143 NA
ENDROOT
BRANCH   4  13
ATOM     13  C   UNL     1     -10.351  15.366  67.892  0.00  0.00    +0.446 C 
ATOM     14  F   UNL     1      -9.565  15.410  69.012  0.00  0.00    -0.165 F 
ATOM     15  F   UNL     1     -11.173  16.479  67.929  0.00  0.00    -0.165 F 
ATOM     16  F   UNL     1      -9.645  15.422  66.716  0.00  0.00    -0.165 F 
ENDBRANCH   4  13
BRANCH   4  17
ATOM     17  C   UNL     1     -11.986  14.098  69.155  0.00  0.00    -0.040 C 
ATOM     18  C   UNL     1     -12.530  14.148  70.224  0.00  0.00    -0.088 C 
BRANCH  18  19
ATOM     19  C   UNL     1     -12.886  14.654  71.561  0.00  0.00    +0.064 C 
ATOM     20  C   UNL     1     -13.722  13.710  72.353  0.00  0.00    +0.014 C 
ATOM     21  C   UNL     1     -14.404  14.868  71.741  0.00  0.00    +0.014 C 
ENDBRANCH  18  19
ENDBRANCH   4  17
TORSDOF 3
ENDMDL
MODEL 2
REMARK VINA RESULT:      -6.2      2.991      5.298
REMARK  Name = 
REMARK  3 active torsions:
REMARK  status: ('A' for Active; 'I' for Inactive)
REMARK    1  A    between atoms: C_11  and  C_12
REMARK    2  A    between atoms: C_11  and  C_17
REMARK    3  A    between atoms: C_13  and  C_14
REMARK                            x       y       z     vdW  Elec       q    Type
REMARK                         _______ _______ _______ _____ _____    ______ ____
ROOT
ATOM      1  O   UNL     1     -11.223  16.933  64.252  0.00  0.00    -0.224 OA
ATOM      2  C   UNL     1     -10.773  16.281  65.235  0.00  0.00    +0.427 C 
ATOM      3  O   UNL     1     -10.654  14.904  65.203  0.00  0.00    -0.416 OA
ATOM      4  C   UNL     1     -10.840  14.080  66.335  0.00  0.00    +0.297 C 
ATOM      5  C   UNL     1     -11.194  14.859  67.539  0.00  0.00    +0.050 A 
ATOM      6  C   UNL     1     -10.684  16.133  67.666  0.00  0.00    +0.077 A 
ATOM      7  C   UNL     1     -10.614  16.728  68.911  0.00  0.00    +0.017 A 
ATOM      8  C   UNL     1     -11.083  16.056  70.021  0.00  0.00    +0.013 A 
ATOM      9  C   UNL     1     -11.935  14.983  69.825  0.00  0.00    +0.058 A 
ATOM     10 CL   UNL     1     -12.665  14.195  71.195  0.00  0.00    -0.082 Cl
ATOM     11  C   UNL     1     -11.895  14.352  68.607  0.00  0.00    +0.013 A 
ATOM     12  N   UNL     1     -10.514  16.919  66.480  0.00  0.00    -0.143 NA
ENDROOT
BRANCH   4  13
ATOM     13  C   UNL     1     -11.919  13.078  65.958  0.00  0.00    +0.446 C 
ATOM     14  F   UNL     1     -11.989  12.023  66.828  0.00  0.00    -0.165 F 
ATOM     15  F   UNL     1     -11.557  12.564  64.725  0.00  0.00    -0.165 F 
ATOM     16  F   UNL     1     -13.112  13.737  65.789  0.00  0.00    -0.165 F 
ENDBRANCH   4  13
BRANCH   4  17
ATOM     17  C   UNL     1      -9.582  13.344  66.544  0.00  0.00    -0.040 C 
ATOM     18  C   UNL     1      -8.597  12.710  66.807  0.00  0.00    -0.088 C 
BRANCH  18  19
ATOM     19  C   UNL     1      -7.655  11.905  67.603  0.00  0.00    +0.064 C 
ATOM     20  C   UNL     1      -6.233  12.317  67.441  0.00  0.00    +0.014 C 
ATOM     21  C   UNL     1      -6.668  11.095  66.734  0.00  0.00    +0.014 C 
ENDBRANCH  18  19
ENDBRANCH   4  17
TORSDOF 3
ENDMDL
MODEL 3
REMARK VINA RESULT:      -6.0      3.413      5.827
REMARK  Name = 
REMARK  3 active torsions:
REMARK  status: ('A' for Active; 'I' for Inactive)
REMARK    1  A    between atoms: C_11  and  C_12
REMARK    2  A    between atoms: C_11  and  C_17
REMARK    3  A    between atoms: C_13  and  C_14
REMARK                            x       y       z     vdW  Elec       q    Type
REMARK                         _______ _______ _______ _____ _____    ______ ____
ROOT
ATOM      1  O   UNL     1      -9.729  16.686  65.562  0.00  0.00    -0.224 OA
ATOM      2  C   UNL     1      -9.661  15.426  65.577  0.00  0.00    +0.427 C 
ATOM      3  O   UNL     1     -10.404  14.645  64.711  0.00  0.00    -0.416 OA
ATOM      4  C   UNL     1     -10.925  13.379  65.056  0.00  0.00    +0.297 C 
ATOM      5  C   UNL     1     -10.601  13.004  66.447  0.00  0.00    +0.050 A 
ATOM      6  C   UNL     1      -9.414  13.452  66.985  0.00  0.00    +0.077 A 
ATOM      7  C   UNL     1      -8.862  12.806  68.075  0.00  0.00    +0.017 A 
ATOM      8  C   UNL     1      -9.518  11.732  68.641  0.00  0.00    +0.013 A 
ATOM      9  C   UNL     1     -10.861  11.558  68.353  0.00  0.00    +0.058 A 
ATOM     10 CL   UNL     1     -11.763  10.304  69.155  0.00  0.00    -0.082 Cl
ATOM     11  C   UNL     1     -11.344  12.128  67.202  0.00  0.00    +0.013 A 
ATOM     12  N   UNL     1      -8.934  14.744  66.592  0.00  0.00    -0.143 NA
ENDROOT
BRANCH   4  13
ATOM     13  C   UNL     1     -12.424  13.457  64.813  0.00  0.00    +0.446 C 
ATOM     14  F   UNL     1     -12.995  12.226  64.632  0.00  0.00    -0.165 F 
ATOM     15  F   UNL     1     -12.590  14.158  63.631  0.00  0.00    -0.165 F 
ATOM     16  F   UNL     1     -13.008  14.199  65.810  0.00  0.00    -0.165 F 
ENDBRANCH   4  13
BRANCH   4  17
ATOM     17  C   UNL     1     -10.356  12.406  64.108  0.00  0.00    -0.040 C 
ATOM     18  C   UNL     1      -9.832  11.578  63.416  0.00  0.00    -0.088 C 
BRANCH  18  19
ATOM     19  C   UNL     1      -8.876  10.531  63.012  0.00  0.00    +0.064 C 
ATOM     20  C   UNL     1      -8.208  10.805  61.709  0.00  0.00    +0.014 C 
ATOM     21  C   UNL     1      -9.292   9.802  61.717  0.00  0.00    +0.014 C 
ENDBRANCH  18  19
ENDBRANCH   4  17
TORSDOF 3
ENDMDL
MODEL 4
REMARK VINA RESULT:      -5.9      2.897      3.635
REMARK  Name = 
REMARK  3 active torsions:
REMARK  status: ('A' for Active; 'I' for Inactive)
REMARK    1  A    between atoms: C_11  and  C_12
REMARK    2  A    between atoms: C_11  and  C_17
REMARK    3  A    between atoms: C_13  and  C_14
REMARK                            x       y       z     vdW  Elec       q    Type
REMARK                         _______ _______ _______ _____ _____    ______ ____
ROOT
ATOM      1  O   UNL     1      -8.756  18.283  66.012  0.00  0.00    -0.224 OA
ATOM      2  C   UNL     1      -9.530  17.332  66.312  0.00  0.00    +0.427 C 
ATOM      3  O   UNL     1      -9.370  16.601  67.475  0.00  0.00    -0.416 OA
ATOM      4  C   UNL     1      -9.661  15.223  67.575  0.00  0.00    +0.297 C 
ATOM      5  C   UNL     1     -10.131  14.659  66.294  0.00  0.00    +0.050 A 
ATOM      6  C   UNL     1     -10.847  15.474  65.444  0.00  0.00    +0.077 A 
ATOM      7  C   UNL     1     -11.660  14.917  64.476  0.00  0.00    +0.017 A 
ATOM      8  C   UNL     1     -11.730  13.546  64.342  0.00  0.00    +0.013 A 
ATOM      9  C   UNL     1     -10.727  12.781  64.913  0.00  0.00    +0.058 A 
ATOM     10 CL   UNL     1     -10.694  11.060  64.649  0.00  0.00    -0.082 Cl
ATOM     11  C   UNL     1     -10.014  13.334  65.946  0.00  0.00    +0.013 A 
ATOM     12  N   UNL     1     -10.508  16.865  65.390  0.00  0.00    -0.143 NA
ENDROOT
BRANCH   4  13
ATOM     13  C   UNL     1      -8.387  14.555  68.068  0.00  0.00    +0.446 C 
ATOM     14  F   UNL     1      -8.600  13.284  68.530  0.00  0.00    -0.165 F 
ATOM     15  F   UNL     1      -7.945  15.308  69.143  0.00  0.00    -0.165 F 
ATOM     16  F   UNL     1      -7.425  14.637  67.092  0.00  0.00    -0.165 F 
ENDBRANCH   4  13
BRANCH   4  17
ATOM     17  C   UNL     1     -10.690  15.074  68.618  0.00  0.00    -0.040 C 
ATOM     18  C   UNL     1     -11.540  15.059  69.465  0.00  0.00    -0.088 C 
BRANCH  18  19
ATOM     19  C   UNL     1     -12.487  15.575  70.469  0.00  0.00    +0.064 C 
ATOM     20  C   UNL     1     -11.835  16.020  71.732  0.00  0.00    +0.014 C 
ATOM     21  C   UNL     1     -12.532  14.718  71.753  0.00  0.00    +0.014 C 
ENDBRANCH  18  19
ENDBRANCH   4  17
TORSDOF 3
ENDMDL
MODEL 5
REMARK VINA RESULT:      -5.9      3.647      4.716
REMARK  Name = 
REMARK  3 active torsions:
REMARK  status: ('A' for Active; 'I' for Inactive)
REMARK    1  A    between atoms: C_11  and  C_12
REMARK    2  A    between atoms: C_11  and  C_17
REMARK    3  A    between atoms: C_13  and  C_14
REMARK                            x       y       z     vdW  Elec       q    Type
REMARK                         _______ _______ _______ _____ _____    ______ ____
ROOT
ATOM      1  O   UNL     1     -12.259  11.077  68.499  0.00  0.00    -0.224 OA
ATOM      2  C   UNL     1     -11.404  11.546  67.698  0.00  0.00    +0.427 C 
ATOM      3  O   UNL     1     -11.629  12.714  66.993  0.00  0.00    -0.416 OA
ATOM      4  C   UNL     1     -11.148  12.939  65.684  0.00  0.00    +0.297 C 
ATOM      5  C   UNL     1     -10.402  11.779  65.158  0.00  0.00    +0.050 A 
ATOM      6  C   UNL     1      -9.697  10.997  66.047  0.00  0.00    +0.077 A 
ATOM      7  C   UNL     1      -8.666  10.196  65.595  0.00  0.00    +0.017 A 
ATOM      8  C   UNL     1      -8.365  10.157  64.249  0.00  0.00    +0.013 A 
ATOM      9  C   UNL     1      -9.314  10.617  63.353  0.00  0.00    +0.058 A 
ATOM     10 CL   UNL     1      -9.040  10.456  61.641  0.00  0.00    -0.082 Cl
ATOM     11  C   UNL     1     -10.258  11.498  63.820  0.00  0.00    +0.013 A 
ATOM     12  N   UNL     1     -10.233  10.810  67.363  0.00  0.00    -0.143 NA
ENDROOT
BRANCH   4  13
ATOM     13  C   UNL     1     -12.365  13.276  64.837  0.00  0.00    +0.446 C 
ATOM     14  F   UNL     1     -12.042  13.954  63.693  0.00  0.00    -0.165 F 
ATOM     15  F   UNL     1     -13.148  14.123  65.603  0.00  0.00    -0.165 F 
ATOM     16  F   UNL     1     -13.097  12.135  64.619  0.00  0.00    -0.165 F 
ENDBRANCH   4  13
BRANCH   4  17
ATOM     17  C   UNL     1     -10.285  14.131  65.741  0.00  0.00    -0.040 C 
ATOM     18  C   UNL     1      -9.635  15.131  65.875  0.00  0.00    -0.088 C 
BRANCH  18  19
ATOM     19  C   UNL     1      -9.230  16.444  66.406  0.00  0.00    +0.064 C 
ATOM     20  C   UNL     1     -10.106  16.939  67.504  0.00  0.00    +0.014 C 
ATOM     21  C   UNL     1     -10.288  17.543  66.168  0.00  0.00    +0.014 C 
ENDBRANCH  18  19
ENDBRANCH   4  17
TORSDOF 3
ENDMDL
MODEL 6
REMARK VINA RESULT:      -5.9      1.840      2.113
REMARK  Name = 
REMARK  3 active torsions:
REMARK  status: ('A' for Active; 'I' for Inactive)
REMARK    1  A    between atoms: C_11  and  C_12
REMARK    2  A    between atoms: C_11  and  C_17
REMARK    3  A    between atoms: C_13  and  C_14
REMARK                            x       y       z     vdW  Elec       q    Type
REMARK                         _______ _______ _______ _____ _____    ______ ____
ROOT
ATOM      1  O   UNL     1     -11.313  16.687  64.101  0.00  0.00    -0.224 OA
ATOM      2  C   UNL     1     -11.311  15.873  65.065  0.00  0.00    +0.427 C 
ATOM      3  O   UNL     1     -10.721  16.179  66.277  0.00  0.00    -0.416 OA
ATOM      4  C   UNL     1     -10.076  15.223  67.092  0.00  0.00    +0.297 C 
ATOM      5  C   UNL     1     -10.091  13.875  66.489  0.00  0.00    +0.050 A 
ATOM      6  C   UNL     1     -11.165  13.525  65.700  0.00  0.00    +0.077 A 
ATOM      7  C   UNL     1     -11.450  12.192  65.475  0.00  0.00    +0.017 A 
ATOM      8  C   UNL     1     -10.639  11.215  66.015  0.00  0.00    +0.013 A 
ATOM      9  C   UNL     1      -9.376  11.578  66.448  0.00  0.00    +0.058 A 
ATOM     10 CL   UNL     1      -8.266  10.357  67.004  0.00  0.00    -0.082 Cl
ATOM     11  C   UNL     1      -9.166  12.897  66.765  0.00  0.00    +0.013 A 
ATOM     12  N   UNL     1     -11.781  14.540  64.899  0.00  0.00    -0.143 NA
ENDROOT
BRANCH   4  13
ATOM     13  C   UNL     1      -8.663  15.740  67.317  0.00  0.00    +0.446 C 
ATOM     14  F   UNL     1      -8.028  15.112  68.354  0.00  0.00    -0.165 F 
ATOM     15  F   UNL     1      -8.789  17.074  67.665  0.00  0.00    -0.165 F 
ATOM     16  F   UNL     1      -7.970  15.694  66.132  0.00  0.00    -0.165 F 
ENDBRANCH   4  13
BRANCH   4  17
ATOM     17  C   UNL     1     -10.774  15.221  68.389  0.00  0.00    -0.040 C 
ATOM     18  C   UNL     1     -11.323  15.323  69.451  0.00  0.00    -0.088 C 
BRANCH  18  19
ATOM     19  C   UNL     1     -11.759  15.937  70.717  0.00  0.00    +0.064 C 
ATOM     20  C   UNL     1     -12.005  14.950  71.806  0.00  0.00    +0.014 C 
ATOM     21  C   UNL     1     -13.188  15.521  71.129  0.00  0.00    +0.014 C 
ENDBRANCH  18  19
ENDBRANCH   4  17
TORSDOF 3
ENDMDL
MODEL 7
REMARK VINA RESULT:      -5.8      3.065      4.373
REMARK  Name = 
REMARK  3 active torsions:
REMARK  status: ('A' for Active; 'I' for Inactive)
REMARK    1  A    between atoms: C_11  and  C_12
REMARK    2  A    between atoms: C_11  and  C_17
REMARK    3  A    between atoms: C_13  and  C_14
REMARK                            x       y       z     vdW  Elec       q    Type
REMARK                         _______ _______ _______ _____ _____    ______ ____
ROOT
ATOM      1  O   UNL     1      -7.863  11.928  67.703  0.00  0.00    -0.224 OA
ATOM      2  C   UNL     1      -8.595  12.841  68.175  0.00  0.00    +0.427 C 
ATOM      3  O   UNL     1      -9.975  12.773  68.116  0.00  0.00    -0.416 OA
ATOM      4  C   UNL     1     -10.805  13.904  67.956  0.00  0.00    +0.297 C 
ATOM      5  C   UNL     1     -10.027  15.154  67.838  0.00  0.00    +0.050 A 
ATOM      6  C   UNL     1      -8.829  15.244  68.514  0.00  0.00    +0.077 A 
ATOM      7  C   UNL     1      -8.287  16.483  68.796  0.00  0.00    +0.017 A 
ATOM      8  C   UNL     1      -8.931  17.627  68.373  0.00  0.00    +0.013 A 
ATOM      9  C   UNL     1      -9.885  17.511  67.377  0.00  0.00    +0.058 A 
ATOM     10 CL   UNL     1     -10.621  18.942  66.711  0.00  0.00    -0.082 Cl
ATOM     11  C   UNL     1     -10.478  16.285  67.202  0.00  0.00    +0.013 A 
ATOM     12  N   UNL     1      -8.033  14.060  68.649  0.00  0.00    -0.143 NA
ENDROOT
BRANCH   4  13
ATOM     13  C   UNL     1     -11.656  13.635  66.725  0.00  0.00    +0.446 C 
ATOM     14  F   UNL     1     -12.786  14.406  66.684  0.00  0.00    -0.165 F 
ATOM     15  F   UNL     1     -12.067  12.317  66.817  0.00  0.00    -0.165 F 
ATOM     16  F   UNL     1     -10.873  13.738  65.601  0.00  0.00    -0.165 F 
ENDBRANCH   4  13
BRANCH   4  17
ATOM     17  C   UNL     1     -11.696  13.955  69.127  0.00  0.00    -0.040 C 
ATOM     18  C   UNL     1     -12.340  14.035  70.137  0.00  0.00    -0.088 C 
BRANCH  18  19
ATOM     19  C   UNL     1     -12.631  14.240  71.567  0.00  0.00    +0.064 C 
ATOM     20  C   UNL     1     -13.542  13.211  72.143  0.00  0.00    +0.014 C 
ATOM     21  C   UNL     1     -14.121  14.536  71.843  0.00  0.00    +0.014 C 
ENDBRANCH  18  19
ENDBRANCH   4  17
TORSDOF 3
ENDMDL
MODEL 8
REMARK VINA RESULT:      -5.8      3.215      3.966
REMARK  Name = 
REMARK  3 active torsions:
REMARK  status: ('A' for Active; 'I' for Inactive)
REMARK    1  A    between atoms: C_11  and  C_12
REMARK    2  A    between atoms: C_11  and  C_17
REMARK    3  A    between atoms: C_13  and  C_14
REMARK                            x       y       z     vdW  Elec       q    Type
REMARK                         _______ _______ _______ _____ _____    ______ ____
ROOT
ATOM      1  O   UNL     1      -8.529  19.370  66.213  0.00  0.00    -0.224 OA
ATOM      2  C   UNL     1      -9.232  18.390  66.586  0.00  0.00    +0.427 C 
ATOM      3  O   UNL     1      -9.061  17.800  67.825  0.00  0.00    -0.416 OA
ATOM      4  C   UNL     1      -9.239  16.419  68.060  0.00  0.00    +0.297 C 
ATOM      5  C   UNL     1      -9.604  15.686  66.830  0.00  0.00    +0.050 A 
ATOM      6  C   UNL     1     -10.349  16.344  65.875  0.00  0.00    +0.077 A 
ATOM      7  C   UNL     1     -11.070  15.621  64.944  0.00  0.00    +0.017 A 
ATOM      8  C   UNL     1     -11.017  14.242  64.954  0.00  0.00    +0.013 A 
ATOM      9  C   UNL     1      -9.979  13.631  65.636  0.00  0.00    +0.058 A 
ATOM     10 CL   UNL     1      -9.790  11.902  65.558  0.00  0.00    -0.082 Cl
ATOM     11  C   UNL     1      -9.360  14.349  66.629  0.00  0.00    +0.013 A 
ATOM     12  N   UNL     1     -10.127  17.747  65.686  0.00  0.00    -0.143 NA
ENDROOT
BRANCH   4  13
ATOM     13  C   UNL     1      -7.935  15.920  68.664  0.00  0.00    +0.446 C 
ATOM     14  F   UNL     1      -8.109  14.827  69.468  0.00  0.00    -0.165 F 
ATOM     15  F   UNL     1      -7.463  16.944  69.467  0.00  0.00    -0.165 F 
ATOM     16  F   UNL     1      -7.014  15.732  67.663  0.00  0.00    -0.165 F 
ENDBRANCH   4  13
BRANCH   4  17
ATOM     17  C   UNL     1     -10.296  16.287  69.077  0.00  0.00    -0.040 C 
ATOM     18  C   UNL     1     -11.085  16.130  69.967  0.00  0.00    -0.088 C 
BRANCH  18  19
ATOM     19  C   UNL     1     -11.639  15.634  71.239  0.00  0.00    +0.064 C 
ATOM     20  C   UNL     1     -12.277  14.292  71.128  0.00  0.00    +0.014 C 
ATOM     21  C   UNL     1     -13.173  15.463  71.203  0.00  0.00    +0.014 C 
ENDBRANCH  18  19
ENDBRANCH   4  17
TORSDOF 3
ENDMDL
MODEL 9
REMARK VINA RESULT:      -5.6      3.137      4.820
REMARK  Name = 
REMARK  3 active torsions:
REMARK  status: ('A' for Active; 'I' for Inactive)
REMARK    1  A    between atoms: C_11  and  C_12
REMARK    2  A    between atoms: C_11  and  C_17
REMARK    3  A    between atoms: C_13  and  C_14
REMARK                            x       y       z     vdW  Elec       q    Type
REMARK                         _______ _______ _______ _____ _____    ______ ____
ROOT
ATOM      1  O   UNL     1     -10.843  19.525  67.811  0.00  0.00    -0.224 OA
ATOM      2  C   UNL     1     -10.497  18.335  67.571  0.00  0.00    +0.427 C 
ATOM      3  O   UNL     1     -11.276  17.258  67.953  0.00  0.00    -0.416 OA
ATOM      4  C   UNL     1     -10.742  16.016  68.361  0.00  0.00    +0.297 C 
ATOM      5  C   UNL     1      -9.265  16.014  68.350  0.00  0.00    +0.050 A 
ATOM      6  C   UNL     1      -8.617  16.791  67.414  0.00  0.00    +0.077 A 
ATOM      7  C   UNL     1      -7.309  16.511  67.071  0.00  0.00    +0.017 A 
ATOM      8  C   UNL     1      -6.643  15.473  67.690  0.00  0.00    +0.013 A 
ATOM      9  C   UNL     1      -7.157  14.981  68.877  0.00  0.00    +0.058 A 
ATOM     10 CL   UNL     1      -6.276  13.772  69.768  0.00  0.00    -0.082 Cl
ATOM     11  C   UNL     1      -8.490  15.189  69.129  0.00  0.00    +0.013 A 
ATOM     12  N   UNL     1      -9.212  18.039  67.037  0.00  0.00    -0.143 NA
ENDROOT
BRANCH   4  13
ATOM     13  C   UNL     1     -11.310  15.743  69.744  0.00  0.00    +0.446 C 
ATOM     14  F   UNL     1     -11.070  14.466  70.173  0.00  0.00    -0.165 F 
ATOM     15  F   UNL     1     -12.683  15.882  69.634  0.00  0.00    -0.165 F 
ATOM     16  F   UNL     1     -10.873  16.712  70.614  0.00  0.00    -0.165 F 
ENDBRANCH   4  13
BRANCH   4  17
ATOM     17  C   UNL     1     -11.270  14.996  67.439  0.00  0.00    -0.040 C 
ATOM     18  C   UNL     1     -11.681  14.093  66.764  0.00  0.00    -0.088 C 
BRANCH  18  19
ATOM     19  C   UNL     1     -11.967  12.708  66.350  0.00  0.00    +0.064 C 
ATOM     20  C   UNL     1     -11.067  12.210  65.272  0.00  0.00    +0.014 C 
ATOM     21  C   UNL     1     -12.438  12.601  64.883  0.00  0.00    +0.014 C 
ENDBRANCH  18  19
ENDBRANCH   4  17
TORSDOF 3
ENDMDL
