MODEL 1
REMARK VINA RESULT:      -6.8      0.000      0.000
REMARK  Name = 
REMARK  7 active torsions:
REMARK  status: ('A' for Active; 'I' for Inactive)
REMARK    1  A    between atoms: N_2  and  C_3
REMARK    2  A    between atoms: C_3  and  C_4
REMARK    3  A    between atoms: C_4  and  C_5
REMARK    4  A    between atoms: C_5  and  O_6
REMARK    5  A    between atoms: C_5  and  C_17
REMARK    6  A    between atoms: O_6  and  C_7
REMARK    7  A    between atoms: C_10  and  C_11
REMARK                            x       y       z     vdW  Elec       q    Type
REMARK                         _______ _______ _______ _____ _____    ______ ____
ROOT
ATOM      1  C   UNL     1     -11.381  14.880  66.353  0.00  0.00    +0.190 C 
ENDROOT
BRANCH   1   2
ATOM      2  C   UNL     1     -11.579  13.425  65.598  0.00  0.00    +0.017 A 
ATOM      3  C   UNL     1     -12.044  13.652  64.303  0.00  0.00    -0.001 A 
ATOM      4  C   UNL     1     -12.145  12.523  63.499  0.00  0.00    -0.000 A 
ATOM      5  C   UNL     1     -11.224  11.517  63.680  0.00  0.00    -0.000 A 
ATOM      6  C   UNL     1     -10.492  11.501  64.857  0.00  0.00    -0.000 A 
ATOM      7  C   UNL     1     -10.422  12.660  65.622  0.00  0.00    -0.001 A 
ENDBRANCH   1   2
BRANCH   1   8
ATOM      8  C   UNL     1      -9.859  15.112  65.669  0.00  0.00    +0.067 C 
BRANCH   8   9
ATOM      9  C   UNL     1      -9.472  16.446  66.303  0.00  0.00    +0.093 C 
BRANCH   9  11
ATOM     10  C   UNL     1     -10.390  18.615  66.531  0.00  0.00    +0.107 C 
ATOM     11  N   UNL     1     -10.154  17.561  65.675  0.00  0.00    -0.216 NA
ENDBRANCH   9  11
ENDBRANCH   8   9
ENDBRANCH   1   8
BRANCH   1  12
ATOM     12  O   UNL     1     -10.742  14.179  67.607  0.00  0.00    -0.475 OA
BRANCH  12  13
ATOM     13  C   UNL     1     -11.513  14.287  68.747  0.00  0.00    +0.139 A 
ATOM     14  C   UNL     1     -11.822  15.510  69.266  0.00  0.00    +0.037 A 
ATOM     15  C   UNL     1     -12.474  15.576  70.460  0.00  0.00    +0.007 A 
ATOM     16  C   UNL     1     -12.803  14.444  71.145  0.00  0.00    +0.072 A 
ATOM     17  C   UNL     1     -12.385  13.224  70.695  0.00  0.00    +0.007 A 
ATOM     18  C   UNL     1     -11.790  13.131  69.450  0.00  0.00    +0.037 A 
BRANCH  16  19
ATOM     19  C   UNL     1     -13.578  14.550  72.393  0.00  0.00    +0.419 C 
ATOM     20  F   UNL     1     -14.368  13.412  72.473  0.00  0.00    -0.166 F 
ATOM     21  F   UNL     1     -12.811  14.592  73.523  0.00  0.00    -0.166 F 
ATOM     22  F   UNL     1     -14.437  15.635  72.351  0.00  0.00    -0.166 F 
ENDBRANCH  16  19
ENDBRANCH  12  13
ENDBRANCH   1  12
TORSDOF 7
ENDMDL
MODEL 2
REMARK VINA RESULT:      -6.6      3.981      6.419
REMARK  Name = 
REMARK  7 active torsions:
REMARK  status: ('A' for Active; 'I' for Inactive)
REMARK    1  A    between atoms: N_2  and  C_3
REMARK    2  A    between atoms: C_3  and  C_4
REMARK    3  A    between atoms: C_4  and  C_5
REMARK    4  A    between atoms: C_5  and  O_6
REMARK    5  A    between atoms: C_5  and  C_17
REMARK    6  A    between atoms: O_6  and  C_7
REMARK    7  A    between atoms: C_10  and  C_11
REMARK                            x       y       z     vdW  Elec       q    Type
REMARK                         _______ _______ _______ _____ _____    ______ ____
ROOT
ATOM      1  C   UNL     1     -10.961  14.607  69.461  0.00  0.00    +0.190 C 
ENDROOT
BRANCH   1   2
ATOM      2  C   UNL     1     -11.905  14.453  70.807  0.00  0.00    +0.017 A 
ATOM      3  C   UNL     1     -12.901  15.428  70.769  0.00  0.00    -0.001 A 
ATOM      4  C   UNL     1     -13.851  15.349  71.780  0.00  0.00    -0.000 A 
ATOM      5  C   UNL     1     -14.195  14.101  72.246  0.00  0.00    -0.000 A 
ATOM      6  C   UNL     1     -13.349  13.039  71.967  0.00  0.00    -0.000 A 
ATOM      7  C   UNL     1     -12.417  13.171  70.944  0.00  0.00    -0.001 A 
ENDBRANCH   1   2
BRANCH   1   8
ATOM      8  C   UNL     1     -11.132  16.282  69.442  0.00  0.00    +0.067 C 
BRANCH   8   9
ATOM      9  C   UNL     1      -9.913  16.675  68.611  0.00  0.00    +0.093 C 
BRANCH   9  11
ATOM     10  C   UNL     1     -10.540  18.603  67.390  0.00  0.00    +0.107 C 
ATOM     11  N   UNL     1     -10.292  17.249  67.334  0.00  0.00    -0.216 NA
ENDBRANCH   9  11
ENDBRANCH   8   9
ENDBRANCH   1   8
BRANCH   1  12
ATOM     12  O   UNL     1     -12.213  14.440  68.525  0.00  0.00    -0.475 OA
BRANCH  12  13
ATOM     13  C   UNL     1     -11.928  13.788  67.341  0.00  0.00    +0.139 A 
ATOM     14  C   UNL     1     -12.297  14.327  66.143  0.00  0.00    +0.037 A 
ATOM     15  C   UNL     1     -12.116  13.598  65.007  0.00  0.00    +0.007 A 
ATOM     16  C   UNL     1     -11.591  12.340  65.054  0.00  0.00    +0.072 A 
ATOM     17  C   UNL     1     -11.339  11.747  66.259  0.00  0.00    +0.007 A 
ATOM     18  C   UNL     1     -11.445  12.497  67.416  0.00  0.00    +0.037 A 
BRANCH  16  19
ATOM     19  C   UNL     1     -11.335  11.613  63.799  0.00  0.00    +0.419 C 
ATOM     20  F   UNL     1     -10.542  12.437  63.013  0.00  0.00    -0.166 F 
ATOM     21  F   UNL     1     -10.659  10.438  63.965  0.00  0.00    -0.166 F 
ATOM     22  F   UNL     1     -12.511  11.400  63.101  0.00  0.00    -0.166 F 
ENDBRANCH  16  19
ENDBRANCH  12  13
ENDBRANCH   1  12
TORSDOF 7
ENDMDL
MODEL 3
REMARK VINA RESULT:      -6.3      4.504      7.104
REMARK  Name = 
REMARK  7 active torsions:
REMARK  status: ('A' for Active; 'I' for Inactive)
REMARK    1  A    between atoms: N_2  and  C_3
REMARK    2  A    between atoms: C_3  and  C_4
REMARK    3  A    between atoms: C_4  and  C_5
REMARK    4  A    between atoms: C_5  and  O_6
REMARK    5  A    between atoms: C_5  and  C_17
REMARK    6  A    between atoms: O_6  and  C_7
REMARK    7  A    between atoms: C_10  and  C_11
REMARK                            x       y       z     vdW  Elec       q    Type
REMARK                         _______ _______ _______ _____ _____    ______ ____
ROOT
ATOM      1  C   UNL     1     -12.205  14.794  69.182  0.00  0.00    +0.190 C 
ENDROOT
BRANCH   1   2
ATOM      2  C   UNL     1     -12.502  15.443  70.671  0.00  0.00    +0.017 A 
ATOM      3  C   UNL     1     -13.796  15.097  71.060  0.00  0.00    -0.001 A 
ATOM      4  C   UNL     1     -14.150  15.472  72.351  0.00  0.00    -0.000 A 
ATOM      5  C   UNL     1     -13.169  15.470  73.316  0.00  0.00    -0.000 A 
ATOM      6  C   UNL     1     -11.845  15.457  72.906  0.00  0.00    -0.000 A 
ATOM      7  C   UNL     1     -11.546  15.071  71.604  0.00  0.00    -0.001 A 
ENDBRANCH   1   2
BRANCH   1   8
ATOM      8  C   UNL     1     -11.857  13.279  69.829  0.00  0.00    +0.067 C 
BRANCH   8   9
ATOM      9  C   UNL     1     -11.688  12.463  68.550  0.00  0.00    +0.093 C 
BRANCH   9  11
ATOM     10  C   UNL     1     -12.066  10.660  70.034  0.00  0.00    +0.107 C 
ATOM     11  N   UNL     1     -12.114  11.088  68.725  0.00  0.00    -0.216 NA
ENDBRANCH   9  11
ENDBRANCH   8   9
ENDBRANCH   1   8
BRANCH   1  12
ATOM     12  O   UNL     1     -10.691  15.210  69.267  0.00  0.00    -0.475 OA
BRANCH  12  13
ATOM     13  C   UNL     1     -10.392  16.341  68.534  0.00  0.00    +0.139 A 
ATOM     14  C   UNL     1     -10.175  17.537  69.154  0.00  0.00    +0.037 A 
ATOM     15  C   UNL     1     -10.010  18.655  68.395  0.00  0.00    +0.007 A 
ATOM     16  C   UNL     1     -10.077  18.598  67.034  0.00  0.00    +0.072 A 
ATOM     17  C   UNL     1     -10.419  17.430  66.413  0.00  0.00    +0.007 A 
ATOM     18  C   UNL     1     -10.515  16.271  67.160  0.00  0.00    +0.037 A 
BRANCH  16  19
ATOM     19  C   UNL     1      -9.814  19.812  66.243  0.00  0.00    +0.419 C 
ATOM     20  F   UNL     1      -9.929  20.889  67.111  0.00  0.00    -0.166 F 
ATOM     21  F   UNL     1      -8.562  19.861  65.698  0.00  0.00    -0.166 F 
ATOM     22  F   UNL     1     -10.776  19.981  65.262  0.00  0.00    -0.166 F 
ENDBRANCH  16  19
ENDBRANCH  12  13
ENDBRANCH   1  12
TORSDOF 7
ENDMDL
MODEL 4
REMARK VINA RESULT:      -6.3      1.713      4.328
REMARK  Name = 
REMARK  7 active torsions:
REMARK  status: ('A' for Active; 'I' for Inactive)
REMARK    1  A    between atoms: N_2  and  C_3
REMARK    2  A    between atoms: C_3  and  C_4
REMARK    3  A    between atoms: C_4  and  C_5
REMARK    4  A    between atoms: C_5  and  O_6
REMARK    5  A    between atoms: C_5  and  C_17
REMARK    6  A    between atoms: O_6  and  C_7
REMARK    7  A    between atoms: C_10  and  C_11
REMARK                            x       y       z     vdW  Elec       q    Type
REMARK                         _______ _______ _______ _____ _____    ______ ____
ROOT
ATOM      1  C   UNL     1      -9.170  16.043  68.076  0.00  0.00    +0.190 C 
ENDROOT
BRANCH   1   2
ATOM      2  C   UNL     1      -9.230  17.603  67.538  0.00  0.00    +0.017 A 
ATOM      3  C   UNL     1     -10.188  17.691  66.528  0.00  0.00    -0.001 A 
ATOM      4  C   UNL     1     -10.440  18.974  66.056  0.00  0.00    -0.000 A 
ATOM      5  C   UNL     1     -10.352  20.019  66.946  0.00  0.00    -0.000 A 
ATOM      6  C   UNL     1      -9.680  19.808  68.140  0.00  0.00    -0.000 A 
ATOM      7  C   UNL     1      -9.456  18.504  68.568  0.00  0.00    -0.001 A 
ENDBRANCH   1   2
BRANCH   1   8
ATOM      8  C   UNL     1      -8.945  15.437  66.521  0.00  0.00    +0.067 C 
BRANCH   8   9
ATOM      9  C   UNL     1      -8.836  13.943  66.820  0.00  0.00    +0.093 C 
BRANCH   9  11
ATOM     10  C   UNL     1     -10.402  13.865  65.049  0.00  0.00    +0.107 C 
ATOM     11  N   UNL     1      -9.822  13.172  66.088  0.00  0.00    -0.216 NA
ENDBRANCH   9  11
ENDBRANCH   8   9
ENDBRANCH   1   8
BRANCH   1  12
ATOM     12  O   UNL     1     -10.729  15.901  67.936  0.00  0.00    -0.475 OA
BRANCH  12  13
ATOM     13  C   UNL     1     -11.326  15.313  69.034  0.00  0.00    +0.139 A 
ATOM     14  C   UNL     1     -11.805  14.036  68.967  0.00  0.00    +0.037 A 
ATOM     15  C   UNL     1     -12.500  13.536  70.025  0.00  0.00    +0.007 A 
ATOM     16  C   UNL     1     -12.738  14.293  71.133  0.00  0.00    +0.072 A 
ATOM     17  C   UNL     1     -12.373  15.609  71.156  0.00  0.00    +0.007 A 
ATOM     18  C   UNL     1     -11.601  16.113  70.125  0.00  0.00    +0.037 A 
BRANCH  16  19
ATOM     19  C   UNL     1     -13.424  13.692  72.290  0.00  0.00    +0.419 C 
ATOM     20  F   UNL     1     -14.771  13.999  72.161  0.00  0.00    -0.166 F 
ATOM     21  F   UNL     1     -13.322  12.331  72.351  0.00  0.00    -0.166 F 
ATOM     22  F   UNL     1     -12.992  14.264  73.474  0.00  0.00    -0.166 F 
ENDBRANCH  16  19
ENDBRANCH  12  13
ENDBRANCH   1  12
TORSDOF 7
ENDMDL
MODEL 5
REMARK VINA RESULT:      -6.2      3.818      6.591
REMARK  Name = 
REMARK  7 active torsions:
REMARK  status: ('A' for Active; 'I' for Inactive)
REMARK    1  A    between atoms: N_2  and  C_3
REMARK    2  A    between atoms: C_3  and  C_4
REMARK    3  A    between atoms: C_4  and  C_5
REMARK    4  A    between atoms: C_5  and  O_6
REMARK    5  A    between atoms: C_5  and  C_17
REMARK    6  A    between atoms: O_6  and  C_7
REMARK    7  A    between atoms: C_10  and  C_11
REMARK                            x       y       z     vdW  Elec       q    Type
REMARK                         _______ _______ _______ _____ _____    ______ ____
ROOT
ATOM      1  C   UNL     1     -11.908  14.125  68.687  0.00  0.00    +0.190 C 
ENDROOT
BRANCH   1   2
ATOM      2  C   UNL     1     -12.157  14.209  70.317  0.00  0.00    +0.017 A 
ATOM      3  C   UNL     1     -12.958  15.318  70.590  0.00  0.00    -0.001 A 
ATOM      4  C   UNL     1     -13.355  15.453  71.915  0.00  0.00    -0.000 A 
ATOM      5  C   UNL     1     -13.580  14.308  72.643  0.00  0.00    -0.000 A 
ATOM      6  C   UNL     1     -13.063  13.114  72.163  0.00  0.00    -0.000 A 
ATOM      7  C   UNL     1     -12.683  13.032  70.828  0.00  0.00    -0.001 A 
ENDBRANCH   1   2
BRANCH   1   8
ATOM      8  C   UNL     1     -11.200  12.601  68.799  0.00  0.00    +0.067 C 
BRANCH   8   9
ATOM      9  C   UNL     1     -10.911  12.322  67.325  0.00  0.00    +0.093 C 
BRANCH   9  11
ATOM     10  C   UNL     1     -11.845  12.376  65.152  0.00  0.00    +0.107 C 
ATOM     11  N   UNL     1     -12.095  12.477  66.503  0.00  0.00    -0.216 NA
ENDBRANCH   9  11
ENDBRANCH   8   9
ENDBRANCH   1   8
BRANCH   1  12
ATOM     12  O   UNL     1     -10.505  14.819  68.833  0.00  0.00    -0.475 OA
BRANCH  12  13
ATOM     13  C   UNL     1     -10.431  16.044  68.202  0.00  0.00    +0.139 A 
ATOM     14  C   UNL     1     -10.355  16.125  66.842  0.00  0.00    +0.037 A 
ATOM     15  C   UNL     1     -10.154  17.341  66.263  0.00  0.00    +0.007 A 
ATOM     16  C   UNL     1     -10.012  18.467  67.019  0.00  0.00    +0.072 A 
ATOM     17  C   UNL     1      -9.960  18.375  68.382  0.00  0.00    +0.007 A 
ATOM     18  C   UNL     1     -10.238  17.163  68.988  0.00  0.00    +0.037 A 
BRANCH  16  19
ATOM     19  C   UNL     1      -9.877  19.775  66.356  0.00  0.00    +0.419 C 
ATOM     20  F   UNL     1     -10.862  19.834  65.381  0.00  0.00    -0.166 F 
ATOM     21  F   UNL     1     -10.065  20.842  67.188  0.00  0.00    -0.166 F 
ATOM     22  F   UNL     1      -8.659  19.876  65.706  0.00  0.00    -0.166 F 
ENDBRANCH  16  19
ENDBRANCH  12  13
ENDBRANCH   1  12
TORSDOF 7
ENDMDL
MODEL 6
REMARK VINA RESULT:      -6.2      4.026      6.887
REMARK  Name = 
REMARK  7 active torsions:
REMARK  status: ('A' for Active; 'I' for Inactive)
REMARK    1  A    between atoms: N_2  and  C_3
REMARK    2  A    between atoms: C_3  and  C_4
REMARK    3  A    between atoms: C_4  and  C_5
REMARK    4  A    between atoms: C_5  and  O_6
REMARK    5  A    between atoms: C_5  and  C_17
REMARK    6  A    between atoms: O_6  and  C_7
REMARK    7  A    between atoms: C_10  and  C_11
REMARK                            x       y       z     vdW  Elec       q    Type
REMARK                         _______ _______ _______ _____ _____    ______ ____
ROOT
ATOM      1  C   UNL     1     -11.776  14.969  69.269  0.00  0.00    +0.190 C 
ENDROOT
BRANCH   1   2
ATOM      2  C   UNL     1     -11.904  14.778  70.904  0.00  0.00    +0.017 A 
ATOM      3  C   UNL     1     -11.909  16.038  71.502  0.00  0.00    -0.001 A 
ATOM      4  C   UNL     1     -12.133  16.044  72.874  0.00  0.00    -0.000 A 
ATOM      5  C   UNL     1     -12.969  15.085  73.396  0.00  0.00    -0.000 A 
ATOM      6  C   UNL     1     -13.248  13.967  72.626  0.00  0.00    -0.000 A 
ATOM      7  C   UNL     1     -13.006  14.014  71.257  0.00  0.00    -0.001 A 
ENDBRANCH   1   2
BRANCH   1   8
ATOM      8  C   UNL     1     -11.549  13.319  69.018  0.00  0.00    +0.067 C 
BRANCH   8   9
ATOM      9  C   UNL     1     -11.300  13.300  67.512  0.00  0.00    +0.093 C 
BRANCH   9  11
ATOM     10  C   UNL     1     -12.574  13.744  65.568  0.00  0.00    +0.107 C 
ATOM     11  N   UNL     1     -12.184  14.207  66.806  0.00  0.00    -0.216 NA
ENDBRANCH   9  11
ENDBRANCH   8   9
ENDBRANCH   1   8
BRANCH   1  12
ATOM     12  O   UNL     1     -10.224  15.194  69.384  0.00  0.00    -0.475 OA
BRANCH  12  13
ATOM     13  C   UNL     1      -9.790  16.349  68.766  0.00  0.00    +0.139 A 
ATOM     14  C   UNL     1      -8.481  16.728  68.834  0.00  0.00    +0.037 A 
ATOM     15  C   UNL     1      -8.115  17.936  68.324  0.00  0.00    +0.007 A 
ATOM     16  C   UNL     1      -9.036  18.773  67.765  0.00  0.00    +0.072 A 
ATOM     17  C   UNL     1     -10.364  18.456  67.807  0.00  0.00    +0.007 A 
ATOM     18  C   UNL     1     -10.746  17.203  68.252  0.00  0.00    +0.037 A 
BRANCH  16  19
ATOM     19  C   UNL     1      -8.591  20.035  67.151  0.00  0.00    +0.419 C 
ATOM     20  F   UNL     1      -7.494  20.472  67.881  0.00  0.00    -0.166 F 
ATOM     21  F   UNL     1      -8.190  19.911  65.851  0.00  0.00    -0.166 F 
ATOM     22  F   UNL     1      -9.566  21.011  67.266  0.00  0.00    -0.166 F 
ENDBRANCH  16  19
ENDBRANCH  12  13
ENDBRANCH   1  12
TORSDOF 7
ENDMDL
MODEL 7
REMARK VINA RESULT:      -6.2      2.056      3.330
REMARK  Name = 
REMARK  7 active torsions:
REMARK  status: ('A' for Active; 'I' for Inactive)
REMARK    1  A    between atoms: N_2  and  C_3
REMARK    2  A    between atoms: C_3  and  C_4
REMARK    3  A    between atoms: C_4  and  C_5
REMARK    4  A    between atoms: C_5  and  O_6
REMARK    5  A    between atoms: C_5  and  C_17
REMARK    6  A    between atoms: O_6  and  C_7
REMARK    7  A    between atoms: C_10  and  C_11
REMARK                            x       y       z     vdW  Elec       q    Type
REMARK                         _______ _______ _______ _____ _____    ______ ____
ROOT
ATOM      1  C   UNL     1     -11.970  12.976  67.310  0.00  0.00    +0.190 C 
ENDROOT
BRANCH   1   2
ATOM      2  C   UNL     1     -11.143  11.593  66.950  0.00  0.00    +0.017 A 
ATOM      3  C   UNL     1      -9.810  11.920  66.704  0.00  0.00    -0.001 A 
ATOM      4  C   UNL     1      -8.959  10.839  66.503  0.00  0.00    -0.000 A 
ATOM      5  C   UNL     1      -9.216   9.678  67.194  0.00  0.00    -0.000 A 
ATOM      6  C   UNL     1     -10.473   9.511  67.754  0.00  0.00    -0.000 A 
ATOM      7  C   UNL     1     -11.283  10.626  67.935  0.00  0.00    -0.001 A 
ENDBRANCH   1   2
BRANCH   1   8
ATOM      8  C   UNL     1     -11.306  13.803  66.002  0.00  0.00    +0.067 C 
BRANCH   8   9
ATOM      9  C   UNL     1     -12.568  14.103  65.196  0.00  0.00    +0.093 C 
BRANCH   9  11
ATOM     10  C   UNL     1     -12.007  12.620  63.439  0.00  0.00    +0.107 C 
ATOM     11  N   UNL     1     -12.960  12.979  64.367  0.00  0.00    -0.216 NA
ENDBRANCH   9  11
ENDBRANCH   8   9
ENDBRANCH   1   8
BRANCH   1  12
ATOM     12  O   UNL     1     -10.805  13.465  68.247  0.00  0.00    -0.475 OA
BRANCH  12  13
ATOM     13  C   UNL     1     -11.249  13.983  69.448  0.00  0.00    +0.139 A 
ATOM     14  C   UNL     1     -12.128  13.286  70.225  0.00  0.00    +0.037 A 
ATOM     15  C   UNL     1     -12.642  13.881  71.336  0.00  0.00    +0.007 A 
ATOM     16  C   UNL     1     -12.305  15.160  71.670  0.00  0.00    +0.072 A 
ATOM     17  C   UNL     1     -11.527  15.905  70.830  0.00  0.00    +0.007 A 
ATOM     18  C   UNL     1     -10.936  15.296  69.739  0.00  0.00    +0.037 A 
BRANCH  16  19
ATOM     19  C   UNL     1     -12.818  15.742  72.922  0.00  0.00    +0.419 C 
ATOM     20  F   UNL     1     -11.999  16.820  73.227  0.00  0.00    -0.166 F 
ATOM     21  F   UNL     1     -14.096  16.215  72.833  0.00  0.00    -0.166 F 
ATOM     22  F   UNL     1     -12.706  14.843  73.968  0.00  0.00    -0.166 F 
ENDBRANCH  16  19
ENDBRANCH  12  13
ENDBRANCH   1  12
TORSDOF 7
ENDMDL
MODEL 8
REMARK VINA RESULT:      -6.1      3.068      4.537
REMARK  Name = 
REMARK  7 active torsions:
REMARK  status: ('A' for Active; 'I' for Inactive)
REMARK    1  A    between atoms: N_2  and  C_3
REMARK    2  A    between atoms: C_3  and  C_4
REMARK    3  A    between atoms: C_4  and  C_5
REMARK    4  A    between atoms: C_5  and  O_6
REMARK    5  A    between atoms: C_5  and  C_17
REMARK    6  A    between atoms: O_6  and  C_7
REMARK    7  A    between atoms: C_10  and  C_11
REMARK                            x       y       z     vdW  Elec       q    Type
REMARK                         _______ _______ _______ _____ _____    ______ ____
ROOT
ATOM      1  C   UNL     1     -12.085  14.181  68.943  0.00  0.00    +0.190 C 
ENDROOT
BRANCH   1   2
ATOM      2  C   UNL     1     -11.663  14.528  67.385  0.00  0.00    +0.017 A 
ATOM      3  C   UNL     1     -10.273  14.614  67.307  0.00  0.00    -0.001 A 
ATOM      4  C   UNL     1      -9.758  14.783  66.027  0.00  0.00    -0.000 A 
ATOM      5  C   UNL     1     -10.422  14.188  64.980  0.00  0.00    -0.000 A 
ATOM      6  C   UNL     1     -11.729  13.773  65.182  0.00  0.00    -0.000 A 
ATOM      7  C   UNL     1     -12.193  13.618  66.483  0.00  0.00    -0.001 A 
ENDBRANCH   1   2
BRANCH   1   8
ATOM      8  C   UNL     1     -10.881  15.177  69.570  0.00  0.00    +0.067 C 
BRANCH   8   9
ATOM      9  C   UNL     1     -11.501  15.549  70.915  0.00  0.00    +0.093 C 
BRANCH   9  11
ATOM     10  C   UNL     1     -13.643  15.517  71.921  0.00  0.00    +0.107 C 
ATOM     11  N   UNL     1     -12.917  15.839  70.795  0.00  0.00    -0.216 NA
ENDBRANCH   9  11
ENDBRANCH   8   9
ENDBRANCH   1   8
BRANCH   1  12
ATOM     12  O   UNL     1     -11.114  12.945  68.965  0.00  0.00    -0.475 OA
BRANCH  12  13
ATOM     13  C   UNL     1     -11.605  11.875  69.686  0.00  0.00    +0.139 A 
ATOM     14  C   UNL     1     -12.514  12.066  70.685  0.00  0.00    +0.037 A 
ATOM     15  C   UNL     1     -12.878  11.006  71.459  0.00  0.00    +0.007 A 
ATOM     16  C   UNL     1     -12.337   9.771  71.260  0.00  0.00    +0.072 A 
ATOM     17  C   UNL     1     -11.335   9.600  70.347  0.00  0.00    +0.007 A 
ATOM     18  C   UNL     1     -11.006  10.645  69.502  0.00  0.00    +0.037 A 
BRANCH  16  19
ATOM     19  C   UNL     1     -12.814   8.631  72.062  0.00  0.00    +0.419 C 
ATOM     20  F   UNL     1     -11.740   8.205  72.832  0.00  0.00    -0.166 F 
ATOM     21  F   UNL     1     -13.830   8.942  72.920  0.00  0.00    -0.166 F 
ATOM     22  F   UNL     1     -13.173   7.570  71.250  0.00  0.00    -0.166 F 
ENDBRANCH  16  19
ENDBRANCH  12  13
ENDBRANCH   1  12
TORSDOF 7
ENDMDL
MODEL 9
REMARK VINA RESULT:      -6.0      2.972      3.926
REMARK  Name = 
REMARK  7 active torsions:
REMARK  status: ('A' for Active; 'I' for Inactive)
REMARK    1  A    between atoms: N_2  and  C_3
REMARK    2  A    between atoms: C_3  and  C_4
REMARK    3  A    between atoms: C_4  and  C_5
REMARK    4  A    between atoms: C_5  and  O_6
REMARK    5  A    between atoms: C_5  and  C_17
REMARK    6  A    between atoms: O_6  and  C_7
REMARK    7  A    between atoms: C_10  and  C_11
REMARK                            x       y       z     vdW  Elec       q    Type
REMARK                         _______ _______ _______ _____ _____    ______ ____
ROOT
ATOM      1  C   UNL     1     -11.990  13.147  67.645  0.00  0.00    +0.190 C 
ENDROOT
BRANCH   1   2
ATOM      2  C   UNL     1     -11.702  12.358  66.224  0.00  0.00    +0.017 A 
ATOM      3  C   UNL     1     -12.486  12.935  65.225  0.00  0.00    -0.001 A 
ATOM      4  C   UNL     1     -12.263  12.454  63.940  0.00  0.00    -0.000 A 
ATOM      5  C   UNL     1     -10.984  12.070  63.608  0.00  0.00    -0.000 A 
ATOM      6  C   UNL     1     -10.082  11.834  64.633  0.00  0.00    -0.000 A 
ATOM      7  C   UNL     1     -10.353  12.340  65.899  0.00  0.00    -0.001 A 
ENDBRANCH   1   2
BRANCH   1   8
ATOM      8  C   UNL     1     -11.058  14.472  67.186  0.00  0.00    +0.067 C 
BRANCH   8   9
ATOM      9  C   UNL     1     -10.778  15.099  68.550  0.00  0.00    +0.093 C 
BRANCH   9  11
ATOM     10  C   UNL     1     -12.269  15.729  70.276  0.00  0.00    +0.107 C 
ATOM     11  N   UNL     1     -11.861  15.963  68.980  0.00  0.00    -0.216 NA
ENDBRANCH   9  11
ENDBRANCH   8   9
ENDBRANCH   1   8
BRANCH   1  12
ATOM     12  O   UNL     1     -10.742  12.465  68.315  0.00  0.00    -0.475 OA
BRANCH  12  13
ATOM     13  C   UNL     1     -11.077  11.530  69.274  0.00  0.00    +0.139 A 
ATOM     14  C   UNL     1     -10.605  10.252  69.197  0.00  0.00    +0.037 A 
ATOM     15  C   UNL     1     -11.059   9.325  70.085  0.00  0.00    +0.007 A 
ATOM     16  C   UNL     1     -11.984   9.652  71.032  0.00  0.00    +0.072 A 
ATOM     17  C   UNL     1     -12.554  10.894  71.035  0.00  0.00    +0.007 A 
ATOM     18  C   UNL     1     -12.053  11.868  70.191  0.00  0.00    +0.037 A 
BRANCH  16  19
ATOM     19  C   UNL     1     -12.391   8.645  72.027  0.00  0.00    +0.419 C 
ATOM     20  F   UNL     1     -12.801   7.524  71.319  0.00  0.00    -0.166 F 
ATOM     21  F   UNL     1     -11.386   8.251  72.863  0.00  0.00    -0.166 F 
ATOM     22  F   UNL     1     -13.484   9.082  72.755  0.00  0.00    -0.166 F 
ENDBRANCH  16  19
ENDBRANCH  12  13
ENDBRANCH   1  12
TORSDOF 7
ENDMDL
