MODEL 1
REMARK VINA RESULT:      -6.8      0.000      0.000
REMARK  Name = 
REMARK  1 active torsions:
REMARK  status: ('A' for Active; 'I' for Inactive)
REMARK    1  A    between atoms: C_5  and  C_6
REMARK                            x       y       z     vdW  Elec       q    Type
REMARK                         _______ _______ _______ _____ _____    ______ ____
ROOT
ATOM      1  C   UNL     1     -12.226  13.868  69.683  0.00  0.00    -0.001 C 
ATOM      2  C   UNL     1     -11.126  13.909  68.928  0.00  0.00    +0.012 C 
ATOM      3  C   UNL     1     -11.392  14.865  67.653  0.00  0.00    +0.026 C 
ATOM      4  C   UNL     1     -10.789  13.792  66.558  0.00  0.00    +0.010 C 
ATOM      5  C   UNL     1      -9.626  13.282  67.329  0.00  0.00    +0.055 C 
ATOM      6  C   UNL     1      -8.976  14.519  67.811  0.00  0.00    +0.008 C 
ATOM      7  C   UNL     1      -8.836  12.307  66.594  0.00  0.00    +0.008 C 
ATOM      8  C   UNL     1     -11.908  12.806  66.391  0.00  0.00    +0.001 C 
ATOM      9  C   UNL     1     -10.456  14.574  65.339  0.00  0.00    +0.001 C 
ATOM     10  C   UNL     1      -9.943  15.635  67.800  0.00  0.00    +0.005 C 
ATOM     11  C   UNL     1     -10.425  12.757  68.474  0.00  0.00    +0.168 C 
ATOM     12  O   UNL     1     -10.465  11.553  68.829  0.00  0.00    -0.292 OA
ENDROOT
BRANCH   1  17
ATOM     13  C   UNL     1     -12.492  15.471  74.495  0.00  0.00    +0.031 C 
ATOM     14  C   UNL     1     -12.784  15.887  73.119  0.00  0.00    -0.022 A 
ATOM     15  C   UNL     1     -13.904  15.432  72.429  0.00  0.00    -0.004 A 
ATOM     16  C   UNL     1     -13.802  15.051  71.094  0.00  0.00    -0.000 A 
ATOM     17  C   UNL     1     -12.589  15.092  70.410  0.00  0.00    -0.000 A 
ATOM     18  C   UNL     1     -11.665  15.936  70.991  0.00  0.00    -0.000 A 
ATOM     19  C   UNL     1     -11.814  16.432  72.284  0.00  0.00    -0.004 A 
ENDBRANCH   1  17
TORSDOF 1
ENDMDL
MODEL 2
REMARK VINA RESULT:      -6.5      3.261      5.846
REMARK  Name = 
REMARK  1 active torsions:
REMARK  status: ('A' for Active; 'I' for Inactive)
REMARK    1  A    between atoms: C_5  and  C_6
REMARK                            x       y       z     vdW  Elec       q    Type
REMARK                         _______ _______ _______ _____ _____    ______ ____
ROOT
ATOM      1  C   UNL     1     -11.517  13.548  67.825  0.00  0.00    -0.001 C 
ATOM      2  C   UNL     1     -11.076  14.694  67.301  0.00  0.00    +0.012 C 
ATOM      3  C   UNL     1      -9.564  14.487  66.769  0.00  0.00    +0.026 C 
ATOM      4  C   UNL     1      -8.987  15.853  67.485  0.00  0.00    +0.010 C 
ATOM      5  C   UNL     1     -10.129  16.767  67.229  0.00  0.00    +0.055 C 
ATOM      6  C   UNL     1     -10.403  16.566  65.790  0.00  0.00    +0.008 C 
ATOM      7  C   UNL     1      -9.906  18.115  67.725  0.00  0.00    +0.008 C 
ATOM      8  C   UNL     1      -8.822  15.447  68.920  0.00  0.00    +0.001 C 
ATOM      9  C   UNL     1      -7.722  16.197  66.783  0.00  0.00    +0.001 C 
ATOM     10  C   UNL     1      -9.850  15.270  65.348  0.00  0.00    +0.005 C 
ATOM     11  C   UNL     1     -11.140  15.951  67.963  0.00  0.00    +0.168 C 
ATOM     12  O   UNL     1     -11.787  16.343  68.965  0.00  0.00    -0.292 OA
ENDROOT
BRANCH   1  17
ATOM     13  C   UNL     1      -9.758  11.872  63.365  0.00  0.00    +0.031 C 
ATOM     14  C   UNL     1     -10.790  11.610  64.374  0.00  0.00    -0.022 A 
ATOM     15  C   UNL     1     -11.945  12.380  64.470  0.00  0.00    -0.004 A 
ATOM     16  C   UNL     1     -12.426  12.775  65.715  0.00  0.00    -0.000 A 
ATOM     17  C   UNL     1     -11.770  12.438  66.897  0.00  0.00    -0.000 A 
ATOM     18  C   UNL     1     -10.931  11.351  66.761  0.00  0.00    -0.000 A 
ATOM     19  C   UNL     1     -10.538  10.859  65.518  0.00  0.00    -0.004 A 
ENDBRANCH   1  17
TORSDOF 1
ENDMDL
MODEL 3
REMARK VINA RESULT:      -6.5      1.855      2.959
REMARK  Name = 
REMARK  1 active torsions:
REMARK  status: ('A' for Active; 'I' for Inactive)
REMARK    1  A    between atoms: C_5  and  C_6
REMARK                            x       y       z     vdW  Elec       q    Type
REMARK                         _______ _______ _______ _____ _____    ______ ____
ROOT
ATOM      1  C   UNL     1     -11.361  16.363  70.330  0.00  0.00    -0.001 C 
ATOM      2  C   UNL     1     -11.388  15.656  69.198  0.00  0.00    +0.012 C 
ATOM      3  C   UNL     1     -10.763  14.192  69.471  0.00  0.00    +0.026 C 
ATOM      4  C   UNL     1      -9.779  14.223  68.151  0.00  0.00    +0.010 C 
ATOM      5  C   UNL     1     -10.697  14.864  67.175  0.00  0.00    +0.055 C 
ATOM      6  C   UNL     1     -11.947  14.091  67.333  0.00  0.00    +0.008 C 
ATOM      7  C   UNL     1     -10.115  15.006  65.850  0.00  0.00    +0.008 C 
ATOM      8  C   UNL     1      -8.636  15.088  68.594  0.00  0.00    +0.001 C 
ATOM      9  C   UNL     1      -9.418  12.811  67.858  0.00  0.00    +0.001 C 
ATOM     10  C   UNL     1     -11.960  13.416  68.646  0.00  0.00    +0.005 C 
ATOM     11  C   UNL     1     -10.884  16.124  67.953  0.00  0.00    +0.168 C 
ATOM     12  O   UNL     1     -10.569  17.270  67.549  0.00  0.00    -0.292 OA
ENDROOT
BRANCH   1  17
ATOM     13  C   UNL     1     -13.406  12.061  72.089  0.00  0.00    +0.031 C 
ATOM     14  C   UNL     1     -13.427  13.515  72.282  0.00  0.00    -0.022 A 
ATOM     15  C   UNL     1     -14.120  14.365  71.425  0.00  0.00    -0.004 A 
ATOM     16  C   UNL     1     -13.546  15.563  71.007  0.00  0.00    -0.000 A 
ATOM     17  C   UNL     1     -12.267  15.944  71.407  0.00  0.00    -0.000 A 
ATOM     18  C   UNL     1     -11.844  15.304  72.554  0.00  0.00    -0.000 A 
ATOM     19  C   UNL     1     -12.484  14.176  73.062  0.00  0.00    -0.004 A 
ENDBRANCH   1  17
TORSDOF 1
ENDMDL
MODEL 4
REMARK VINA RESULT:      -6.4      1.734      2.958
REMARK  Name = 
REMARK  1 active torsions:
REMARK  status: ('A' for Active; 'I' for Inactive)
REMARK    1  A    between atoms: C_5  and  C_6
REMARK                            x       y       z     vdW  Elec       q    Type
REMARK                         _______ _______ _______ _____ _____    ______ ____
ROOT
ATOM      1  C   UNL     1     -11.813  14.740  68.045  0.00  0.00    -0.001 C 
ATOM      2  C   UNL     1     -11.765  13.647  67.280  0.00  0.00    +0.012 C 
ATOM      3  C   UNL     1     -10.233  13.151  67.159  0.00  0.00    +0.026 C 
ATOM      4  C   UNL     1     -10.284  12.971  65.522  0.00  0.00    +0.010 C 
ATOM      5  C   UNL     1     -11.645  12.391  65.381  0.00  0.00    +0.055 C 
ATOM      6  C   UNL     1     -11.656  11.314  66.394  0.00  0.00    +0.008 C 
ATOM      7  C   UNL     1     -11.991  12.073  64.005  0.00  0.00    +0.008 C 
ATOM      8  C   UNL     1     -10.150  14.377  65.017  0.00  0.00    +0.001 C 
ATOM      9  C   UNL     1      -9.162  12.065  65.160  0.00  0.00    +0.001 C 
ATOM     10  C   UNL     1     -10.619  11.569  67.413  0.00  0.00    +0.005 C 
ATOM     11  C   UNL     1     -12.363  13.547  65.993  0.00  0.00    +0.168 C 
ATOM     12  O   UNL     1     -13.220  14.251  65.405  0.00  0.00    -0.292 OA
ENDROOT
BRANCH   1  17
ATOM     13  C   UNL     1     -14.111  15.648  72.482  0.00  0.00    +0.031 C 
ATOM     14  C   UNL     1     -12.845  15.177  71.909  0.00  0.00    -0.022 A 
ATOM     15  C   UNL     1     -11.904  16.052  71.373  0.00  0.00    -0.004 A 
ATOM     16  C   UNL     1     -11.256  15.743  70.180  0.00  0.00    -0.000 A 
ATOM     17  C   UNL     1     -11.531  14.572  69.477  0.00  0.00    -0.000 A 
ATOM     18  C   UNL     1     -12.110  13.593  70.257  0.00  0.00    -0.000 A 
ATOM     19  C   UNL     1     -12.651  13.858  71.513  0.00  0.00    -0.004 A 
ENDBRANCH   1  17
TORSDOF 1
ENDMDL
MODEL 5
REMARK VINA RESULT:      -6.3      3.744      6.446
REMARK  Name = 
REMARK  1 active torsions:
REMARK  status: ('A' for Active; 'I' for Inactive)
REMARK    1  A    between atoms: C_5  and  C_6
REMARK                            x       y       z     vdW  Elec       q    Type
REMARK                         _______ _______ _______ _____ _____    ______ ____
ROOT
ATOM      1  C   UNL     1     -10.092  16.222  65.444  0.00  0.00    -0.001 C 
ATOM      2  C   UNL     1      -9.435  16.736  66.486  0.00  0.00    +0.012 C 
ATOM      3  C   UNL     1     -10.481  17.514  67.442  0.00  0.00    +0.026 C 
ATOM      4  C   UNL     1      -9.551  18.867  67.576  0.00  0.00    +0.010 C 
ATOM      5  C   UNL     1      -8.212  18.235  67.693  0.00  0.00    +0.055 C 
ATOM      6  C   UNL     1      -8.421  17.196  68.723  0.00  0.00    +0.008 C 
ATOM      7  C   UNL     1      -7.138  19.199  67.868  0.00  0.00    +0.008 C 
ATOM      8  C   UNL     1      -9.793  19.581  66.279  0.00  0.00    +0.001 C 
ATOM      9  C   UNL     1     -10.026  19.588  68.786  0.00  0.00    +0.001 C 
ATOM     10  C   UNL     1      -9.858  16.866  68.822  0.00  0.00    +0.005 C 
ATOM     11  C   UNL     1      -8.263  17.534  66.376  0.00  0.00    +0.168 C 
ATOM     12  O   UNL     1      -7.461  17.727  65.430  0.00  0.00    -0.292 OA
ENDROOT
BRANCH   1  17
ATOM     13  C   UNL     1     -10.850  11.481  63.790  0.00  0.00    +0.031 C 
ATOM     14  C   UNL     1     -11.414  12.498  64.683  0.00  0.00    -0.022 A 
ATOM     15  C   UNL     1     -12.156  13.574  64.206  0.00  0.00    -0.004 A 
ATOM     16  C   UNL     1     -11.957  14.852  64.722  0.00  0.00    -0.000 A 
ATOM     17  C   UNL     1     -11.007  15.104  65.710  0.00  0.00    -0.000 A 
ATOM     18  C   UNL     1     -10.647  13.976  66.418  0.00  0.00    -0.000 A 
ATOM     19  C   UNL     1     -10.950  12.689  65.981  0.00  0.00    -0.004 A 
ENDBRANCH   1  17
TORSDOF 1
ENDMDL
MODEL 6
REMARK VINA RESULT:      -6.2      3.143      5.544
REMARK  Name = 
REMARK  1 active torsions:
REMARK  status: ('A' for Active; 'I' for Inactive)
REMARK    1  A    between atoms: C_5  and  C_6
REMARK                            x       y       z     vdW  Elec       q    Type
REMARK                         _______ _______ _______ _____ _____    ______ ____
ROOT
ATOM      1  C   UNL     1      -9.489  16.015  65.664  0.00  0.00    -0.001 C 
ATOM      2  C   UNL     1      -8.932  16.786  66.601  0.00  0.00    +0.012 C 
ATOM      3  C   UNL     1     -10.093  17.415  67.532  0.00  0.00    +0.026 C 
ATOM      4  C   UNL     1      -9.500  18.949  67.459  0.00  0.00    +0.010 C 
ATOM      5  C   UNL     1      -8.047  18.657  67.558  0.00  0.00    +0.055 C 
ATOM      6  C   UNL     1      -7.969  17.728  68.705  0.00  0.00    +0.008 C 
ATOM      7  C   UNL     1      -7.221  19.853  67.559  0.00  0.00    +0.008 C 
ATOM      8  C   UNL     1      -9.950  19.429  66.111  0.00  0.00    +0.001 C 
ATOM      9  C   UNL     1     -10.084  19.684  68.613  0.00  0.00    +0.001 C 
ATOM     10  C   UNL     1      -9.285  17.095  68.931  0.00  0.00    +0.005 C 
ATOM     11  C   UNL     1      -7.983  17.810  66.331  0.00  0.00    +0.168 C 
ATOM     12  O   UNL     1      -7.284  18.066  65.319  0.00  0.00    -0.292 OA
ENDROOT
BRANCH   1  17
ATOM     13  C   UNL     1     -11.668  14.146  69.853  0.00  0.00    +0.031 C 
ATOM     14  C   UNL     1     -11.241  13.765  68.503  0.00  0.00    -0.022 A 
ATOM     15  C   UNL     1      -9.908  13.516  68.190  0.00  0.00    -0.004 A 
ATOM     16  C   UNL     1      -9.360  14.001  67.006  0.00  0.00    -0.000 A 
ATOM     17  C   UNL     1     -10.108  14.759  66.107  0.00  0.00    -0.000 A 
ATOM     18  C   UNL     1     -11.470  14.591  66.256  0.00  0.00    -0.000 A 
ATOM     19  C   UNL     1     -12.032  13.990  67.380  0.00  0.00    -0.004 A 
ENDBRANCH   1  17
TORSDOF 1
ENDMDL
MODEL 7
REMARK VINA RESULT:      -6.2      3.084      4.624
REMARK  Name = 
REMARK  1 active torsions:
REMARK  status: ('A' for Active; 'I' for Inactive)
REMARK    1  A    between atoms: C_5  and  C_6
REMARK                            x       y       z     vdW  Elec       q    Type
REMARK                         _______ _______ _______ _____ _____    ______ ____
ROOT
ATOM      1  C   UNL     1      -9.123  15.538  68.439  0.00  0.00    -0.001 C 
ATOM      2  C   UNL     1      -9.509  14.948  67.306  0.00  0.00    +0.012 C 
ATOM      3  C   UNL     1     -11.016  15.410  66.952  0.00  0.00    +0.026 C 
ATOM      4  C   UNL     1     -11.554  13.882  66.655  0.00  0.00    +0.010 C 
ATOM      5  C   UNL     1     -10.371  13.340  65.938  0.00  0.00    +0.055 C 
ATOM      6  C   UNL     1     -10.076  14.387  64.938  0.00  0.00    +0.008 C 
ATOM      7  C   UNL     1     -10.551  11.967  65.494  0.00  0.00    +0.008 C 
ATOM      8  C   UNL     1     -11.764  13.318  68.029  0.00  0.00    +0.001 C 
ATOM      9  C   UNL     1     -12.789  14.019  65.839  0.00  0.00    +0.001 C 
ATOM     10  C   UNL     1     -10.671  15.672  65.362  0.00  0.00    +0.005 C 
ATOM     11  C   UNL     1      -9.409  13.551  67.059  0.00  0.00    +0.168 C 
ATOM     12  O   UNL     1      -8.768  12.638  67.635  0.00  0.00    -0.292 OA
ENDROOT
BRANCH   1  17
ATOM     13  C   UNL     1     -10.640  19.528  65.688  0.00  0.00    +0.031 C 
ATOM     14  C   UNL     1      -9.728  19.150  66.773  0.00  0.00    -0.022 A 
ATOM     15  C   UNL     1      -8.518  18.505  66.532  0.00  0.00    -0.004 A 
ATOM     16  C   UNL     1      -8.112  17.448  67.342  0.00  0.00    -0.000 A 
ATOM     17  C   UNL     1      -8.895  16.989  68.398  0.00  0.00    -0.000 A 
ATOM     18  C   UNL     1      -9.817  17.918  68.835  0.00  0.00    -0.000 A 
ATOM     19  C   UNL     1     -10.145  19.052  68.096  0.00  0.00    -0.004 A 
ENDBRANCH   1  17
TORSDOF 1
ENDMDL
MODEL 8
REMARK VINA RESULT:      -6.1      2.981      4.605
REMARK  Name = 
REMARK  1 active torsions:
REMARK  status: ('A' for Active; 'I' for Inactive)
REMARK    1  A    between atoms: C_5  and  C_6
REMARK                            x       y       z     vdW  Elec       q    Type
REMARK                         _______ _______ _______ _____ _____    ______ ____
ROOT
ATOM      1  C   UNL     1     -11.284  16.478  68.136  0.00  0.00    -0.001 C 
ATOM      2  C   UNL     1     -10.724  15.312  67.807  0.00  0.00    +0.012 C 
ATOM      3  C   UNL     1     -10.389  15.311  66.227  0.00  0.00    +0.026 C 
ATOM      4  C   UNL     1     -11.054  13.828  65.955  0.00  0.00    +0.010 C 
ATOM      5  C   UNL     1     -10.594  13.124  67.179  0.00  0.00    +0.055 C 
ATOM      6  C   UNL     1      -9.154  13.455  67.234  0.00  0.00    +0.008 C 
ATOM      7  C   UNL     1     -11.001  11.729  67.224  0.00  0.00    +0.008 C 
ATOM      8  C   UNL     1     -12.527  14.113  65.915  0.00  0.00    +0.001 C 
ATOM      9  C   UNL     1     -10.478  13.334  64.677  0.00  0.00    +0.001 C 
ATOM     10  C   UNL     1      -8.885  14.673  66.442  0.00  0.00    +0.005 C 
ATOM     11  C   UNL     1     -11.270  14.042  68.142  0.00  0.00    +0.168 C 
ATOM     12  O   UNL     1     -12.155  13.695  68.962  0.00  0.00    -0.292 OA
ENDROOT
BRANCH   1  17
ATOM     13  C   UNL     1      -7.011  17.994  65.849  0.00  0.00    +0.031 C 
ATOM     14  C   UNL     1      -8.000  18.414  66.846  0.00  0.00    -0.022 A 
ATOM     15  C   UNL     1      -8.004  17.909  68.144  0.00  0.00    -0.004 A 
ATOM     16  C   UNL     1      -9.202  17.554  68.757  0.00  0.00    -0.000 A 
ATOM     17  C   UNL     1     -10.426  17.670  68.101  0.00  0.00    -0.000 A 
ATOM     18  C   UNL     1     -10.393  18.554  67.042  0.00  0.00    -0.000 A 
ATOM     19  C   UNL     1      -9.201  19.023  66.495  0.00  0.00    -0.004 A 
ENDBRANCH   1  17
TORSDOF 1
ENDMDL
MODEL 9
REMARK VINA RESULT:      -6.1      3.082      4.347
REMARK  Name = 
REMARK  1 active torsions:
REMARK  status: ('A' for Active; 'I' for Inactive)
REMARK    1  A    between atoms: C_5  and  C_6
REMARK                            x       y       z     vdW  Elec       q    Type
REMARK                         _______ _______ _______ _____ _____    ______ ____
ROOT
ATOM      1  C   UNL     1     -12.074  11.754  68.814  0.00  0.00    -0.001 C 
ATOM      2  C   UNL     1     -11.138  12.010  67.898  0.00  0.00    +0.012 C 
ATOM      3  C   UNL     1     -10.176  13.191  68.437  0.00  0.00    +0.026 C 
ATOM      4  C   UNL     1     -10.239  14.058  67.038  0.00  0.00    +0.010 C 
ATOM      5  C   UNL     1     -10.173  12.946  66.056  0.00  0.00    +0.055 C 
ATOM      6  C   UNL     1      -9.040  12.132  66.547  0.00  0.00    +0.008 C 
ATOM      7  C   UNL     1     -10.171  13.401  64.675  0.00  0.00    +0.008 C 
ATOM      8  C   UNL     1     -11.571  14.743  67.117  0.00  0.00    +0.001 C 
ATOM      9  C   UNL     1      -9.064  14.970  67.053  0.00  0.00    +0.001 C 
ATOM     10  C   UNL     1      -8.797  12.416  67.976  0.00  0.00    +0.005 C 
ATOM     11  C   UNL     1     -11.413  12.260  66.524  0.00  0.00    +0.168 C 
ATOM     12  O   UNL     1     -12.434  12.065  65.820  0.00  0.00    -0.292 OA
ENDROOT
BRANCH   1  17
ATOM     13  C   UNL     1     -12.994   7.481  71.400  0.00  0.00    +0.031 C 
ATOM     14  C   UNL     1     -12.258   8.747  71.482  0.00  0.00    -0.022 A 
ATOM     15  C   UNL     1     -12.886   9.949  71.795  0.00  0.00    -0.004 A 
ATOM     16  C   UNL     1     -12.568  11.112  71.099  0.00  0.00    -0.000 A 
ATOM     17  C   UNL     1     -11.637  11.115  70.062  0.00  0.00    -0.000 A 
ATOM     18  C   UNL     1     -10.771  10.042  70.107  0.00  0.00    -0.000 A 
ATOM     19  C   UNL     1     -11.007   8.921  70.899  0.00  0.00    -0.004 A 
ENDBRANCH   1  17
TORSDOF 1
ENDMDL
