MODEL 1
REMARK VINA RESULT:      -6.7      0.000      0.000
REMARK  Name = 
REMARK  1 active torsions:
REMARK  status: ('A' for Active; 'I' for Inactive)
REMARK    1  A    between atoms: O_2  and  C_3
REMARK                            x       y       z     vdW  Elec       q    Type
REMARK                         _______ _______ _______ _____ _____    ______ ____
ROOT
ATOM      1  C   UNL     1     -12.043  14.240  69.636  0.00  0.00    +0.172 A 
ATOM      2  C   UNL     1     -11.766  14.442  68.286  0.00  0.00    +0.168 A 
ATOM      3  O   UNL     1     -11.397  15.463  67.460  0.00  0.00    -0.469 OA
ATOM      4  C   UNL     1     -11.688  14.969  66.020  0.00  0.00    +0.226 C 
ATOM      5  C   UNL     1     -11.250  13.419  66.274  0.00  0.00    +0.068 C 
ATOM      6  C   UNL     1      -9.798  13.253  65.647  0.00  0.00    +0.023 C 
ATOM      7  C   UNL     1      -9.400  11.698  66.216  0.00  0.00    +0.062 C 
ATOM      8  N   UNL     1     -10.044  11.081  64.924  0.00  0.00    -0.272 NA
ATOM      9  C   UNL     1     -11.298  11.538  64.664  0.00  0.00    +0.073 C 
ATOM     10  C   UNL     1      -9.812   9.675  64.967  0.00  0.00    +0.090 C 
ATOM     11  C   UNL     1     -10.680  11.259  67.107  0.00  0.00    +0.042 C 
ATOM     12  C   UNL     1     -10.769  12.208  68.263  0.00  0.00    -0.022 A 
ATOM     13  C   UNL     1     -11.467  11.895  69.427  0.00  0.00    -0.001 A 
ATOM     14  C   UNL     1      -9.040  13.999  66.883  0.00  0.00    +0.010 C 
ATOM     15  C   UNL     1      -9.085  15.412  66.300  0.00  0.00    +0.068 C 
ATOM     16  C   UNL     1     -12.045  12.562  65.368  0.00  0.00    +0.025 C 
ATOM     17  C   UNL     1     -10.272  15.540  65.460  0.00  0.00    +0.191 C 
ATOM     18  O   UNL     1     -10.563  16.671  65.065  0.00  0.00    -0.292 OA
ATOM     19  C   UNL     1     -11.302  13.341  67.649  0.00  0.00    +0.014 A 
ATOM     20  C   UNL     1     -12.096  12.930  70.126  0.00  0.00    +0.040 A 
ENDROOT
BRANCH   1  22
ATOM     21  C   UNL     1     -12.192  15.937  71.407  0.00  0.00    +0.253 C 
ATOM     22  O   UNL     1     -12.353  15.294  70.385  0.00  0.00    -0.468 OA
ENDBRANCH   1  22
TORSDOF 1
ENDMDL
MODEL 2
REMARK VINA RESULT:      -6.6      1.581      2.079
REMARK  Name = 
REMARK  1 active torsions:
REMARK  status: ('A' for Active; 'I' for Inactive)
REMARK    1  A    between atoms: O_2  and  C_3
REMARK                            x       y       z     vdW  Elec       q    Type
REMARK                         _______ _______ _______ _____ _____    ______ ____
ROOT
ATOM      1  C   UNL     1     -12.559  13.508  71.162  0.00  0.00    +0.172 A 
ATOM      2  C   UNL     1     -12.172  14.317  70.097  0.00  0.00    +0.168 A 
ATOM      3  O   UNL     1     -11.740  15.595  69.888  0.00  0.00    -0.469 OA
ATOM      4  C   UNL     1     -11.908  15.857  68.370  0.00  0.00    +0.226 C 
ATOM      5  C   UNL     1     -11.487  14.357  67.886  0.00  0.00    +0.068 C 
ATOM      6  C   UNL     1      -9.987  14.458  67.366  0.00  0.00    +0.023 C 
ATOM      7  C   UNL     1      -9.632  12.806  67.152  0.00  0.00    +0.062 C 
ATOM      8  N   UNL     1     -10.164  12.902  65.678  0.00  0.00    -0.272 NA
ATOM      9  C   UNL     1     -11.394  13.472  65.575  0.00  0.00    +0.073 C 
ATOM     10  C   UNL     1      -9.931  11.637  65.062  0.00  0.00    +0.090 C 
ATOM     11  C   UNL     1     -10.980  12.042  67.627  0.00  0.00    +0.042 C 
ATOM     12  C   UNL     1     -11.168  12.330  69.085  0.00  0.00    -0.022 A 
ATOM     13  C   UNL     1     -11.958  11.526  69.903  0.00  0.00    -0.001 A 
ATOM     14  C   UNL     1      -9.338  14.498  68.860  0.00  0.00    +0.010 C 
ATOM     15  C   UNL     1      -9.340  16.019  69.021  0.00  0.00    +0.068 C 
ATOM     16  C   UNL     1     -12.201  14.065  66.624  0.00  0.00    +0.025 C 
ATOM     17  C   UNL     1     -10.454  16.574  68.257  0.00  0.00    +0.191 C 
ATOM     18  O   UNL     1     -10.715  17.766  68.430  0.00  0.00    -0.292 OA
ATOM     19  C   UNL     1     -11.652  13.636  69.049  0.00  0.00    +0.014 A 
ATOM     20  C   UNL     1     -12.647  12.126  70.963  0.00  0.00    +0.040 A 
ENDROOT
BRANCH   1  22
ATOM     21  C   UNL     1     -12.723  14.907  73.176  0.00  0.00    +0.253 C 
ATOM     22  O   UNL     1     -12.934  14.089  72.298  0.00  0.00    -0.468 OA
ENDBRANCH   1  22
TORSDOF 1
ENDMDL
MODEL 3
REMARK VINA RESULT:      -6.5      2.309      4.051
REMARK  Name = 
REMARK  1 active torsions:
REMARK  status: ('A' for Active; 'I' for Inactive)
REMARK    1  A    between atoms: O_2  and  C_3
REMARK                            x       y       z     vdW  Elec       q    Type
REMARK                         _______ _______ _______ _____ _____    ______ ____
ROOT
ATOM      1  C   UNL     1     -12.062  12.125  69.434  0.00  0.00    +0.172 A 
ATOM      2  C   UNL     1     -11.453  12.222  68.185  0.00  0.00    +0.168 A 
ATOM      3  O   UNL     1     -11.428  11.539  67.003  0.00  0.00    -0.469 OA
ATOM      4  C   UNL     1     -10.187  12.063  66.237  0.00  0.00    +0.226 C 
ATOM      5  C   UNL     1     -10.326  13.615  66.719  0.00  0.00    +0.068 C 
ATOM      6  C   UNL     1     -10.963  14.410  65.497  0.00  0.00    +0.023 C 
ATOM      7  C   UNL     1     -11.270  15.910  66.241  0.00  0.00    +0.062 C 
ATOM      8  N   UNL     1      -9.835  16.390  65.824  0.00  0.00    -0.272 NA
ATOM      9  C   UNL     1      -8.846  15.521  66.162  0.00  0.00    +0.073 C 
ATOM     10  C   UNL     1      -9.719  17.758  66.209  0.00  0.00    +0.090 C 
ATOM     11  C   UNL     1     -10.793  15.700  67.776  0.00  0.00    +0.042 C 
ATOM     12  C   UNL     1     -11.675  14.651  68.380  0.00  0.00    -0.022 A 
ATOM     13  C   UNL     1     -11.830  14.516  69.757  0.00  0.00    -0.001 A 
ATOM     14  C   UNL     1     -12.475  13.863  65.764  0.00  0.00    +0.010 C 
ATOM     15  C   UNL     1     -12.387  12.631  64.863  0.00  0.00    +0.068 C 
ATOM     16  C   UNL     1      -8.971  14.206  66.760  0.00  0.00    +0.025 C 
ATOM     17  C   UNL     1     -11.005  12.162  64.835  0.00  0.00    +0.191 C 
ATOM     18  O   UNL     1     -10.792  11.068  64.309  0.00  0.00    -0.292 OA
ATOM     19  C   UNL     1     -11.145  13.489  67.820  0.00  0.00    +0.014 A 
ATOM     20  C   UNL     1     -12.041  13.237  70.283  0.00  0.00    +0.040 A 
ENDROOT
BRANCH   1  22
ATOM     21  C   UNL     1     -12.802  10.158  70.707  0.00  0.00    +0.253 C 
ATOM     22  O   UNL     1     -12.545  10.946  69.814  0.00  0.00    -0.468 OA
ENDBRANCH   1  22
TORSDOF 1
ENDMDL
MODEL 4
REMARK VINA RESULT:      -6.5      2.759      4.967
REMARK  Name = 
REMARK  1 active torsions:
REMARK  status: ('A' for Active; 'I' for Inactive)
REMARK    1  A    between atoms: O_2  and  C_3
REMARK                            x       y       z     vdW  Elec       q    Type
REMARK                         _______ _______ _______ _____ _____    ______ ____
ROOT
ATOM      1  C   UNL     1      -6.680  16.460  67.052  0.00  0.00    +0.172 A 
ATOM      2  C   UNL     1      -8.036  16.541  66.745  0.00  0.00    +0.168 A 
ATOM      3  O   UNL     1      -8.828  16.688  65.643  0.00  0.00    -0.469 OA
ATOM      4  C   UNL     1     -10.225  17.094  66.177  0.00  0.00    +0.226 C 
ATOM      5  C   UNL     1     -10.187  16.148  67.505  0.00  0.00    +0.068 C 
ATOM      6  C   UNL     1     -11.084  14.876  67.177  0.00  0.00    +0.023 C 
ATOM      7  C   UNL     1     -10.731  13.902  68.528  0.00  0.00    +0.062 C 
ATOM      8  N   UNL     1     -11.929  14.566  69.296  0.00  0.00    -0.272 NA
ATOM      9  C   UNL     1     -11.912  15.925  69.267  0.00  0.00    +0.073 C 
ATOM     10  C   UNL     1     -12.047  13.899  70.551  0.00  0.00    +0.090 C 
ATOM     11  C   UNL     1      -9.658  14.769  69.377  0.00  0.00    +0.042 C 
ATOM     12  C   UNL     1      -8.431  14.917  68.531  0.00  0.00    -0.022 A 
ATOM     13  C   UNL     1      -7.188  15.229  69.076  0.00  0.00    -0.001 A 
ATOM     14  C   UNL     1      -9.953  14.158  66.248  0.00  0.00    +0.010 C 
ATOM     15  C   UNL     1     -10.397  14.764  64.916  0.00  0.00    +0.068 C 
ATOM     16  C   UNL     1     -10.999  16.798  68.556  0.00  0.00    +0.025 C 
ATOM     17  C   UNL     1     -10.988  16.075  65.166  0.00  0.00    +0.191 C 
ATOM     18  O   UNL     1     -11.225  16.781  64.184  0.00  0.00    -0.292 OA
ATOM     19  C   UNL     1      -8.838  15.892  67.622  0.00  0.00    +0.014 A 
ATOM     20  C   UNL     1      -6.300  15.997  68.316  0.00  0.00    +0.040 A 
ENDROOT
BRANCH   1  22
ATOM     21  C   UNL     1      -5.149  17.861  65.734  0.00  0.00    +0.253 C 
ATOM     22  O   UNL     1      -5.801  16.928  66.170  0.00  0.00    -0.468 OA
ENDBRANCH   1  22
TORSDOF 1
ENDMDL
MODEL 5
REMARK VINA RESULT:      -6.4      2.766      4.688
REMARK  Name = 
REMARK  1 active torsions:
REMARK  status: ('A' for Active; 'I' for Inactive)
REMARK    1  A    between atoms: O_2  and  C_3
REMARK                            x       y       z     vdW  Elec       q    Type
REMARK                         _______ _______ _______ _____ _____    ______ ____
ROOT
ATOM      1  C   UNL     1     -10.900   9.556  67.730  0.00  0.00    +0.172 A 
ATOM      2  C   UNL     1     -10.503  10.495  66.780  0.00  0.00    +0.168 A 
ATOM      3  O   UNL     1     -10.370  10.585  65.425  0.00  0.00    -0.469 OA
ATOM      4  C   UNL     1      -9.483  11.830  65.168  0.00  0.00    +0.226 C 
ATOM      5  C   UNL     1     -10.103  12.739  66.372  0.00  0.00    +0.068 C 
ATOM      6  C   UNL     1     -11.107  13.765  65.689  0.00  0.00    +0.023 C 
ATOM      7  C   UNL     1     -11.838  14.437  67.072  0.00  0.00    +0.062 C 
ATOM      8  N   UNL     1     -10.717  15.536  67.107  0.00  0.00    -0.272 NA
ATOM      9  C   UNL     1      -9.455  15.035  67.037  0.00  0.00    +0.073 C 
ATOM     10  C   UNL     1     -11.046  16.442  68.158  0.00  0.00    +0.090 C 
ATOM     11  C   UNL     1     -11.153  13.648  68.310  0.00  0.00    +0.042 C 
ATOM     12  C   UNL     1     -11.540  12.205  68.190  0.00  0.00    -0.022 A 
ATOM     13  C   UNL     1     -11.487  11.330  69.272  0.00  0.00    -0.001 A 
ATOM     14  C   UNL     1     -12.293  12.666  65.484  0.00  0.00    +0.010 C 
ATOM     15  C   UNL     1     -11.878  12.206  64.086  0.00  0.00    +0.068 C 
ATOM     16  C   UNL     1      -9.045  13.656  66.847  0.00  0.00    +0.025 C 
ATOM     17  C   UNL     1     -10.431  12.345  63.952  0.00  0.00    +0.191 C 
ATOM     18  O   UNL     1      -9.907  11.842  62.956  0.00  0.00    -0.292 OA
ATOM     19  C   UNL     1     -10.700  11.779  67.161  0.00  0.00    +0.014 A 
ATOM     20  C   UNL     1     -11.177   9.988  69.031  0.00  0.00    +0.040 A 
ENDROOT
BRANCH   1  22
ATOM     21  C   UNL     1     -10.308   7.315  66.913  0.00  0.00    +0.253 C 
ATOM     22  O   UNL     1     -10.894   8.270  67.391  0.00  0.00    -0.468 OA
ENDBRANCH   1  22
TORSDOF 1
ENDMDL
MODEL 6
REMARK VINA RESULT:      -6.3      2.055      3.728
REMARK  Name = 
REMARK  1 active torsions:
REMARK  status: ('A' for Active; 'I' for Inactive)
REMARK    1  A    between atoms: O_2  and  C_3
REMARK                            x       y       z     vdW  Elec       q    Type
REMARK                         _______ _______ _______ _____ _____    ______ ____
ROOT
ATOM      1  C   UNL     1      -8.297  15.204  66.794  0.00  0.00    +0.172 A 
ATOM      2  C   UNL     1      -9.577  14.659  66.732  0.00  0.00    +0.168 A 
ATOM      3  O   UNL     1     -10.705  14.782  65.973  0.00  0.00    -0.469 OA
ATOM      4  C   UNL     1     -11.842  14.123  66.795  0.00  0.00    +0.226 C 
ATOM      5  C   UNL     1     -10.938  12.912  67.406  0.00  0.00    +0.068 C 
ATOM      6  C   UNL     1     -11.293  11.614  66.558  0.00  0.00    +0.023 C 
ATOM      7  C   UNL     1     -10.105  10.540  67.139  0.00  0.00    +0.062 C 
ATOM      8  N   UNL     1     -11.094  10.088  68.272  0.00  0.00    -0.272 NA
ATOM      9  C   UNL     1     -11.642  11.121  68.965  0.00  0.00    +0.073 C 
ATOM     10  C   UNL     1     -10.461   9.030  68.987  0.00  0.00    +0.090 C 
ATOM     11  C   UNL     1      -9.247  11.425  68.191  0.00  0.00    +0.042 C 
ATOM     12  C   UNL     1      -8.591  12.529  67.419  0.00  0.00    -0.022 A 
ATOM     13  C   UNL     1      -7.478  13.211  67.902  0.00  0.00    -0.001 A 
ATOM     14  C   UNL     1     -10.397  12.054  65.270  0.00  0.00    +0.010 C 
ATOM     15  C   UNL     1     -11.504  12.796  64.521  0.00  0.00    +0.068 C 
ATOM     16  C   UNL     1     -11.494  12.544  68.726  0.00  0.00    +0.025 C 
ATOM     17  C   UNL     1     -12.439  13.356  65.491  0.00  0.00    +0.191 C 
ATOM     18  O   UNL     1     -13.286  14.145  65.066  0.00  0.00    -0.292 OA
ATOM     19  C   UNL     1      -9.662  13.398  67.217  0.00  0.00    +0.014 A 
ATOM     20  C   UNL     1      -7.326  14.562  67.570  0.00  0.00    +0.040 A 
ENDROOT
BRANCH   1  22
ATOM     21  C   UNL     1      -7.457  17.422  66.149  0.00  0.00    +0.253 C 
ATOM     22  O   UNL     1      -8.076  16.374  66.202  0.00  0.00    -0.468 OA
ENDBRANCH   1  22
TORSDOF 1
ENDMDL
MODEL 7
REMARK VINA RESULT:      -6.0      2.721      5.325
REMARK  Name = 
REMARK  1 active torsions:
REMARK  status: ('A' for Active; 'I' for Inactive)
REMARK    1  A    between atoms: O_2  and  C_3
REMARK                            x       y       z     vdW  Elec       q    Type
REMARK                         _______ _______ _______ _____ _____    ______ ____
ROOT
ATOM      1  C   UNL     1     -10.916  12.092  64.140  0.00  0.00    +0.172 A 
ATOM      2  C   UNL     1     -10.437  11.871  65.429  0.00  0.00    +0.168 A 
ATOM      3  O   UNL     1      -9.349  11.310  66.034  0.00  0.00    -0.469 OA
ATOM      4  C   UNL     1      -9.753  11.095  67.515  0.00  0.00    +0.226 C 
ATOM      5  C   UNL     1     -10.629  12.463  67.659  0.00  0.00    +0.068 C 
ATOM      6  C   UNL     1      -9.713  13.504  68.439  0.00  0.00    +0.023 C 
ATOM      7  C   UNL     1     -10.653  14.914  68.275  0.00  0.00    +0.062 C 
ATOM      8  N   UNL     1     -11.398  14.549  69.608  0.00  0.00    -0.272 NA
ATOM      9  C   UNL     1     -11.872  13.276  69.641  0.00  0.00    +0.073 C 
ATOM     10  C   UNL     1     -12.284  15.627  69.906  0.00  0.00    +0.090 C 
ATOM     11  C   UNL     1     -11.928  14.445  67.392  0.00  0.00    +0.042 C 
ATOM     12  C   UNL     1     -11.412  14.027  66.049  0.00  0.00    -0.022 A 
ATOM     13  C   UNL     1     -12.234  13.967  64.925  0.00  0.00    -0.001 A 
ATOM     14  C   UNL     1      -8.790  13.858  67.143  0.00  0.00    +0.010 C 
ATOM     15  C   UNL     1      -7.718  12.795  67.385  0.00  0.00    +0.068 C 
ATOM     16  C   UNL     1     -11.693  12.225  68.658  0.00  0.00    +0.025 C 
ATOM     17  C   UNL     1      -8.326  11.653  68.061  0.00  0.00    +0.191 C 
ATOM     18  O   UNL     1      -7.646  10.631  68.161  0.00  0.00    -0.292 OA
ATOM     19  C   UNL     1     -10.869  12.777  66.338  0.00  0.00    +0.014 A 
ATOM     20  C   UNL     1     -11.968  12.995  63.955  0.00  0.00    +0.040 A 
ENDROOT
BRANCH   1  22
ATOM     21  C   UNL     1      -9.619  10.533  62.751  0.00  0.00    +0.253 C 
ATOM     22  O   UNL     1     -10.427  11.354  63.147  0.00  0.00    -0.468 OA
ENDBRANCH   1  22
TORSDOF 1
ENDMDL
MODEL 8
REMARK VINA RESULT:      -6.0      5.349      7.884
REMARK  Name = 
REMARK  1 active torsions:
REMARK  status: ('A' for Active; 'I' for Inactive)
REMARK    1  A    between atoms: O_2  and  C_3
REMARK                            x       y       z     vdW  Elec       q    Type
REMARK                         _______ _______ _______ _____ _____    ______ ____
ROOT
ATOM      1  C   UNL     1      -9.585  17.824  66.601  0.00  0.00    +0.172 A 
ATOM      2  C   UNL     1      -8.213  17.946  66.392  0.00  0.00    +0.168 A 
ATOM      3  O   UNL     1      -7.338  17.987  65.346  0.00  0.00    -0.469 OA
ATOM      4  C   UNL     1      -5.936  17.732  65.956  0.00  0.00    +0.226 C 
ATOM      5  C   UNL     1      -6.191  18.563  67.336  0.00  0.00    +0.068 C 
ATOM      6  C   UNL     1      -5.458  19.964  67.158  0.00  0.00    +0.023 C 
ATOM      7  C   UNL     1      -6.029  20.780  68.539  0.00  0.00    +0.062 C 
ATOM      8  N   UNL     1      -4.805  20.225  69.350  0.00  0.00    -0.272 NA
ATOM      9  C   UNL     1      -4.632  18.882  69.233  0.00  0.00    +0.073 C 
ATOM     10  C   UNL     1      -4.861  20.807  70.651  0.00  0.00    +0.090 C 
ATOM     11  C   UNL     1      -7.026  19.718  69.248  0.00  0.00    +0.042 C 
ATOM     12  C   UNL     1      -8.163  19.472  68.304  0.00  0.00    -0.022 A 
ATOM     13  C   UNL     1      -9.385  18.958  68.733  0.00  0.00    -0.001 A 
ATOM     14  C   UNL     1      -6.614  20.592  66.195  0.00  0.00    +0.010 C 
ATOM     15  C   UNL     1      -6.004  20.151  64.864  0.00  0.00    +0.068 C 
ATOM     16  C   UNL     1      -5.369  17.950  68.401  0.00  0.00    +0.025 C 
ATOM     17  C   UNL     1      -5.256  18.915  65.073  0.00  0.00    +0.191 C 
ATOM     18  O   UNL     1      -4.860  18.321  64.068  0.00  0.00    -0.292 OA
ATOM     19  C   UNL     1      -7.568  18.629  67.367  0.00  0.00    +0.014 A 
ATOM     20  C   UNL     1     -10.107  18.137  67.860  0.00  0.00    +0.040 A 
ENDROOT
BRANCH   1  22
ATOM     21  C   UNL     1     -10.866  16.341  65.117  0.00  0.00    +0.253 C 
ATOM     22  O   UNL     1     -10.331  17.310  65.628  0.00  0.00    -0.468 OA
ENDBRANCH   1  22
TORSDOF 1
ENDMDL
MODEL 9
REMARK VINA RESULT:      -5.9      2.866      4.015
REMARK  Name = 
REMARK  1 active torsions:
REMARK  status: ('A' for Active; 'I' for Inactive)
REMARK    1  A    between atoms: O_2  and  C_3
REMARK                            x       y       z     vdW  Elec       q    Type
REMARK                         _______ _______ _______ _____ _____    ______ ____
ROOT
ATOM      1  C   UNL     1      -6.925  15.583  69.342  0.00  0.00    +0.172 A 
ATOM      2  C   UNL     1      -8.165  16.087  68.959  0.00  0.00    +0.168 A 
ATOM      3  O   UNL     1      -8.756  17.300  68.750  0.00  0.00    -0.469 OA
ATOM      4  C   UNL     1     -10.282  17.031  68.733  0.00  0.00    +0.226 C 
ATOM      5  C   UNL     1     -10.199  15.593  67.968  0.00  0.00    +0.068 C 
ATOM      6  C   UNL     1     -10.599  15.867  66.453  0.00  0.00    +0.023 C 
ATOM      7  C   UNL     1     -10.216  14.358  65.763  0.00  0.00    +0.062 C 
ATOM      8  N   UNL     1     -11.674  13.867  66.075  0.00  0.00    -0.272 NA
ATOM      9  C   UNL     1     -12.062  14.080  67.360  0.00  0.00    +0.073 C 
ATOM     10  C   UNL     1     -11.809  12.561  65.517  0.00  0.00    +0.090 C 
ATOM     11  C   UNL     1      -9.623  13.493  66.998  0.00  0.00    +0.042 C 
ATOM     12  C   UNL     1      -8.366  14.168  67.455  0.00  0.00    -0.022 A 
ATOM     13  C   UNL     1      -7.392  13.501  68.194  0.00  0.00    -0.001 A 
ATOM     14  C   UNL     1      -9.158  16.517  66.056  0.00  0.00    +0.010 C 
ATOM     15  C   UNL     1      -9.518  17.969  66.370  0.00  0.00    +0.068 C 
ATOM     16  C   UNL     1     -11.342  14.768  68.414  0.00  0.00    +0.025 C 
ATOM     17  C   UNL     1     -10.511  17.990  67.441  0.00  0.00    +0.191 C 
ATOM     18  O   UNL     1     -10.770  19.084  67.946  0.00  0.00    -0.292 OA
ATOM     19  C   UNL     1      -8.878  15.252  68.167  0.00  0.00    +0.014 A 
ATOM     20  C   UNL     1      -6.655  14.225  69.136  0.00  0.00    +0.040 A 
ENDROOT
BRANCH   1  22
ATOM     21  C   UNL     1      -5.487  17.446  70.049  0.00  0.00    +0.253 C 
ATOM     22  O   UNL     1      -6.085  16.386  69.988  0.00  0.00    -0.468 OA
ENDBRANCH   1  22
TORSDOF 1
ENDMDL
