MODEL 1
REMARK VINA RESULT:      -6.5      0.000      0.000
REMARK  Name = 
REMARK  3 active torsions:
REMARK  status: ('A' for Active; 'I' for Inactive)
REMARK    1  A    between atoms: C_2  and  C_3
REMARK    2  A    between atoms: C_9  and  C_11
REMARK    3  A    between atoms: C_11  and  C_13
REMARK                            x       y       z     vdW  Elec       q    Type
REMARK                         _______ _______ _______ _____ _____    ______ ____
ROOT
ATOM      1  C   UNL     1      -8.632  15.700  66.429  0.00  0.00    +0.168 C 
ATOM      2  N   UNL     1      -7.888  14.546  67.204  0.00  0.00    -0.123 NA
ENDROOT
BRANCH   1   3
ATOM      3  C   UNL     1     -10.060  14.891  66.319  0.00  0.00    +0.027 C 
ATOM      4  C   UNL     1     -10.780  14.904  67.500  0.00  0.00    +0.002 C 
ATOM      5  C   UNL     1     -12.037  13.856  67.500  0.00  0.00    +0.002 C 
ATOM      6  C   UNL     1     -12.695  14.185  66.041  0.00  0.00    +0.030 C 
ATOM      7  C   UNL     1     -11.749  14.257  64.963  0.00  0.00    +0.127 C 
ATOM      8  C   UNL     1     -11.378  12.926  64.763  0.00  0.00    +0.030 C 
ATOM      9  C   UNL     1     -10.355  12.335  65.887  0.00  0.00    +0.002 C 
ATOM     10  O   UNL     1     -12.474  14.652  63.847  0.00  0.00    -0.226 OA
ATOM     11  C   UNL     1     -11.255  12.496  67.189  0.00  0.00    +0.000 C 
ATOM     12  C   UNL     1     -10.694  15.354  65.029  0.00  0.00    +0.032 C 
ATOM     13  C   UNL     1      -9.411  13.639  66.109  0.00  0.00    +0.002 C 
ENDBRANCH   1   3
BRANCH   1  16
ATOM     14  C   UNL     1      -7.593  18.981  67.690  0.00  0.00    +0.167 C 
ATOM     15  N   UNL     1      -8.563  17.843  67.268  0.00  0.00    -0.269 N 
ATOM     16  C   UNL     1      -8.925  16.601  67.740  0.00  0.00    +0.244 C 
ATOM     17  O   UNL     1      -8.488  16.268  68.839  0.00  0.00    -0.273 OA
ATOM     18  C   UNL     1      -9.382  18.773  66.311  0.00  0.00    +0.076 C 
ATOM     19  C   UNL     1      -9.595  20.064  67.408  0.00  0.00    +0.023 C 
ATOM     20  C   UNL     1     -10.773  18.822  67.310  0.00  0.00    +0.022 C 
ATOM     21  C   UNL     1      -8.818  19.414  68.689  0.00  0.00    +0.037 C 
BRANCH  14  23
ATOM     22  N   UNL     1      -6.076  18.653  69.581  0.00  0.00    -0.194 NA
ATOM     23  C   UNL     1      -6.797  18.159  68.813  0.00  0.00    +0.093 C 
ENDBRANCH  14  23
ENDBRANCH   1  16
TORSDOF 3
ENDMDL
MODEL 2
REMARK VINA RESULT:      -6.5      2.380      6.166
REMARK  Name = 
REMARK  3 active torsions:
REMARK  status: ('A' for Active; 'I' for Inactive)
REMARK    1  A    between atoms: C_2  and  C_3
REMARK    2  A    between atoms: C_9  and  C_11
REMARK    3  A    between atoms: C_11  and  C_13
REMARK                            x       y       z     vdW  Elec       q    Type
REMARK                         _______ _______ _______ _____ _____    ______ ____
ROOT
ATOM      1  C   UNL     1     -10.231  15.651  65.151  0.00  0.00    +0.168 C 
ATOM      2  N   UNL     1     -11.366  16.346  64.306  0.00  0.00    -0.123 NA
ENDROOT
BRANCH   1   3
ATOM      3  C   UNL     1     -10.060  16.903  66.204  0.00  0.00    +0.027 C 
ATOM      4  C   UNL     1     -10.443  18.118  65.666  0.00  0.00    +0.002 C 
ATOM      5  C   UNL     1      -9.991  19.399  66.579  0.00  0.00    +0.002 C 
ATOM      6  C   UNL     1     -10.454  18.884  68.058  0.00  0.00    +0.030 C 
ATOM      7  C   UNL     1     -10.065  17.537  68.370  0.00  0.00    +0.127 C 
ATOM      8  C   UNL     1      -8.687  17.633  68.571  0.00  0.00    +0.030 C 
ATOM      9  C   UNL     1      -7.814  17.782  67.201  0.00  0.00    +0.002 C 
ATOM     10  O   UNL     1     -10.639  17.250  69.601  0.00  0.00    -0.226 OA
ATOM     11  C   UNL     1      -8.414  19.144  66.640  0.00  0.00    +0.000 C 
ATOM     12  C   UNL     1     -10.646  16.423  67.510  0.00  0.00    +0.032 C 
ATOM     13  C   UNL     1      -8.640  16.765  66.240  0.00  0.00    +0.002 C 
ENDBRANCH   1   3
BRANCH   1  16
ATOM     14  C   UNL     1     -11.058  12.083  65.288  0.00  0.00    +0.167 C 
ATOM     15  N   UNL     1     -10.635  13.483  65.813  0.00  0.00    -0.269 N 
ATOM     16  C   UNL     1     -11.232  14.709  66.005  0.00  0.00    +0.244 C 
ATOM     17  O   UNL     1     -12.447  14.774  65.840  0.00  0.00    -0.273 OA
ATOM     18  C   UNL     1      -9.345  12.932  66.509  0.00  0.00    +0.076 C 
ATOM     19  C   UNL     1     -10.087  11.622  67.314  0.00  0.00    +0.023 C 
ATOM     20  C   UNL     1      -9.941  13.138  68.103  0.00  0.00    +0.022 C 
ATOM     21  C   UNL     1     -11.620  11.876  66.813  0.00  0.00    +0.037 C 
BRANCH  14  23
ATOM     22  N   UNL     1     -12.856  12.191  63.633  0.00  0.00    -0.194 NA
ATOM     23  C   UNL     1     -12.478  12.515  64.685  0.00  0.00    +0.093 C 
ENDBRANCH  14  23
ENDBRANCH   1  16
TORSDOF 3
ENDMDL
MODEL 3
REMARK VINA RESULT:      -6.2      1.919      5.787
REMARK  Name = 
REMARK  3 active torsions:
REMARK  status: ('A' for Active; 'I' for Inactive)
REMARK    1  A    between atoms: C_2  and  C_3
REMARK    2  A    between atoms: C_9  and  C_11
REMARK    3  A    between atoms: C_11  and  C_13
REMARK                            x       y       z     vdW  Elec       q    Type
REMARK                         _______ _______ _______ _____ _____    ______ ____
ROOT
ATOM      1  C   UNL     1     -10.293  15.640  68.004  0.00  0.00    +0.168 C 
ATOM      2  N   UNL     1      -9.055  15.201  68.875  0.00  0.00    -0.123 NA
ENDROOT
BRANCH   1   3
ATOM      3  C   UNL     1      -9.643  17.085  67.562  0.00  0.00    +0.027 C 
ATOM      4  C   UNL     1      -8.263  17.053  67.478  0.00  0.00    +0.002 C 
ATOM      5  C   UNL     1      -7.591  18.539  67.346  0.00  0.00    +0.002 C 
ATOM      6  C   UNL     1      -8.548  19.195  66.196  0.00  0.00    +0.030 C 
ATOM      7  C   UNL     1      -9.955  18.999  66.407  0.00  0.00    +0.127 C 
ATOM      8  C   UNL     1     -10.246  19.850  67.475  0.00  0.00    +0.030 C 
ATOM      9  C   UNL     1      -9.748  19.305  68.929  0.00  0.00    +0.002 C 
ATOM     10  O   UNL     1     -10.585  19.519  65.285  0.00  0.00    -0.226 OA
ATOM     11  C   UNL     1      -8.181  19.221  68.667  0.00  0.00    +0.000 C 
ATOM     12  C   UNL     1     -10.472  17.567  66.395  0.00  0.00    +0.032 C 
ATOM     13  C   UNL     1     -10.086  17.725  68.758  0.00  0.00    +0.002 C 
ENDBRANCH   1   3
BRANCH   1  16
ATOM     14  C   UNL     1     -11.084  12.297  66.726  0.00  0.00    +0.167 C 
ATOM     15  N   UNL     1     -10.928  13.843  66.713  0.00  0.00    -0.269 N 
ATOM     16  C   UNL     1      -9.894  14.751  66.712  0.00  0.00    +0.244 C 
ATOM     17  O   UNL     1      -8.756  14.307  66.585  0.00  0.00    -0.273 OA
ATOM     18  C   UNL     1     -12.401  14.077  66.234  0.00  0.00    +0.076 C 
ATOM     19  C   UNL     1     -12.385  12.948  64.954  0.00  0.00    +0.023 C 
ATOM     20  C   UNL     1     -11.963  14.583  64.657  0.00  0.00    +0.022 C 
ATOM     21  C   UNL     1     -10.843  12.436  65.111  0.00  0.00    +0.037 C 
BRANCH  14  23
ATOM     22  N   UNL     1      -9.230  11.218  67.903  0.00  0.00    -0.194 NA
ATOM     23  C   UNL     1      -9.555  11.945  67.054  0.00  0.00    +0.093 C 
ENDBRANCH  14  23
ENDBRANCH   1  16
TORSDOF 3
ENDMDL
MODEL 4
REMARK VINA RESULT:      -6.1      2.216      5.987
REMARK  Name = 
REMARK  3 active torsions:
REMARK  status: ('A' for Active; 'I' for Inactive)
REMARK    1  A    between atoms: C_2  and  C_3
REMARK    2  A    between atoms: C_9  and  C_11
REMARK    3  A    between atoms: C_11  and  C_13
REMARK                            x       y       z     vdW  Elec       q    Type
REMARK                         _______ _______ _______ _____ _____    ______ ____
ROOT
ATOM      1  C   UNL     1      -9.005  15.904  67.108  0.00  0.00    +0.168 C 
ATOM      2  N   UNL     1      -9.124  16.095  65.547  0.00  0.00    -0.123 NA
ENDROOT
BRANCH   1   3
ATOM      3  C   UNL     1      -9.124  17.509  67.450  0.00  0.00    +0.027 C 
ATOM      4  C   UNL     1     -10.431  17.959  67.481  0.00  0.00    +0.002 C 
ATOM      5  C   UNL     1     -10.550  19.591  67.510  0.00  0.00    +0.002 C 
ATOM      6  C   UNL     1      -9.449  19.946  68.663  0.00  0.00    +0.030 C 
ATOM      7  C   UNL     1      -8.193  19.266  68.518  0.00  0.00    +0.127 C 
ATOM      8  C   UNL     1      -7.603  19.898  67.421  0.00  0.00    +0.030 C 
ATOM      9  C   UNL     1      -8.231  19.469  65.978  0.00  0.00    +0.002 C 
ATOM     10  O   UNL     1      -7.444  19.605  69.636  0.00  0.00    -0.226 OA
ATOM     11  C   UNL     1      -9.735  19.946  66.181  0.00  0.00    +0.000 C 
ATOM     12  C   UNL     1      -8.203  17.746  68.623  0.00  0.00    +0.032 C 
ATOM     13  C   UNL     1      -8.464  17.883  66.242  0.00  0.00    +0.002 C 
ENDBRANCH   1   3
BRANCH   1  16
ATOM     14  C   UNL     1     -10.775  13.156  68.765  0.00  0.00    +0.167 C 
ATOM     15  N   UNL     1     -10.407  14.623  68.408  0.00  0.00    -0.269 N 
ATOM     16  C   UNL     1     -10.546  15.461  67.325  0.00  0.00    +0.244 C 
ATOM     17  O   UNL     1     -11.219  15.053  66.382  0.00  0.00    -0.273 OA
ATOM     18  C   UNL     1     -10.198  15.030  69.906  0.00  0.00    +0.076 C 
ATOM     19  C   UNL     1     -11.650  14.364  70.507  0.00  0.00    +0.023 C 
ATOM     20  C   UNL     1     -11.608  15.999  69.992  0.00  0.00    +0.022 C 
ATOM     21  C   UNL     1     -12.248  13.793  69.099  0.00  0.00    +0.037 C 
BRANCH  14  23
ATOM     22  N   UNL     1     -11.922  11.821  67.066  0.00  0.00    -0.194 NA
ATOM     23  C   UNL     1     -11.172  12.683  67.286  0.00  0.00    +0.093 C 
ENDBRANCH  14  23
ENDBRANCH   1  16
TORSDOF 3
ENDMDL
MODEL 5
REMARK VINA RESULT:      -6.1      3.887      6.216
REMARK  Name = 
REMARK  3 active torsions:
REMARK  status: ('A' for Active; 'I' for Inactive)
REMARK    1  A    between atoms: C_2  and  C_3
REMARK    2  A    between atoms: C_9  and  C_11
REMARK    3  A    between atoms: C_11  and  C_13
REMARK                            x       y       z     vdW  Elec       q    Type
REMARK                         _______ _______ _______ _____ _____    ______ ____
ROOT
ATOM      1  C   UNL     1     -10.949  15.230  69.620  0.00  0.00    +0.168 C 
ATOM      2  N   UNL     1     -11.653  16.517  69.041  0.00  0.00    -0.123 NA
ENDROOT
BRANCH   1   3
ATOM      3  C   UNL     1     -12.171  14.862  70.658  0.00  0.00    +0.027 C 
ATOM      4  C   UNL     1     -13.319  15.597  70.423  0.00  0.00    +0.002 C 
ATOM      5  C   UNL     1     -14.422  15.470  71.625  0.00  0.00    +0.002 C 
ATOM      6  C   UNL     1     -14.421  13.853  71.857  0.00  0.00    +0.030 C 
ATOM      7  C   UNL     1     -13.114  13.263  71.942  0.00  0.00    +0.127 C 
ATOM      8  C   UNL     1     -12.647  13.684  73.189  0.00  0.00    +0.030 C 
ATOM      9  C   UNL     1     -12.167  15.242  73.239  0.00  0.00    +0.002 C 
ATOM     10  O   UNL     1     -13.318  11.893  72.023  0.00  0.00    -0.226 OA
ATOM     11  C   UNL     1     -13.535  15.962  72.860  0.00  0.00    +0.000 C 
ATOM     12  C   UNL     1     -12.222  13.354  70.710  0.00  0.00    +0.032 C 
ATOM     13  C   UNL     1     -11.449  15.354  71.786  0.00  0.00    +0.002 C 
ENDBRANCH   1   3
BRANCH   1  16
ATOM     14  C   UNL     1      -9.507  14.362  66.363  0.00  0.00    +0.167 C 
ATOM     15  N   UNL     1     -10.113  14.134  67.776  0.00  0.00    -0.269 N 
ATOM     16  C   UNL     1     -11.343  14.270  68.379  0.00  0.00    +0.244 C 
ATOM     17  O   UNL     1     -12.296  14.542  67.654  0.00  0.00    -0.273 OA
ATOM     18  C   UNL     1      -8.920  13.231  68.239  0.00  0.00    +0.076 C 
ATOM     19  C   UNL     1      -8.884  12.214  66.869  0.00  0.00    +0.023 C 
ATOM     20  C   UNL     1      -9.827  11.777  68.233  0.00  0.00    +0.022 C 
ATOM     21  C   UNL     1     -10.130  12.880  66.050  0.00  0.00    +0.037 C 
BRANCH  14  23
ATOM     22  N   UNL     1     -10.644  15.970  64.912  0.00  0.00    -0.194 NA
ATOM     23  C   UNL     1     -10.751  15.159  65.740  0.00  0.00    +0.093 C 
ENDBRANCH  14  23
ENDBRANCH   1  16
TORSDOF 3
ENDMDL
MODEL 6
REMARK VINA RESULT:      -5.9      2.783      6.937
REMARK  Name = 
REMARK  3 active torsions:
REMARK  status: ('A' for Active; 'I' for Inactive)
REMARK    1  A    between atoms: C_2  and  C_3
REMARK    2  A    between atoms: C_9  and  C_11
REMARK    3  A    between atoms: C_11  and  C_13
REMARK                            x       y       z     vdW  Elec       q    Type
REMARK                         _______ _______ _______ _____ _____    ______ ____
ROOT
ATOM      1  C   UNL     1      -6.930  17.300  68.163  0.00  0.00    +0.168 C 
ATOM      2  N   UNL     1      -5.895  16.454  67.328  0.00  0.00    -0.123 NA
ENDROOT
BRANCH   1   3
ATOM      3  C   UNL     1      -5.898  18.552  68.431  0.00  0.00    +0.027 C 
ATOM      4  C   UNL     1      -5.633  19.287  67.289  0.00  0.00    +0.002 C 
ATOM      5  C   UNL     1      -4.384  20.329  67.470  0.00  0.00    +0.002 C 
ATOM      6  C   UNL     1      -4.770  21.006  68.906  0.00  0.00    +0.030 C 
ATOM      7  C   UNL     1      -5.146  20.067  69.926  0.00  0.00    +0.127 C 
ATOM      8  C   UNL     1      -3.939  19.454  70.267  0.00  0.00    +0.030 C 
ATOM      9  C   UNL     1      -3.405  18.363  69.178  0.00  0.00    +0.002 C 
ATOM     10  O   UNL     1      -5.541  20.829  71.017  0.00  0.00    -0.226 OA
ATOM     11  C   UNL     1      -3.237  19.305  67.907  0.00  0.00    +0.000 C 
ATOM     12  C   UNL     1      -6.397  19.233  69.683  0.00  0.00    +0.032 C 
ATOM     13  C   UNL     1      -4.819  17.679  68.761  0.00  0.00    +0.002 C 
ENDBRANCH   1   3
BRANCH   1  16
ATOM     14  C   UNL     1     -10.409  17.367  67.010  0.00  0.00    +0.167 C 
ATOM     15  N   UNL     1      -9.008  17.921  67.391  0.00  0.00    -0.269 N 
ATOM     16  C   UNL     1      -7.731  17.872  66.880  0.00  0.00    +0.244 C 
ATOM     17  O   UNL     1      -7.589  17.359  65.773  0.00  0.00    -0.273 OA
ATOM     18  C   UNL     1      -9.599  18.988  68.374  0.00  0.00    +0.076 C 
ATOM     19  C   UNL     1     -10.789  19.607  67.317  0.00  0.00    +0.023 C 
ATOM     20  C   UNL     1      -9.234  20.328  67.371  0.00  0.00    +0.022 C 
ATOM     21  C   UNL     1     -10.461  18.672  66.020  0.00  0.00    +0.037 C 
BRANCH  14  23
ATOM     22  N   UNL     1     -10.592  16.011  64.982  0.00  0.00    -0.194 NA
ATOM     23  C   UNL     1      -9.919  16.357  65.865  0.00  0.00    +0.093 C 
ENDBRANCH  14  23
ENDBRANCH   1  16
TORSDOF 3
ENDMDL
MODEL 7
REMARK VINA RESULT:      -5.9      2.189      6.045
REMARK  Name = 
REMARK  3 active torsions:
REMARK  status: ('A' for Active; 'I' for Inactive)
REMARK    1  A    between atoms: C_2  and  C_3
REMARK    2  A    between atoms: C_9  and  C_11
REMARK    3  A    between atoms: C_11  and  C_13
REMARK                            x       y       z     vdW  Elec       q    Type
REMARK                         _______ _______ _______ _____ _____    ______ ____
ROOT
ATOM      1  C   UNL     1      -9.855  17.772  67.422  0.00  0.00    +0.168 C 
ATOM      2  N   UNL     1     -10.196  18.566  68.740  0.00  0.00    -0.123 NA
ENDROOT
BRANCH   1   3
ATOM      3  C   UNL     1      -8.293  18.284  67.355  0.00  0.00    +0.027 C 
ATOM      4  C   UNL     1      -7.895  18.955  68.497  0.00  0.00    +0.002 C 
ATOM      5  C   UNL     1      -6.465  19.731  68.323  0.00  0.00    +0.002 C 
ATOM      6  C   UNL     1      -5.577  18.558  67.613  0.00  0.00    +0.030 C 
ATOM      7  C   UNL     1      -6.232  17.891  66.523  0.00  0.00    +0.127 C 
ATOM      8  C   UNL     1      -6.225  18.846  65.504  0.00  0.00    +0.030 C 
ATOM      9  C   UNL     1      -7.317  20.042  65.692  0.00  0.00    +0.002 C 
ATOM     10  O   UNL     1      -5.378  16.869  66.132  0.00  0.00    -0.226 OA
ATOM     11  C   UNL     1      -6.812  20.660  67.069  0.00  0.00    +0.000 C 
ATOM     12  C   UNL     1      -7.499  17.107  66.840  0.00  0.00    +0.032 C 
ATOM     13  C   UNL     1      -8.564  19.182  66.280  0.00  0.00    +0.002 C 
ENDBRANCH   1   3
BRANCH   1  16
ATOM     14  C   UNL     1     -11.942  14.875  68.250  0.00  0.00    +0.167 C 
ATOM     15  N   UNL     1     -10.735  15.658  67.664  0.00  0.00    -0.269 N 
ATOM     16  C   UNL     1      -9.646  16.344  68.153  0.00  0.00    +0.244 C 
ATOM     17  O   UNL     1      -9.441  16.283  69.362  0.00  0.00    -0.273 OA
ATOM     18  C   UNL     1     -10.903  15.029  66.240  0.00  0.00    +0.076 C 
ATOM     19  C   UNL     1     -11.033  13.404  66.745  0.00  0.00    +0.023 C 
ATOM     20  C   UNL     1      -9.498  14.054  66.344  0.00  0.00    +0.022 C 
ATOM     21  C   UNL     1     -10.867  13.643  68.351  0.00  0.00    +0.037 C 
BRANCH  14  23
ATOM     22  N   UNL     1     -12.591  15.855  70.395  0.00  0.00    -0.194 NA
ATOM     23  C   UNL     1     -11.757  15.333  69.775  0.00  0.00    +0.093 C 
ENDBRANCH  14  23
ENDBRANCH   1  16
TORSDOF 3
ENDMDL
MODEL 8
REMARK VINA RESULT:      -5.7      2.362      6.699
REMARK  Name = 
REMARK  3 active torsions:
REMARK  status: ('A' for Active; 'I' for Inactive)
REMARK    1  A    between atoms: C_2  and  C_3
REMARK    2  A    between atoms: C_9  and  C_11
REMARK    3  A    between atoms: C_11  and  C_13
REMARK                            x       y       z     vdW  Elec       q    Type
REMARK                         _______ _______ _______ _____ _____    ______ ____
ROOT
ATOM      1  C   UNL     1      -7.308  17.675  66.113  0.00  0.00    +0.168 C 
ATOM      2  N   UNL     1      -7.567  19.109  65.513  0.00  0.00    -0.123 NA
ENDROOT
BRANCH   1   3
ATOM      3  C   UNL     1      -6.543  18.227  67.461  0.00  0.00    +0.027 C 
ATOM      4  C   UNL     1      -7.412  18.755  68.398  0.00  0.00    +0.002 C 
ATOM      5  C   UNL     1      -6.653  19.580  69.589  0.00  0.00    +0.002 C 
ATOM      6  C   UNL     1      -5.458  18.529  69.961  0.00  0.00    +0.030 C 
ATOM      7  C   UNL     1      -4.761  17.993  68.826  0.00  0.00    +0.127 C 
ATOM      8  C   UNL     1      -3.998  19.071  68.372  0.00  0.00    +0.030 C 
ATOM      9  C   UNL     1      -4.847  20.207  67.567  0.00  0.00    +0.002 C 
ATOM     10  O   UNL     1      -3.877  17.051  69.332  0.00  0.00    -0.226 OA
ATOM     11  C   UNL     1      -5.859  20.654  68.711  0.00  0.00    +0.000 C 
ATOM     12  C   UNL     1      -5.562  17.145  67.847  0.00  0.00    +0.032 C 
ATOM     13  C   UNL     1      -5.863  19.250  66.735  0.00  0.00    +0.002 C 
ENDBRANCH   1   3
BRANCH   1  16
ATOM     14  C   UNL     1     -10.069  15.308  65.654  0.00  0.00    +0.167 C 
ATOM     15  N   UNL     1      -9.010  16.154  66.414  0.00  0.00    -0.269 N 
ATOM     16  C   UNL     1      -8.802  17.483  66.704  0.00  0.00    +0.244 C 
ATOM     17  O   UNL     1      -9.698  18.269  66.408  0.00  0.00    -0.273 OA
ATOM     18  C   UNL     1      -8.432  14.912  67.173  0.00  0.00    +0.076 C 
ATOM     19  C   UNL     1      -9.927  14.273  67.695  0.00  0.00    +0.023 C 
ATOM     20  C   UNL     1      -9.067  15.366  68.699  0.00  0.00    +0.022 C 
ATOM     21  C   UNL     1     -10.905  15.415  67.059  0.00  0.00    +0.037 C 
BRANCH  14  23
ATOM     22  N   UNL     1     -11.533  16.406  64.030  0.00  0.00    -0.194 NA
ATOM     23  C   UNL     1     -10.836  16.529  64.954  0.00  0.00    +0.093 C 
ENDBRANCH  14  23
ENDBRANCH   1  16
TORSDOF 3
ENDMDL
MODEL 9
REMARK VINA RESULT:      -5.7      3.338      5.354
REMARK  Name = 
REMARK  3 active torsions:
REMARK  status: ('A' for Active; 'I' for Inactive)
REMARK    1  A    between atoms: C_2  and  C_3
REMARK    2  A    between atoms: C_9  and  C_11
REMARK    3  A    between atoms: C_11  and  C_13
REMARK                            x       y       z     vdW  Elec       q    Type
REMARK                         _______ _______ _______ _____ _____    ______ ____
ROOT
ATOM      1  C   UNL     1      -6.279  18.584  67.492  0.00  0.00    +0.168 C 
ATOM      2  N   UNL     1      -6.366  18.999  69.011  0.00  0.00    -0.123 NA
ENDROOT
BRANCH   1   3
ATOM      3  C   UNL     1      -7.887  18.776  67.207  0.00  0.00    +0.027 C 
ATOM      4  C   UNL     1      -8.247  20.096  67.005  0.00  0.00    +0.002 C 
ATOM      5  C   UNL     1      -9.865  20.335  67.030  0.00  0.00    +0.002 C 
ATOM      6  C   UNL     1     -10.359  19.110  66.067  0.00  0.00    +0.030 C 
ATOM      7  C   UNL     1      -9.761  17.839  66.365  0.00  0.00    +0.127 C 
ATOM      8  C   UNL     1     -10.371  17.463  67.563  0.00  0.00    +0.030 C 
ATOM      9  C   UNL     1      -9.822  18.256  68.879  0.00  0.00    +0.002 C 
ATOM     10  O   UNL     1     -10.211  16.967  65.384  0.00  0.00    -0.226 OA
ATOM     11  C   UNL     1     -10.203  19.748  68.478  0.00  0.00    +0.000 C 
ATOM     12  C   UNL     1      -8.252  17.717  66.193  0.00  0.00    +0.032 C 
ATOM     13  C   UNL     1      -8.240  18.326  68.514  0.00  0.00    +0.002 C 
ENDBRANCH   1   3
BRANCH   1  16
ATOM     14  C   UNL     1      -3.374  19.808  65.622  0.00  0.00    +0.167 C 
ATOM     15  N   UNL     1      -4.871  19.604  65.983  0.00  0.00    -0.269 N 
ATOM     16  C   UNL     1      -5.734  20.016  66.973  0.00  0.00    +0.244 C 
ATOM     17  O   UNL     1      -5.317  20.854  67.769  0.00  0.00    -0.273 OA
ATOM     18  C   UNL     1      -5.241  19.101  64.547  0.00  0.00    +0.076 C 
ATOM     19  C   UNL     1      -4.467  20.352  63.682  0.00  0.00    +0.023 C 
ATOM     20  C   UNL     1      -6.118  20.510  64.120  0.00  0.00    +0.022 C 
ATOM     21  C   UNL     1      -3.907  21.206  64.955  0.00  0.00    +0.037 C 
BRANCH  14  23
ATOM     22  N   UNL     1      -2.021  21.212  67.100  0.00  0.00    -0.194 NA
ATOM     23  C   UNL     1      -2.926  20.487  67.004  0.00  0.00    +0.093 C 
ENDBRANCH  14  23
ENDBRANCH   1  16
TORSDOF 3
ENDMDL
