MODEL 1
REMARK VINA RESULT:      -6.5      0.000      0.000
REMARK  Name = 
REMARK  4 active torsions:
REMARK  status: ('A' for Active; 'I' for Inactive)
REMARK    1  A    between atoms: O_2  and  C_3
REMARK    2  A    between atoms: C_8  and  O_9
REMARK    3  A    between atoms: C_15  and  C_16
REMARK    4  A    between atoms: C_16  and  C_17
REMARK                            x       y       z     vdW  Elec       q    Type
REMARK                         _______ _______ _______ _____ _____    ______ ____
ROOT
ATOM      1  C   UNL     1     -11.945  15.143  69.642  0.00  0.00    +0.172 A 
ATOM      2  C   UNL     1     -12.241  13.810  69.363  0.00  0.00    +0.172 A 
ATOM      3  C   UNL     1     -12.178  13.434  68.018  0.00  0.00    +0.037 A 
ATOM      4  C   UNL     1     -12.007  14.422  67.095  0.00  0.00    -0.008 A 
ATOM      5  C   UNL     1     -11.466  14.050  65.624  0.00  0.00    +0.087 C 
ATOM      6  N   UNL     1     -10.222  13.279  66.204  0.00  0.00    -0.269 NA
ATOM      7  C   UNL     1      -9.260  14.313  66.294  0.00  0.00    +0.077 C 
ATOM      8  C   UNL     1      -9.878  15.667  66.644  0.00  0.00    +0.044 C 
ATOM      9  C   UNL     1      -9.982  12.148  65.440  0.00  0.00    +0.080 C 
ATOM     10  C   UNL     1     -10.302  12.450  63.869  0.00  0.00    +0.074 C 
ATOM     11  C   UNL     1     -11.901  12.425  64.069  0.00  0.00    +0.153 C 
ATOM     12  O   UNL     1     -12.332  13.263  63.270  0.00  0.00    -0.296 OA
ATOM     13  C   UNL     1     -12.347  12.665  65.492  0.00  0.00    +0.085 C 
ATOM     14  C   UNL     1     -11.147  15.476  67.429  0.00  0.00    -0.020 A 
ATOM     15  C   UNL     1     -11.308  15.964  68.714  0.00  0.00    +0.036 A 
ENDROOT
BRANCH   1  17
ATOM     16  C   UNL     1     -11.763  16.151  71.762  0.00  0.00    +0.253 C 
ATOM     17  O   UNL     1     -12.463  15.663  70.835  0.00  0.00    -0.468 OA
ENDBRANCH   1  17
BRANCH   2  18
ATOM     18  O   UNL     1     -11.914  12.918  70.393  0.00  0.00    -0.468 OA
ATOM     19  C   UNL     1     -12.007  11.503  70.229  0.00  0.00    +0.253 C 
ENDBRANCH   2  18
BRANCH  10  20
ATOM     20  C   UNL     1     -10.282  10.862  63.482  0.00  0.00    +0.009 C 
BRANCH  20  21
ATOM     21  C   UNL     1      -8.823  10.540  63.266  0.00  0.00    +0.000 C 
ATOM     22  C   UNL     1      -8.593   9.112  63.673  0.00  0.00    +0.000 C 
ATOM     23  C   UNL     1      -8.440  10.814  61.840  0.00  0.00    +0.000 C 
ENDBRANCH  20  21
ENDBRANCH  10  20
TORSDOF 4
ENDMDL
MODEL 2
REMARK VINA RESULT:      -6.3      2.051      6.803
REMARK  Name = 
REMARK  4 active torsions:
REMARK  status: ('A' for Active; 'I' for Inactive)
REMARK    1  A    between atoms: O_2  and  C_3
REMARK    2  A    between atoms: C_8  and  O_9
REMARK    3  A    between atoms: C_15  and  C_16
REMARK    4  A    between atoms: C_16  and  C_17
REMARK                            x       y       z     vdW  Elec       q    Type
REMARK                         _______ _______ _______ _____ _____    ______ ____
ROOT
ATOM      1  C   UNL     1     -10.032  11.104  63.826  0.00  0.00    +0.172 A 
ATOM      2  C   UNL     1      -9.785  10.719  65.142  0.00  0.00    +0.172 A 
ATOM      3  C   UNL     1      -9.833  11.734  66.101  0.00  0.00    +0.037 A 
ATOM      4  C   UNL     1      -9.945  13.018  65.655  0.00  0.00    -0.008 A 
ATOM      5  C   UNL     1     -10.469  14.165  66.657  0.00  0.00    +0.087 C 
ATOM      6  N   UNL     1     -11.755  13.340  67.035  0.00  0.00    -0.269 NA
ATOM      7  C   UNL     1     -12.676  13.778  66.055  0.00  0.00    +0.077 C 
ATOM      8  C   UNL     1     -12.012  14.077  64.711  0.00  0.00    +0.044 C 
ATOM      9  C   UNL     1     -12.024  13.497  68.385  0.00  0.00    +0.080 C 
ATOM     10  C   UNL     1     -11.658  15.014  68.861  0.00  0.00    +0.074 C 
ATOM     11  C   UNL     1     -10.067  14.766  68.830  0.00  0.00    +0.153 C 
ATOM     12  O   UNL     1      -9.585  15.846  68.474  0.00  0.00    -0.296 OA
ATOM     13  C   UNL     1      -9.641  13.603  67.965  0.00  0.00    +0.085 C 
ATOM     14  C   UNL     1     -10.769  13.246  64.545  0.00  0.00    -0.020 A 
ATOM     15  C   UNL     1     -10.616  12.332  63.517  0.00  0.00    +0.036 A 
ENDROOT
BRANCH   1  17
ATOM     16  C   UNL     1      -8.643  10.622  61.987  0.00  0.00    +0.253 C 
ATOM     17  O   UNL     1      -9.520  10.273  62.822  0.00  0.00    -0.468 OA
ENDBRANCH   1  17
BRANCH   2  18
ATOM     18  O   UNL     1     -10.170   9.405  65.441  0.00  0.00    -0.468 OA
ATOM     19  C   UNL     1     -10.224   8.916  66.781  0.00  0.00    +0.253 C 
ENDBRANCH   2  18
BRANCH  10  20
ATOM     20  C   UNL     1     -11.734  14.617  70.445  0.00  0.00    +0.009 C 
BRANCH  20  21
ATOM     21  C   UNL     1     -12.620  15.672  71.061  0.00  0.00    +0.000 C 
ATOM     22  C   UNL     1     -13.965  15.056  71.328  0.00  0.00    +0.000 C 
ATOM     23  C   UNL     1     -11.974  16.230  72.296  0.00  0.00    +0.000 C 
ENDBRANCH  20  21
ENDBRANCH  10  20
TORSDOF 4
ENDMDL
MODEL 3
REMARK VINA RESULT:      -6.1      3.948      6.066
REMARK  Name = 
REMARK  4 active torsions:
REMARK  status: ('A' for Active; 'I' for Inactive)
REMARK    1  A    between atoms: O_2  and  C_3
REMARK    2  A    between atoms: C_8  and  O_9
REMARK    3  A    between atoms: C_15  and  C_16
REMARK    4  A    between atoms: C_16  and  C_17
REMARK                            x       y       z     vdW  Elec       q    Type
REMARK                         _______ _______ _______ _____ _____    ______ ____
ROOT
ATOM      1  C   UNL     1      -7.237  19.964  67.775  0.00  0.00    +0.172 A 
ATOM      2  C   UNL     1      -6.934  18.692  68.259  0.00  0.00    +0.172 A 
ATOM      3  C   UNL     1      -8.023  17.850  68.499  0.00  0.00    +0.037 A 
ATOM      4  C   UNL     1      -9.271  18.390  68.407  0.00  0.00    -0.008 A 
ATOM      5  C   UNL     1     -10.543  17.423  68.206  0.00  0.00    +0.087 C 
ATOM      6  N   UNL     1      -9.890  16.714  66.962  0.00  0.00    -0.269 NA
ATOM      7  C   UNL     1     -10.343  17.528  65.897  0.00  0.00    +0.077 C 
ATOM      8  C   UNL     1     -10.462  19.001  66.287  0.00  0.00    +0.044 C 
ATOM      9  C   UNL     1     -10.182  15.360  66.996  0.00  0.00    +0.080 C 
ATOM     10  C   UNL     1     -11.686  15.121  67.582  0.00  0.00    +0.074 C 
ATOM     11  C   UNL     1     -11.271  15.446  69.105  0.00  0.00    +0.153 C 
ATOM     12  O   UNL     1     -12.263  15.998  69.592  0.00  0.00    -0.296 OA
ATOM     13  C   UNL     1     -10.004  16.259  69.238  0.00  0.00    +0.085 C 
ATOM     14  C   UNL     1      -9.495  19.329  67.392  0.00  0.00    -0.020 A 
ATOM     15  C   UNL     1      -8.490  20.270  67.247  0.00  0.00    +0.036 A 
ENDROOT
BRANCH   1  17
ATOM     16  C   UNL     1      -5.601  21.508  67.081  0.00  0.00    +0.253 C 
ATOM     17  O   UNL     1      -6.279  20.962  67.992  0.00  0.00    -0.468 OA
ENDBRANCH   1  17
BRANCH   2  18
ATOM     18  O   UNL     1      -5.696  18.192  67.833  0.00  0.00    -0.468 OA
ATOM     19  C   UNL     1      -5.502  17.660  66.524  0.00  0.00    +0.253 C 
ENDBRANCH   2  18
BRANCH  10  20
ATOM     20  C   UNL     1     -11.427  13.523  67.807  0.00  0.00    +0.009 C 
BRANCH  20  21
ATOM     21  C   UNL     1     -11.120  12.989  66.428  0.00  0.00    +0.000 C 
ATOM     22  C   UNL     1     -10.493  11.632  66.581  0.00  0.00    +0.000 C 
ATOM     23  C   UNL     1     -12.368  12.969  65.594  0.00  0.00    +0.000 C 
ENDBRANCH  20  21
ENDBRANCH  10  20
TORSDOF 4
ENDMDL
MODEL 4
REMARK VINA RESULT:      -6.0      3.337      6.386
REMARK  Name = 
REMARK  4 active torsions:
REMARK  status: ('A' for Active; 'I' for Inactive)
REMARK    1  A    between atoms: O_2  and  C_3
REMARK    2  A    between atoms: C_8  and  O_9
REMARK    3  A    between atoms: C_15  and  C_16
REMARK    4  A    between atoms: C_16  and  C_17
REMARK                            x       y       z     vdW  Elec       q    Type
REMARK                         _______ _______ _______ _____ _____    ______ ____
ROOT
ATOM      1  C   UNL     1     -11.132  12.860  67.366  0.00  0.00    +0.172 A 
ATOM      2  C   UNL     1     -10.823  13.504  66.169  0.00  0.00    +0.172 A 
ATOM      3  C   UNL     1     -10.672  14.892  66.238  0.00  0.00    +0.037 A 
ATOM      4  C   UNL     1     -11.003  15.504  67.410  0.00  0.00    -0.008 A 
ATOM      5  C   UNL     1     -10.432  16.977  67.726  0.00  0.00    +0.087 C 
ATOM      6  N   UNL     1      -8.947  16.532  67.454  0.00  0.00    -0.269 NA
ATOM      7  C   UNL     1      -8.537  16.099  68.736  0.00  0.00    +0.077 C 
ATOM      8  C   UNL     1      -9.669  15.450  69.532  0.00  0.00    +0.044 C 
ATOM      9  C   UNL     1      -8.273  17.549  66.796  0.00  0.00    +0.080 C 
ATOM     10  C   UNL     1      -8.776  19.003  67.339  0.00  0.00    +0.074 C 
ATOM     11  C   UNL     1     -10.187  18.935  66.564  0.00  0.00    +0.153 C 
ATOM     12  O   UNL     1     -10.985  19.513  67.309  0.00  0.00    -0.296 OA
ATOM     13  C   UNL     1     -10.618  17.537  66.189  0.00  0.00    +0.085 C 
ATOM     14  C   UNL     1     -10.680  14.840  68.600  0.00  0.00    -0.020 A 
ATOM     15  C   UNL     1     -10.972  13.487  68.600  0.00  0.00    +0.036 A 
ENDROOT
BRANCH   1  17
ATOM     16  C   UNL     1     -11.301  10.541  67.736  0.00  0.00    +0.253 C 
ATOM     17  O   UNL     1     -11.762  11.613  67.262  0.00  0.00    -0.468 OA
ENDBRANCH   1  17
BRANCH   2  18
ATOM     18  O   UNL     1     -10.082  12.727  65.269  0.00  0.00    -0.468 OA
ATOM     19  C   UNL     1     -10.574  12.391  63.972  0.00  0.00    +0.253 C 
ENDBRANCH   2  18
BRANCH  10  20
ATOM     20  C   UNL     1      -8.078  19.795  66.092  0.00  0.00    +0.009 C 
BRANCH  20  21
ATOM     21  C   UNL     1      -6.637  19.968  66.508  0.00  0.00    +0.000 C 
ATOM     22  C   UNL     1      -5.869  20.493  65.328  0.00  0.00    +0.000 C 
ATOM     23  C   UNL     1      -6.552  20.864  67.710  0.00  0.00    +0.000 C 
ENDBRANCH  20  21
ENDBRANCH  10  20
TORSDOF 4
ENDMDL
MODEL 5
REMARK VINA RESULT:      -6.0      4.561      6.784
REMARK  Name = 
REMARK  4 active torsions:
REMARK  status: ('A' for Active; 'I' for Inactive)
REMARK    1  A    between atoms: O_2  and  C_3
REMARK    2  A    between atoms: C_8  and  O_9
REMARK    3  A    between atoms: C_15  and  C_16
REMARK    4  A    between atoms: C_16  and  C_17
REMARK                            x       y       z     vdW  Elec       q    Type
REMARK                         _______ _______ _______ _____ _____    ______ ____
ROOT
ATOM      1  C   UNL     1      -6.817  20.547  66.613  0.00  0.00    +0.172 A 
ATOM      2  C   UNL     1      -6.668  19.522  65.680  0.00  0.00    +0.172 A 
ATOM      3  C   UNL     1      -7.211  18.284  66.034  0.00  0.00    +0.037 A 
ATOM      4  C   UNL     1      -7.679  18.140  67.306  0.00  0.00    -0.008 A 
ATOM      5  C   UNL     1      -8.714  16.953  67.644  0.00  0.00    +0.087 C 
ATOM      6  N   UNL     1      -9.687  17.383  66.483  0.00  0.00    -0.269 NA
ATOM      7  C   UNL     1     -10.532  18.305  67.143  0.00  0.00    +0.077 C 
ATOM      8  C   UNL     1      -9.802  19.113  68.217  0.00  0.00    +0.044 C 
ATOM      9  C   UNL     1     -10.206  16.251  65.874  0.00  0.00    +0.080 C 
ATOM     10  C   UNL     1     -10.458  15.079  66.981  0.00  0.00    +0.074 C 
ATOM     11  C   UNL     1      -8.893  14.727  67.136  0.00  0.00    +0.153 C 
ATOM     12  O   UNL     1      -8.756  14.415  68.323  0.00  0.00    -0.296 OA
ATOM     13  C   UNL     1      -7.966  15.835  66.695  0.00  0.00    +0.085 C 
ATOM     14  C   UNL     1      -8.342  19.234  67.877  0.00  0.00    -0.020 A 
ATOM     15  C   UNL     1      -7.725  20.455  67.666  0.00  0.00    +0.036 A 
ENDROOT
BRANCH   1  17
ATOM     16  C   UNL     1      -4.662  21.485  66.745  0.00  0.00    +0.253 C 
ATOM     17  O   UNL     1      -5.899  21.602  66.537  0.00  0.00    -0.468 OA
ENDBRANCH   1  17
BRANCH   2  18
ATOM     18  O   UNL     1      -6.627  19.954  64.347  0.00  0.00    -0.468 OA
ATOM     19  C   UNL     1      -5.618  19.517  63.438  0.00  0.00    +0.253 C 
ENDBRANCH   2  18
BRANCH  10  20
ATOM     20  C   UNL     1     -10.647  13.931  65.833  0.00  0.00    +0.009 C 
BRANCH  20  21
ATOM     21  C   UNL     1     -11.928  13.225  66.208  0.00  0.00    +0.000 C 
ATOM     22  C   UNL     1     -12.521  12.637  64.958  0.00  0.00    +0.000 C 
ATOM     23  C   UNL     1     -11.658  12.197  67.269  0.00  0.00    +0.000 C 
ENDBRANCH  20  21
ENDBRANCH  10  20
TORSDOF 4
ENDMDL
MODEL 6
REMARK VINA RESULT:      -5.9      3.635      6.839
REMARK  Name = 
REMARK  4 active torsions:
REMARK  status: ('A' for Active; 'I' for Inactive)
REMARK    1  A    between atoms: O_2  and  C_3
REMARK    2  A    between atoms: C_8  and  O_9
REMARK    3  A    between atoms: C_15  and  C_16
REMARK    4  A    between atoms: C_16  and  C_17
REMARK                            x       y       z     vdW  Elec       q    Type
REMARK                         _______ _______ _______ _____ _____    ______ ____
ROOT
ATOM      1  C   UNL     1     -11.398  13.292  66.434  0.00  0.00    +0.172 A 
ATOM      2  C   UNL     1     -10.086  13.533  66.029  0.00  0.00    +0.172 A 
ATOM      3  C   UNL     1      -9.603  14.826  66.242  0.00  0.00    +0.037 A 
ATOM      4  C   UNL     1     -10.492  15.771  66.660  0.00  0.00    -0.008 A 
ATOM      5  C   UNL     1      -9.952  17.116  67.363  0.00  0.00    +0.087 C 
ATOM      6  N   UNL     1      -9.101  16.306  68.410  0.00  0.00    -0.269 NA
ATOM      7  C   UNL     1     -10.030  16.132  69.462  0.00  0.00    +0.077 C 
ATOM      8  C   UNL     1     -11.466  15.964  68.963  0.00  0.00    +0.044 C 
ATOM      9  C   UNL     1      -7.895  16.954  68.626  0.00  0.00    +0.080 C 
ATOM     10  C   UNL     1      -8.106  18.571  68.575  0.00  0.00    +0.074 C 
ATOM     11  C   UNL     1      -8.267  18.618  66.973  0.00  0.00    +0.153 C 
ATOM     12  O   UNL     1      -9.082  19.523  66.763  0.00  0.00    -0.296 OA
ATOM     13  C   UNL     1      -8.663  17.297  66.355  0.00  0.00    +0.085 C 
ATOM     14  C   UNL     1     -11.471  15.373  67.579  0.00  0.00    -0.020 A 
ATOM     15  C   UNL     1     -12.072  14.160  67.291  0.00  0.00    +0.036 A 
ENDROOT
BRANCH   1  17
ATOM     16  C   UNL     1     -12.428  12.224  64.607  0.00  0.00    +0.253 C 
ATOM     17  O   UNL     1     -12.061  12.227  65.812  0.00  0.00    -0.468 OA
ENDBRANCH   1  17
BRANCH   2  18
ATOM     18  O   UNL     1      -9.246  12.412  66.096  0.00  0.00    -0.468 OA
ATOM     19  C   UNL     1      -8.564  12.047  67.295  0.00  0.00    +0.253 C 
ENDBRANCH   2  18
BRANCH  10  20
ATOM     20  C   UNL     1      -6.500  18.854  68.466  0.00  0.00    +0.009 C 
BRANCH  20  21
ATOM     21  C   UNL     1      -6.338  20.298  68.875  0.00  0.00    +0.000 C 
ATOM     22  C   UNL     1      -5.591  20.334  70.178  0.00  0.00    +0.000 C 
ATOM     23  C   UNL     1      -5.652  21.068  67.784  0.00  0.00    +0.000 C 
ENDBRANCH  20  21
ENDBRANCH  10  20
TORSDOF 4
ENDMDL
MODEL 7
REMARK VINA RESULT:      -5.9      2.740      6.100
REMARK  Name = 
REMARK  4 active torsions:
REMARK  status: ('A' for Active; 'I' for Inactive)
REMARK    1  A    between atoms: O_2  and  C_3
REMARK    2  A    between atoms: C_8  and  O_9
REMARK    3  A    between atoms: C_15  and  C_16
REMARK    4  A    between atoms: C_16  and  C_17
REMARK                            x       y       z     vdW  Elec       q    Type
REMARK                         _______ _______ _______ _____ _____    ______ ____
ROOT
ATOM      1  C   UNL     1     -10.430  10.566  66.532  0.00  0.00    +0.172 A 
ATOM      2  C   UNL     1      -9.952  11.241  67.654  0.00  0.00    +0.172 A 
ATOM      3  C   UNL     1      -9.632  12.589  67.471  0.00  0.00    +0.037 A 
ATOM      4  C   UNL     1      -9.649  13.074  66.198  0.00  0.00    -0.008 A 
ATOM      5  C   UNL     1      -9.756  14.662  65.953  0.00  0.00    +0.087 C 
ATOM      6  N   UNL     1     -11.032  14.783  66.866  0.00  0.00    -0.269 NA
ATOM      7  C   UNL     1     -12.074  14.571  65.934  0.00  0.00    +0.077 C 
ATOM      8  C   UNL     1     -11.693  13.577  64.836  0.00  0.00    +0.044 C 
ATOM      9  C   UNL     1     -10.964  15.956  67.602  0.00  0.00    +0.080 C 
ATOM     10  C   UNL     1     -10.278  17.141  66.715  0.00  0.00    +0.074 C 
ATOM     11  C   UNL     1      -8.789  16.537  66.845  0.00  0.00    +0.153 C 
ATOM     12  O   UNL     1      -8.245  16.805  65.769  0.00  0.00    -0.296 OA
ATOM     13  C   UNL     1      -8.748  15.067  67.191  0.00  0.00    +0.085 C 
ATOM     14  C   UNL     1     -10.658  12.611  65.344  0.00  0.00    -0.020 A 
ATOM     15  C   UNL     1     -10.878  11.245  65.402  0.00  0.00    +0.036 A 
ENDROOT
BRANCH   1  17
ATOM     16  C   UNL     1      -9.304   8.558  66.037  0.00  0.00    +0.253 C 
ATOM     17  O   UNL     1     -10.286   9.172  66.532  0.00  0.00    -0.468 OA
ENDBRANCH   1  17
BRANCH   2  18
ATOM     18  O   UNL     1     -10.452  10.762  68.873  0.00  0.00    -0.468 OA
ATOM     19  C   UNL     1     -11.777  11.051  69.316  0.00  0.00    +0.253 C 
ENDBRANCH   2  18
BRANCH  10  20
ATOM     20  C   UNL     1     -10.053  18.094  68.023  0.00  0.00    +0.009 C 
BRANCH  20  21
ATOM     21  C   UNL     1     -10.096  19.502  67.480  0.00  0.00    +0.000 C 
ATOM     22  C   UNL     1      -8.718  20.090  67.594  0.00  0.00    +0.000 C 
ATOM     23  C   UNL     1     -10.617  19.496  66.072  0.00  0.00    +0.000 C 
ENDBRANCH  20  21
ENDBRANCH  10  20
TORSDOF 4
ENDMDL
MODEL 8
REMARK VINA RESULT:      -5.8      2.519      3.453
REMARK  Name = 
REMARK  4 active torsions:
REMARK  status: ('A' for Active; 'I' for Inactive)
REMARK    1  A    between atoms: O_2  and  C_3
REMARK    2  A    between atoms: C_8  and  O_9
REMARK    3  A    between atoms: C_15  and  C_16
REMARK    4  A    between atoms: C_16  and  C_17
REMARK                            x       y       z     vdW  Elec       q    Type
REMARK                         _______ _______ _______ _____ _____    ______ ____
ROOT
ATOM      1  C   UNL     1     -10.486  16.900  67.961  0.00  0.00    +0.172 A 
ATOM      2  C   UNL     1     -11.510  15.992  68.222  0.00  0.00    +0.172 A 
ATOM      3  C   UNL     1     -11.371  14.725  67.648  0.00  0.00    +0.037 A 
ATOM      4  C   UNL     1     -10.353  14.544  66.760  0.00  0.00    -0.008 A 
ATOM      5  C   UNL     1      -9.845  13.052  66.428  0.00  0.00    +0.087 C 
ATOM      6  N   UNL     1      -9.641  12.711  67.951  0.00  0.00    -0.269 NA
ATOM      7  C   UNL     1      -8.302  13.118  68.160  0.00  0.00    +0.077 C 
ATOM      8  C   UNL     1      -7.919  14.341  67.326  0.00  0.00    +0.044 C 
ATOM      9  C   UNL     1     -10.031  11.402  68.188  0.00  0.00    +0.080 C 
ATOM     10  C   UNL     1      -9.648  10.459  66.913  0.00  0.00    +0.074 C 
ATOM     11  C   UNL     1     -10.832  11.034  65.983  0.00  0.00    +0.153 C 
ATOM     12  O   UNL     1     -10.368  11.025  64.838  0.00  0.00    -0.296 OA
ATOM     13  C   UNL     1     -11.351  12.386  66.411  0.00  0.00    +0.085 C 
ATOM     14  C   UNL     1      -9.135  15.178  67.036  0.00  0.00    -0.020 A 
ATOM     15  C   UNL     1      -9.253  16.491  67.457  0.00  0.00    +0.036 A 
ENDROOT
BRANCH   1  17
ATOM     16  C   UNL     1     -10.585  19.121  67.186  0.00  0.00    +0.253 C 
ATOM     17  O   UNL     1     -10.808  18.258  68.077  0.00  0.00    -0.468 OA
ENDBRANCH   1  17
BRANCH   2  18
ATOM     18  O   UNL     1     -12.144  16.175  69.459  0.00  0.00    -0.468 OA
ATOM     19  C   UNL     1     -11.482  15.912  70.696  0.00  0.00    +0.253 C 
ENDBRANCH   2  18
BRANCH  10  20
ATOM     20  C   UNL     1     -10.595   9.235  67.437  0.00  0.00    +0.009 C 
BRANCH  20  21
ATOM     21  C   UNL     1     -10.022   8.002  66.782  0.00  0.00    +0.000 C 
ATOM     22  C   UNL     1      -8.609   7.830  67.262  0.00  0.00    +0.000 C 
ATOM     23  C   UNL     1     -10.891   6.812  67.074  0.00  0.00    +0.000 C 
ENDBRANCH  20  21
ENDBRANCH  10  20
TORSDOF 4
ENDMDL
MODEL 9
REMARK VINA RESULT:      -5.8      3.468      6.373
REMARK  Name = 
REMARK  4 active torsions:
REMARK  status: ('A' for Active; 'I' for Inactive)
REMARK    1  A    between atoms: O_2  and  C_3
REMARK    2  A    between atoms: C_8  and  O_9
REMARK    3  A    between atoms: C_15  and  C_16
REMARK    4  A    between atoms: C_16  and  C_17
REMARK                            x       y       z     vdW  Elec       q    Type
REMARK                         _______ _______ _______ _____ _____    ______ ____
ROOT
ATOM      1  C   UNL     1     -11.930  13.786  65.277  0.00  0.00    +0.172 A 
ATOM      2  C   UNL     1     -11.205  13.192  66.309  0.00  0.00    +0.172 A 
ATOM      3  C   UNL     1     -10.004  13.816  66.655  0.00  0.00    +0.037 A 
ATOM      4  C   UNL     1      -9.568  14.831  65.858  0.00  0.00    -0.008 A 
ATOM      5  C   UNL     1      -8.487  15.881  66.427  0.00  0.00    +0.087 C 
ATOM      6  N   UNL     1      -9.359  16.189  67.701  0.00  0.00    -0.269 NA
ATOM      7  C   UNL     1     -10.160  17.263  67.247  0.00  0.00    +0.077 C 
ATOM      8  C   UNL     1     -10.520  17.149  65.766  0.00  0.00    +0.044 C 
ATOM      9  C   UNL     1      -8.531  16.335  68.803  0.00  0.00    +0.080 C 
ATOM     10  C   UNL     1      -7.137  17.064  68.370  0.00  0.00    +0.074 C 
ATOM     11  C   UNL     1      -6.545  15.757  67.636  0.00  0.00    +0.153 C 
ATOM     12  O   UNL     1      -5.890  16.198  66.686  0.00  0.00    -0.296 OA
ATOM     13  C   UNL     1      -7.596  14.751  67.227  0.00  0.00    +0.085 C 
ATOM     14  C   UNL     1     -10.532  15.706  65.341  0.00  0.00    -0.020 A 
ATOM     15  C   UNL     1     -11.666  15.085  64.847  0.00  0.00    +0.036 A 
ENDROOT
BRANCH   1  17
ATOM     16  C   UNL     1     -12.505  12.200  63.635  0.00  0.00    +0.253 C 
ATOM     17  O   UNL     1     -12.827  12.961  64.586  0.00  0.00    -0.468 OA
ENDBRANCH   1  17
BRANCH   2  18
ATOM     18  O   UNL     1     -11.991  12.527  67.260  0.00  0.00    -0.468 OA
ATOM     19  C   UNL     1     -11.422  11.884  68.399  0.00  0.00    +0.253 C 
ENDBRANCH   2  18
BRANCH  10  20
ATOM     20  C   UNL     1      -6.403  16.662  69.774  0.00  0.00    +0.009 C 
BRANCH  20  21
ATOM     21  C   UNL     1      -5.580  17.875  70.135  0.00  0.00    +0.000 C 
ATOM     22  C   UNL     1      -4.138  17.565  69.849  0.00  0.00    +0.000 C 
ATOM     23  C   UNL     1      -6.082  19.079  69.390  0.00  0.00    +0.000 C 
ENDBRANCH  20  21
ENDBRANCH  10  20
TORSDOF 4
ENDMDL
