MODEL 1
REMARK VINA RESULT:      -6.0      0.000      0.000
REMARK  Name = 
REMARK  15 active torsions:
REMARK  status: ('A' for Active; 'I' for Inactive)
REMARK    1  A    between atoms: C_2  and  C_3
REMARK    2  A    between atoms: C_3  and  C_4
REMARK    3  A    between atoms: C_4  and  C_5
REMARK    4  A    between atoms: C_5  and  C_6
REMARK    5  A    between atoms: C_6  and  C_7
REMARK    6  A    between atoms: C_7  and  C_8
REMARK    7  A    between atoms: C_8  and  C_10
REMARK    8  A    between atoms: C_10  and  C_11
REMARK    9  A    between atoms: C_11  and  C_12
REMARK   10  A    between atoms: C_18  and  C_19
REMARK   11  A    between atoms: C_19  and  C_20
REMARK   12  A    between atoms: C_21  and  C_22
REMARK   13  A    between atoms: C_22  and  C_23
REMARK   14  A    between atoms: C_23  and  C_24
REMARK   15  A    between atoms: C_24  and  C_25
REMARK                            x       y       z     vdW  Elec       q    Type
REMARK                         _______ _______ _______ _____ _____    ______ ____
ROOT
ATOM      1  C   UNL     1     -10.634  13.032  65.278  0.00  0.00    +0.034 C 
ATOM      2  C   UNL     1     -11.977  12.662  66.105  0.00  0.00    +0.037 C 
ATOM      3  C   UNL     1     -12.774  13.322  64.709  0.00  0.00    +0.155 C 
ATOM      4  O   UNL     1     -11.912  14.585  64.532  0.00  0.00    -0.223 OA
ATOM      5  C   UNL     1     -12.113  12.271  63.567  0.00  0.00    +0.066 C 
ATOM      6  C   UNL     1     -11.918  13.526  64.266  0.00  0.00    +0.155 C 
ATOM      7  O   UNL     1     -13.129  12.864  65.093  0.00  0.00    -0.223 OA
ENDROOT
BRANCH   2   8
ATOM      8  C   UNL     1     -11.973  14.083  66.853  0.00  0.00    +0.028 C 
BRANCH   8   9
ATOM      9  C   UNL     1     -10.837  14.234  67.725  0.00  0.00    -0.031 C 
ATOM     10  C   UNL     1     -10.858  14.199  69.059  0.00  0.00    -0.031 C 
BRANCH  10  11
ATOM     11  C   UNL     1     -12.151  14.475  69.683  0.00  0.00    +0.026 C 
BRANCH  11  12
ATOM     12  C   UNL     1     -12.384  14.020  70.987  0.00  0.00    +0.016 C 
BRANCH  12  13
ATOM     13  C   UNL     1     -13.555  13.962  71.766  0.00  0.00    +0.114 C 
BRANCH  13  14
ATOM     14  C   UNL     1     -14.301  15.165  72.051  0.00  0.00    +0.365 C 
ATOM     15  O   UNL     1     -15.433  15.376  71.264  0.00  0.00    -0.246 OA
ATOM     16  O   UNL     1     -14.017  16.112  72.807  0.00  0.00    -0.246 OA
ENDBRANCH  13  14
ENDBRANCH  12  13
ENDBRANCH  11  12
ENDBRANCH  10  11
ENDBRANCH   8   9
ENDBRANCH   2   8
BRANCH   1  17
ATOM     17  C   UNL     1     -10.661  11.560  64.600  0.00  0.00    +0.010 C 
BRANCH  17  18
ATOM     18  C   UNL     1      -9.530  11.059  65.056  0.00  0.00    +0.065 C 
BRANCH  18  19
ATOM     19  C   UNL     1      -9.532  10.014  66.055  0.00  0.00    +0.151 C 
ATOM     20  O   UNL     1      -9.438   8.902  65.619  0.00  0.00    -0.296 OA
BRANCH  19  21
ATOM     21  C   UNL     1      -8.756  10.528  67.242  0.00  0.00    +0.065 C 
BRANCH  21  22
ATOM     22  C   UNL     1      -9.666  10.310  68.336  0.00  0.00    +0.008 C 
BRANCH  22  23
ATOM     23  C   UNL     1     -10.829  10.540  68.762  0.00  0.00    +0.000 C 
BRANCH  23  24
ATOM     24  C   UNL     1     -12.039  10.737  69.316  0.00  0.00    +0.000 C 
BRANCH  24  25
ATOM     25  C   UNL     1     -12.374  10.269  70.529  0.00  0.00    +0.000 C 
BRANCH  25  27
ATOM     26  C   UNL     1     -12.658  10.295  71.687  0.00  0.00    +0.000 C 
ATOM     27  C   UNL     1     -13.202  10.206  71.590  0.00  0.00    +0.000 C 
ENDBRANCH  25  27
ENDBRANCH  24  25
ENDBRANCH  23  24
ENDBRANCH  22  23
ENDBRANCH  21  22
ENDBRANCH  19  21
ENDBRANCH  18  19
ENDBRANCH  17  18
ENDBRANCH   1  17
TORSDOF 15
ENDMDL
MODEL 2
REMARK VINA RESULT:      -5.7      2.673      4.573
REMARK  Name = 
REMARK  15 active torsions:
REMARK  status: ('A' for Active; 'I' for Inactive)
REMARK    1  A    between atoms: C_2  and  C_3
REMARK    2  A    between atoms: C_3  and  C_4
REMARK    3  A    between atoms: C_4  and  C_5
REMARK    4  A    between atoms: C_5  and  C_6
REMARK    5  A    between atoms: C_6  and  C_7
REMARK    6  A    between atoms: C_7  and  C_8
REMARK    7  A    between atoms: C_8  and  C_10
REMARK    8  A    between atoms: C_10  and  C_11
REMARK    9  A    between atoms: C_11  and  C_12
REMARK   10  A    between atoms: C_18  and  C_19
REMARK   11  A    between atoms: C_19  and  C_20
REMARK   12  A    between atoms: C_21  and  C_22
REMARK   13  A    between atoms: C_22  and  C_23
REMARK   14  A    between atoms: C_23  and  C_24
REMARK   15  A    between atoms: C_24  and  C_25
REMARK                            x       y       z     vdW  Elec       q    Type
REMARK                         _______ _______ _______ _____ _____    ______ ____
ROOT
ATOM      1  C   UNL     1      -9.528  16.085  67.538  0.00  0.00    +0.034 C 
ATOM      2  C   UNL     1     -10.870  16.802  68.093  0.00  0.00    +0.037 C 
ATOM      3  C   UNL     1      -9.804  18.150  68.341  0.00  0.00    +0.155 C 
ATOM      4  O   UNL     1      -8.624  17.394  68.978  0.00  0.00    -0.223 OA
ATOM      5  C   UNL     1      -9.300  18.323  66.741  0.00  0.00    +0.066 C 
ATOM      6  C   UNL     1      -9.027  17.653  67.997  0.00  0.00    +0.155 C 
ATOM      7  O   UNL     1     -10.481  18.289  68.263  0.00  0.00    -0.223 OA
ENDROOT
BRANCH   2   8
ATOM      8  C   UNL     1     -10.617  16.248  69.579  0.00  0.00    +0.028 C 
BRANCH   8   9
ATOM      9  C   UNL     1     -10.988  14.862  69.714  0.00  0.00    -0.031 C 
ATOM     10  C   UNL     1     -12.223  14.393  69.897  0.00  0.00    -0.031 C 
BRANCH  10  11
ATOM     11  C   UNL     1     -13.191  15.343  70.445  0.00  0.00    +0.026 C 
BRANCH  11  12
ATOM     12  C   UNL     1     -13.754  15.087  71.701  0.00  0.00    +0.016 C 
BRANCH  12  13
ATOM     13  C   UNL     1     -13.756  15.827  72.899  0.00  0.00    +0.114 C 
BRANCH  13  14
ATOM     14  C   UNL     1     -12.658  15.709  73.829  0.00  0.00    +0.365 C 
ATOM     15  O   UNL     1     -11.537  15.025  73.359  0.00  0.00    -0.246 OA
ATOM     16  O   UNL     1     -12.606  16.014  75.034  0.00  0.00    -0.246 OA
ENDBRANCH  13  14
ENDBRANCH  12  13
ENDBRANCH  11  12
ENDBRANCH  10  11
ENDBRANCH   8   9
ENDBRANCH   2   8
BRANCH   1  17
ATOM     17  C   UNL     1      -9.870  16.626  66.049  0.00  0.00    +0.010 C 
BRANCH  17  18
ATOM     18  C   UNL     1     -10.354  15.531  65.496  0.00  0.00    +0.065 C 
BRANCH  18  19
ATOM     19  C   UNL     1     -11.600  15.560  64.765  0.00  0.00    +0.151 C 
ATOM     20  O   UNL     1     -11.682  16.429  63.943  0.00  0.00    -0.296 OA
BRANCH  19  21
ATOM     21  C   UNL     1     -12.012  14.128  64.528  0.00  0.00    +0.065 C 
BRANCH  21  22
ATOM     22  C   UNL     1     -11.967  13.560  65.851  0.00  0.00    +0.008 C 
BRANCH  22  23
ATOM     23  C   UNL     1     -11.461  12.648  66.557  0.00  0.00    +0.000 C 
BRANCH  23  24
ATOM     24  C   UNL     1     -10.878  11.757  67.379  0.00  0.00    +0.000 C 
BRANCH  24  25
ATOM     25  C   UNL     1     -11.549  11.093  68.333  0.00  0.00    +0.000 C 
BRANCH  25  27
ATOM     26  C   UNL     1     -12.123  10.929  69.366  0.00  0.00    +0.000 C 
ATOM     27  C   UNL     1     -11.692  10.660  69.600  0.00  0.00    +0.000 C 
ENDBRANCH  25  27
ENDBRANCH  24  25
ENDBRANCH  23  24
ENDBRANCH  22  23
ENDBRANCH  21  22
ENDBRANCH  19  21
ENDBRANCH  18  19
ENDBRANCH  17  18
ENDBRANCH   1  17
TORSDOF 15
ENDMDL
MODEL 3
REMARK VINA RESULT:      -5.7      2.512      4.716
REMARK  Name = 
REMARK  15 active torsions:
REMARK  status: ('A' for Active; 'I' for Inactive)
REMARK    1  A    between atoms: C_2  and  C_3
REMARK    2  A    between atoms: C_3  and  C_4
REMARK    3  A    between atoms: C_4  and  C_5
REMARK    4  A    between atoms: C_5  and  C_6
REMARK    5  A    between atoms: C_6  and  C_7
REMARK    6  A    between atoms: C_7  and  C_8
REMARK    7  A    between atoms: C_8  and  C_10
REMARK    8  A    between atoms: C_10  and  C_11
REMARK    9  A    between atoms: C_11  and  C_12
REMARK   10  A    between atoms: C_18  and  C_19
REMARK   11  A    between atoms: C_19  and  C_20
REMARK   12  A    between atoms: C_21  and  C_22
REMARK   13  A    between atoms: C_22  and  C_23
REMARK   14  A    between atoms: C_23  and  C_24
REMARK   15  A    between atoms: C_24  and  C_25
REMARK                            x       y       z     vdW  Elec       q    Type
REMARK                         _______ _______ _______ _____ _____    ______ ____
ROOT
ATOM      1  C   UNL     1     -10.634  12.460  68.382  0.00  0.00    +0.034 C 
ATOM      2  C   UNL     1     -12.029  12.961  67.729  0.00  0.00    +0.037 C 
ATOM      3  C   UNL     1     -11.189  12.695  66.231  0.00  0.00    +0.155 C 
ATOM      4  O   UNL     1      -9.852  13.362  66.599  0.00  0.00    -0.223 OA
ATOM      5  C   UNL     1     -10.852  11.058  66.462  0.00  0.00    +0.066 C 
ATOM      6  C   UNL     1     -10.370  12.405  66.694  0.00  0.00    +0.155 C 
ATOM      7  O   UNL     1     -11.884  12.666  66.217  0.00  0.00    -0.223 OA
ENDROOT
BRANCH   2   8
ATOM      8  C   UNL     1     -11.568  14.497  67.787  0.00  0.00    +0.028 C 
BRANCH   8   9
ATOM      9  C   UNL     1     -11.818  15.092  69.075  0.00  0.00    -0.031 C 
ATOM     10  C   UNL     1     -11.012  15.935  69.723  0.00  0.00    -0.031 C 
BRANCH  10  11
ATOM     11  C   UNL     1      -9.605  15.904  69.324  0.00  0.00    +0.026 C 
BRANCH  11  12
ATOM     12  C   UNL     1      -9.051  17.033  68.708  0.00  0.00    +0.016 C 
BRANCH  12  13
ATOM     13  C   UNL     1      -9.103  17.499  67.381  0.00  0.00    +0.114 C 
BRANCH  13  14
ATOM     14  C   UNL     1     -10.284  18.168  66.890  0.00  0.00    +0.365 C 
ATOM     15  O   UNL     1     -10.564  17.986  65.536  0.00  0.00    -0.246 OA
ATOM     16  O   UNL     1     -11.025  18.989  67.461  0.00  0.00    -0.246 OA
ENDBRANCH  13  14
ENDBRANCH  12  13
ENDBRANCH  11  12
ENDBRANCH  10  11
ENDBRANCH   8   9
ENDBRANCH   2   8
BRANCH   1  17
ATOM     17  C   UNL     1     -11.181  10.934  68.349  0.00  0.00    +0.010 C 
BRANCH  17  18
ATOM     18  C   UNL     1     -12.048  10.963  69.342  0.00  0.00    +0.065 C 
BRANCH  18  19
ATOM     19  C   UNL     1     -11.872  10.123  70.504  0.00  0.00    +0.151 C 
ATOM     20  O   UNL     1     -10.732   9.862  70.768  0.00  0.00    -0.296 OA
BRANCH  19  21
ATOM     21  C   UNL     1     -12.902  10.547  71.522  0.00  0.00    +0.065 C 
BRANCH  21  22
ATOM     22  C   UNL     1     -12.883  11.983  71.415  0.00  0.00    +0.008 C 
BRANCH  22  23
ATOM     23  C   UNL     1     -13.310  13.053  71.924  0.00  0.00    +0.000 C 
BRANCH  23  24
ATOM     24  C   UNL     1     -13.837  14.204  72.378  0.00  0.00    +0.000 C 
BRANCH  24  25
ATOM     25  C   UNL     1     -13.111  15.149  72.997  0.00  0.00    +0.000 C 
BRANCH  25  27
ATOM     26  C   UNL     1     -12.450  15.087  73.988  0.00  0.00    +0.000 C 
ATOM     27  C   UNL     1     -12.474  15.638  74.078  0.00  0.00    +0.000 C 
ENDBRANCH  25  27
ENDBRANCH  24  25
ENDBRANCH  23  24
ENDBRANCH  22  23
ENDBRANCH  21  22
ENDBRANCH  19  21
ENDBRANCH  18  19
ENDBRANCH  17  18
ENDBRANCH   1  17
TORSDOF 15
ENDMDL
MODEL 4
REMARK VINA RESULT:      -5.7      2.877      5.191
REMARK  Name = 
REMARK  15 active torsions:
REMARK  status: ('A' for Active; 'I' for Inactive)
REMARK    1  A    between atoms: C_2  and  C_3
REMARK    2  A    between atoms: C_3  and  C_4
REMARK    3  A    between atoms: C_4  and  C_5
REMARK    4  A    between atoms: C_5  and  C_6
REMARK    5  A    between atoms: C_6  and  C_7
REMARK    6  A    between atoms: C_7  and  C_8
REMARK    7  A    between atoms: C_8  and  C_10
REMARK    8  A    between atoms: C_10  and  C_11
REMARK    9  A    between atoms: C_11  and  C_12
REMARK   10  A    between atoms: C_18  and  C_19
REMARK   11  A    between atoms: C_19  and  C_20
REMARK   12  A    between atoms: C_21  and  C_22
REMARK   13  A    between atoms: C_22  and  C_23
REMARK   14  A    between atoms: C_23  and  C_24
REMARK   15  A    between atoms: C_24  and  C_25
REMARK                            x       y       z     vdW  Elec       q    Type
REMARK                         _______ _______ _______ _____ _____    ______ ____
ROOT
ATOM      1  C   UNL     1     -11.482  14.246  66.118  0.00  0.00    +0.034 C 
ATOM      2  C   UNL     1     -10.638  13.086  66.871  0.00  0.00    +0.037 C 
ATOM      3  C   UNL     1     -11.167  12.114  65.532  0.00  0.00    +0.155 C 
ATOM      4  O   UNL     1     -12.643  12.550  65.504  0.00  0.00    -0.223 OA
ATOM      5  C   UNL     1     -10.491  13.052  64.304  0.00  0.00    +0.066 C 
ATOM      6  C   UNL     1     -11.666  12.863  65.131  0.00  0.00    +0.155 C 
ATOM      7  O   UNL     1     -10.586  11.918  65.858  0.00  0.00    -0.223 OA
ENDROOT
BRANCH   2   8
ATOM      8  C   UNL     1     -11.907  12.664  67.760  0.00  0.00    +0.028 C 
BRANCH   8   9
ATOM      9  C   UNL     1     -11.580  12.562  69.159  0.00  0.00    -0.031 C 
ATOM     10  C   UNL     1     -11.863  13.463  70.101  0.00  0.00    -0.031 C 
BRANCH  10  11
ATOM     11  C   UNL     1     -12.109  14.824  69.627  0.00  0.00    +0.026 C 
BRANCH  11  12
ATOM     12  C   UNL     1     -11.982  15.888  70.529  0.00  0.00    +0.016 C 
BRANCH  12  13
ATOM     13  C   UNL     1     -12.061  15.943  71.934  0.00  0.00    +0.114 C 
BRANCH  13  14
ATOM     14  C   UNL     1     -13.284  15.579  72.609  0.00  0.00    +0.365 C 
ATOM     15  O   UNL     1     -13.202  14.473  73.455  0.00  0.00    -0.246 OA
ATOM     16  O   UNL     1     -14.436  16.024  72.455  0.00  0.00    -0.246 OA
ENDBRANCH  13  14
ENDBRANCH  12  13
ENDBRANCH  11  12
ENDBRANCH  10  11
ENDBRANCH   8   9
ENDBRANCH   2   8
BRANCH   1  17
ATOM     17  C   UNL     1     -10.150  14.661  65.292  0.00  0.00    +0.010 C 
BRANCH  17  18
ATOM     18  C   UNL     1      -9.765  15.726  65.968  0.00  0.00    +0.065 C 
BRANCH  18  19
ATOM     19  C   UNL     1      -8.365  15.968  66.234  0.00  0.00    +0.151 C 
ATOM     20  O   UNL     1      -7.946  17.010  65.817  0.00  0.00    -0.296 OA
BRANCH  19  21
ATOM     21  C   UNL     1      -8.072  15.428  67.612  0.00  0.00    +0.065 C 
BRANCH  21  22
ATOM     22  C   UNL     1      -8.775  16.346  68.471  0.00  0.00    +0.008 C 
BRANCH  22  23
ATOM     23  C   UNL     1      -9.335  17.473  68.525  0.00  0.00    +0.000 C 
BRANCH  23  24
ATOM     24  C   UNL     1      -9.960  18.663  68.472  0.00  0.00    +0.000 C 
BRANCH  24  25
ATOM     25  C   UNL     1      -9.918  19.465  67.396  0.00  0.00    +0.000 C 
BRANCH  25  27
ATOM     26  C   UNL     1     -10.489  19.395  66.351  0.00  0.00    +0.000 C 
ATOM     27  C   UNL     1     -10.441  19.944  66.252  0.00  0.00    +0.000 C 
ENDBRANCH  25  27
ENDBRANCH  24  25
ENDBRANCH  23  24
ENDBRANCH  22  23
ENDBRANCH  21  22
ENDBRANCH  19  21
ENDBRANCH  18  19
ENDBRANCH  17  18
ENDBRANCH   1  17
TORSDOF 15
ENDMDL
MODEL 5
REMARK VINA RESULT:      -5.7      1.887      6.204
REMARK  Name = 
REMARK  15 active torsions:
REMARK  status: ('A' for Active; 'I' for Inactive)
REMARK    1  A    between atoms: C_2  and  C_3
REMARK    2  A    between atoms: C_3  and  C_4
REMARK    3  A    between atoms: C_4  and  C_5
REMARK    4  A    between atoms: C_5  and  C_6
REMARK    5  A    between atoms: C_6  and  C_7
REMARK    6  A    between atoms: C_7  and  C_8
REMARK    7  A    between atoms: C_8  and  C_10
REMARK    8  A    between atoms: C_10  and  C_11
REMARK    9  A    between atoms: C_11  and  C_12
REMARK   10  A    between atoms: C_18  and  C_19
REMARK   11  A    between atoms: C_19  and  C_20
REMARK   12  A    between atoms: C_21  and  C_22
REMARK   13  A    between atoms: C_22  and  C_23
REMARK   14  A    between atoms: C_23  and  C_24
REMARK   15  A    between atoms: C_24  and  C_25
REMARK                            x       y       z     vdW  Elec       q    Type
REMARK                         _______ _______ _______ _____ _____    ______ ____
ROOT
ATOM      1  C   UNL     1     -11.617  15.290  68.348  0.00  0.00    +0.034 C 
ATOM      2  C   UNL     1     -10.173  14.604  68.607  0.00  0.00    +0.037 C 
ATOM      3  C   UNL     1      -9.582  16.014  67.783  0.00  0.00    +0.155 C 
ATOM      4  O   UNL     1     -10.589  16.037  66.619  0.00  0.00    -0.223 OA
ATOM      5  C   UNL     1     -10.223  17.164  68.838  0.00  0.00    +0.066 C 
ATOM      6  C   UNL     1     -10.490  16.371  67.654  0.00  0.00    +0.155 C 
ATOM      7  O   UNL     1      -9.145  15.692  68.218  0.00  0.00    -0.223 OA
ENDROOT
BRANCH   2   8
ATOM      8  C   UNL     1     -10.265  13.767  67.240  0.00  0.00    +0.028 C 
BRANCH   8   9
ATOM      9  C   UNL     1     -11.287  12.752  67.291  0.00  0.00    -0.031 C 
ATOM     10  C   UNL     1     -11.175  11.500  66.844  0.00  0.00    -0.031 C 
BRANCH  10  11
ATOM     11  C   UNL     1     -10.133  11.271  65.844  0.00  0.00    +0.026 C 
BRANCH  11  12
ATOM     12  C   UNL     1     -10.491  11.227  64.491  0.00  0.00    +0.016 C 
BRANCH  12  13
ATOM     13  C   UNL     1     -10.861  12.238  63.585  0.00  0.00    +0.114 C 
BRANCH  13  14
ATOM     14  C   UNL     1     -12.236  12.668  63.495  0.00  0.00    +0.365 C 
ATOM     15  O   UNL     1     -12.449  14.043  63.598  0.00  0.00    -0.246 OA
ATOM     16  O   UNL     1     -13.279  11.989  63.468  0.00  0.00    -0.246 OA
ENDBRANCH  13  14
ENDBRANCH  12  13
ENDBRANCH  11  12
ENDBRANCH  10  11
ENDBRANCH   8   9
ENDBRANCH   2   8
BRANCH   1  17
ATOM     17  C   UNL     1     -11.490  16.063  69.767  0.00  0.00    +0.010 C 
BRANCH  17  18
ATOM     18  C   UNL     1     -12.557  15.604  70.392  0.00  0.00    +0.065 C 
BRANCH  18  19
ATOM     19  C   UNL     1     -12.565  15.451  71.829  0.00  0.00    +0.151 C 
ATOM     20  O   UNL     1     -12.009  16.326  72.431  0.00  0.00    -0.296 OA
BRANCH  19  21
ATOM     21  C   UNL     1     -13.908  14.880  72.210  0.00  0.00    +0.065 C 
BRANCH  21  22
ATOM     22  C   UNL     1     -13.618  13.481  72.396  0.00  0.00    +0.008 C 
BRANCH  22  23
ATOM     23  C   UNL     1     -13.231  12.430  71.820  0.00  0.00    +0.000 C 
BRANCH  23  24
ATOM     24  C   UNL     1     -12.849  11.250  71.299  0.00  0.00    +0.000 C 
BRANCH  24  25
ATOM     25  C   UNL     1     -13.072  10.075  71.908  0.00  0.00    +0.000 C 
BRANCH  25  27
ATOM     26  C   UNL     1     -13.302   8.969  72.291  0.00  0.00    +0.000 C 
ATOM     27  C   UNL     1     -13.850   9.012  72.186  0.00  0.00    +0.000 C 
ENDBRANCH  25  27
ENDBRANCH  24  25
ENDBRANCH  23  24
ENDBRANCH  22  23
ENDBRANCH  21  22
ENDBRANCH  19  21
ENDBRANCH  18  19
ENDBRANCH  17  18
ENDBRANCH   1  17
TORSDOF 15
ENDMDL
MODEL 6
REMARK VINA RESULT:      -5.6      1.351      1.851
REMARK  Name = 
REMARK  15 active torsions:
REMARK  status: ('A' for Active; 'I' for Inactive)
REMARK    1  A    between atoms: C_2  and  C_3
REMARK    2  A    between atoms: C_3  and  C_4
REMARK    3  A    between atoms: C_4  and  C_5
REMARK    4  A    between atoms: C_5  and  C_6
REMARK    5  A    between atoms: C_6  and  C_7
REMARK    6  A    between atoms: C_7  and  C_8
REMARK    7  A    between atoms: C_8  and  C_10
REMARK    8  A    between atoms: C_10  and  C_11
REMARK    9  A    between atoms: C_11  and  C_12
REMARK   10  A    between atoms: C_18  and  C_19
REMARK   11  A    between atoms: C_19  and  C_20
REMARK   12  A    between atoms: C_21  and  C_22
REMARK   13  A    between atoms: C_22  and  C_23
REMARK   14  A    between atoms: C_23  and  C_24
REMARK   15  A    between atoms: C_24  and  C_25
REMARK                            x       y       z     vdW  Elec       q    Type
REMARK                         _______ _______ _______ _____ _____    ______ ____
ROOT
ATOM      1  C   UNL     1     -10.571  13.179  65.957  0.00  0.00    +0.034 C 
ATOM      2  C   UNL     1     -11.845  13.742  66.785  0.00  0.00    +0.037 C 
ATOM      3  C   UNL     1     -12.460  14.096  65.199  0.00  0.00    +0.155 C 
ATOM      4  O   UNL     1     -11.188  14.716  64.595  0.00  0.00    -0.223 OA
ATOM      5  C   UNL     1     -12.417  12.522  64.595  0.00  0.00    +0.066 C 
ATOM      6  C   UNL     1     -11.653  13.743  64.761  0.00  0.00    +0.155 C 
ATOM      7  O   UNL     1     -12.924  14.009  65.710  0.00  0.00    -0.223 OA
ENDROOT
BRANCH   2   8
ATOM      8  C   UNL     1     -11.181  15.198  66.921  0.00  0.00    +0.028 C 
BRANCH   8   9
ATOM      9  C   UNL     1     -10.122  15.223  67.897  0.00  0.00    -0.031 C 
ATOM     10  C   UNL     1     -10.273  15.333  69.218  0.00  0.00    -0.031 C 
BRANCH  10  11
ATOM     11  C   UNL     1     -11.537  15.915  69.670  0.00  0.00    +0.026 C 
BRANCH  11  12
ATOM     12  C   UNL     1     -12.427  15.116  70.397  0.00  0.00    +0.016 C 
BRANCH  12  13
ATOM     13  C   UNL     1     -12.244  14.291  71.523  0.00  0.00    +0.114 C 
BRANCH  13  14
ATOM     14  C   UNL     1     -13.139  14.388  72.651  0.00  0.00    +0.365 C 
ATOM     15  O   UNL     1     -14.309  13.634  72.562  0.00  0.00    -0.246 OA
ATOM     16  O   UNL     1     -13.090  15.144  73.638  0.00  0.00    -0.246 OA
ENDBRANCH  13  14
ENDBRANCH  12  13
ENDBRANCH  11  12
ENDBRANCH  10  11
ENDBRANCH   8   9
ENDBRANCH   2   8
BRANCH   1  17
ATOM     17  C   UNL     1     -11.268  11.717  65.904  0.00  0.00    +0.010 C 
BRANCH  17  18
ATOM     18  C   UNL     1     -10.434  11.020  66.650  0.00  0.00    +0.065 C 
BRANCH  18  19
ATOM     19  C   UNL     1     -10.908  10.276  67.795  0.00  0.00    +0.151 C 
ATOM     20  O   UNL     1     -10.784   9.087  67.710  0.00  0.00    -0.296 OA
BRANCH  19  21
ATOM     21  C   UNL     1     -10.559  11.079  69.024  0.00  0.00    +0.065 C 
BRANCH  21  22
ATOM     22  C   UNL     1     -11.810  11.128  69.738  0.00  0.00    +0.008 C 
BRANCH  22  23
ATOM     23  C   UNL     1     -12.465  10.628  70.691  0.00  0.00    +0.000 C 
BRANCH  23  24
ATOM     24  C   UNL     1     -13.216  10.197  71.720  0.00  0.00    +0.000 C 
BRANCH  24  25
ATOM     25  C   UNL     1     -13.521   8.903  71.912  0.00  0.00    +0.000 C 
BRANCH  25  27
ATOM     26  C   UNL     1     -14.522   8.308  71.656  0.00  0.00    +0.000 C 
ATOM     27  C   UNL     1     -14.267   7.810  71.665  0.00  0.00    +0.000 C 
ENDBRANCH  25  27
ENDBRANCH  24  25
ENDBRANCH  23  24
ENDBRANCH  22  23
ENDBRANCH  21  22
ENDBRANCH  19  21
ENDBRANCH  18  19
ENDBRANCH  17  18
ENDBRANCH   1  17
TORSDOF 15
ENDMDL
MODEL 7
REMARK VINA RESULT:      -5.5      2.401      4.701
REMARK  Name = 
REMARK  15 active torsions:
REMARK  status: ('A' for Active; 'I' for Inactive)
REMARK    1  A    between atoms: C_2  and  C_3
REMARK    2  A    between atoms: C_3  and  C_4
REMARK    3  A    between atoms: C_4  and  C_5
REMARK    4  A    between atoms: C_5  and  C_6
REMARK    5  A    between atoms: C_6  and  C_7
REMARK    6  A    between atoms: C_7  and  C_8
REMARK    7  A    between atoms: C_8  and  C_10
REMARK    8  A    between atoms: C_10  and  C_11
REMARK    9  A    between atoms: C_11  and  C_12
REMARK   10  A    between atoms: C_18  and  C_19
REMARK   11  A    between atoms: C_19  and  C_20
REMARK   12  A    between atoms: C_21  and  C_22
REMARK   13  A    between atoms: C_22  and  C_23
REMARK   14  A    between atoms: C_23  and  C_24
REMARK   15  A    between atoms: C_24  and  C_25
REMARK                            x       y       z     vdW  Elec       q    Type
REMARK                         _______ _______ _______ _____ _____    ______ ____
ROOT
ATOM      1  C   UNL     1     -11.915  13.757  66.417  0.00  0.00    +0.034 C 
ATOM      2  C   UNL     1     -10.661  12.953  65.779  0.00  0.00    +0.037 C 
ATOM      3  C   UNL     1     -11.671  12.906  64.367  0.00  0.00    +0.155 C 
ATOM      4  O   UNL     1     -12.994  12.509  65.046  0.00  0.00    -0.223 OA
ATOM      5  C   UNL     1     -11.850  14.572  64.175  0.00  0.00    +0.066 C 
ATOM      6  C   UNL     1     -12.397  13.395  64.818  0.00  0.00    +0.155 C 
ATOM      7  O   UNL     1     -10.984  12.854  64.270  0.00  0.00    -0.223 OA
ENDROOT
BRANCH   2   8
ATOM      8  C   UNL     1     -11.226  11.546  66.307  0.00  0.00    +0.028 C 
BRANCH   8   9
ATOM      9  C   UNL     1     -10.424  11.005  67.375  0.00  0.00    -0.031 C 
ATOM     10  C   UNL     1     -10.826  10.793  68.630  0.00  0.00    -0.031 C 
BRANCH  10  11
ATOM     11  C   UNL     1     -11.988  11.567  69.066  0.00  0.00    +0.026 C 
BRANCH  11  12
ATOM     12  C   UNL     1     -12.141  11.846  70.429  0.00  0.00    +0.016 C 
BRANCH  12  13
ATOM     13  C   UNL     1     -12.853  11.187  71.449  0.00  0.00    +0.114 C 
BRANCH  13  14
ATOM     14  C   UNL     1     -12.703   9.764  71.640  0.00  0.00    +0.365 C 
ATOM     15  O   UNL     1     -13.889   9.037  71.734  0.00  0.00    -0.246 OA
ATOM     16  O   UNL     1     -11.674   9.099  71.861  0.00  0.00    -0.246 OA
ENDBRANCH  13  14
ENDBRANCH  12  13
ENDBRANCH  11  12
ENDBRANCH  10  11
ENDBRANCH   8   9
ENDBRANCH   2   8
BRANCH   1  17
ATOM     17  C   UNL     1     -11.263  15.151  65.908  0.00  0.00    +0.010 C 
BRANCH  17  18
ATOM     18  C   UNL     1     -10.635  15.542  66.999  0.00  0.00    +0.065 C 
BRANCH  18  19
ATOM     19  C   UNL     1      -9.938  16.807  67.041  0.00  0.00    +0.151 C 
ATOM     20  O   UNL     1      -9.711  17.292  65.969  0.00  0.00    -0.296 OA
BRANCH  19  21
ATOM     21  C   UNL     1     -10.477  17.576  68.222  0.00  0.00    +0.065 C 
BRANCH  21  22
ATOM     22  C   UNL     1     -10.565  16.566  69.245  0.00  0.00    +0.008 C 
BRANCH  22  23
ATOM     23  C   UNL     1     -11.271  16.126  70.192  0.00  0.00    +0.000 C 
BRANCH  23  24
ATOM     24  C   UNL     1     -12.017  15.760  71.249  0.00  0.00    +0.000 C 
BRANCH  24  25
ATOM     25  C   UNL     1     -13.291  15.351  71.140  0.00  0.00    +0.000 C 
BRANCH  25  27
ATOM     26  C   UNL     1     -14.091  14.809  71.839  0.00  0.00    +0.000 C 
ATOM     27  C   UNL     1     -14.514  15.127  71.657  0.00  0.00    +0.000 C 
ENDBRANCH  25  27
ENDBRANCH  24  25
ENDBRANCH  23  24
ENDBRANCH  22  23
ENDBRANCH  21  22
ENDBRANCH  19  21
ENDBRANCH  18  19
ENDBRANCH  17  18
ENDBRANCH   1  17
TORSDOF 15
ENDMDL
MODEL 8
REMARK VINA RESULT:      -5.5      2.060      4.639
REMARK  Name = 
REMARK  15 active torsions:
REMARK  status: ('A' for Active; 'I' for Inactive)
REMARK    1  A    between atoms: C_2  and  C_3
REMARK    2  A    between atoms: C_3  and  C_4
REMARK    3  A    between atoms: C_4  and  C_5
REMARK    4  A    between atoms: C_5  and  C_6
REMARK    5  A    between atoms: C_6  and  C_7
REMARK    6  A    between atoms: C_7  and  C_8
REMARK    7  A    between atoms: C_8  and  C_10
REMARK    8  A    between atoms: C_10  and  C_11
REMARK    9  A    between atoms: C_11  and  C_12
REMARK   10  A    between atoms: C_18  and  C_19
REMARK   11  A    between atoms: C_19  and  C_20
REMARK   12  A    between atoms: C_21  and  C_22
REMARK   13  A    between atoms: C_22  and  C_23
REMARK   14  A    between atoms: C_23  and  C_24
REMARK   15  A    between atoms: C_24  and  C_25
REMARK                            x       y       z     vdW  Elec       q    Type
REMARK                         _______ _______ _______ _____ _____    ______ ____
ROOT
ATOM      1  C   UNL     1     -11.779  12.227  66.910  0.00  0.00    +0.034 C 
ATOM      2  C   UNL     1     -10.393  12.570  67.676  0.00  0.00    +0.037 C 
ATOM      3  C   UNL     1     -10.494  10.909  68.174  0.00  0.00    +0.155 C 
ATOM      4  O   UNL     1     -11.982  10.878  68.566  0.00  0.00    -0.223 OA
ATOM      5  C   UNL     1     -10.512  10.224  66.633  0.00  0.00    +0.066 C 
ATOM      6  C   UNL     1     -11.340  10.771  67.690  0.00  0.00    +0.155 C 
ATOM      7  O   UNL     1      -9.863  11.201  68.161  0.00  0.00    -0.223 OA
ENDROOT
BRANCH   2   8
ATOM      8  C   UNL     1     -11.178  13.075  68.983  0.00  0.00    +0.028 C 
BRANCH   8   9
ATOM      9  C   UNL     1     -11.956  14.260  68.727  0.00  0.00    -0.031 C 
ATOM     10  C   UNL     1     -11.790  15.450  69.306  0.00  0.00    -0.031 C 
BRANCH  10  11
ATOM     11  C   UNL     1     -11.090  15.442  70.591  0.00  0.00    +0.026 C 
BRANCH  11  12
ATOM     12  C   UNL     1     -11.827  15.224  71.761  0.00  0.00    +0.016 C 
BRANCH  12  13
ATOM     13  C   UNL     1     -13.030  15.782  72.232  0.00  0.00    +0.114 C 
BRANCH  13  14
ATOM     14  C   UNL     1     -14.282  15.092  72.029  0.00  0.00    +0.365 C 
ATOM     15  O   UNL     1     -14.322  13.769  72.470  0.00  0.00    -0.246 OA
ATOM     16  O   UNL     1     -15.295  15.455  71.404  0.00  0.00    -0.246 OA
ENDBRANCH  13  14
ENDBRANCH  12  13
ENDBRANCH  11  12
ENDBRANCH  10  11
ENDBRANCH   8   9
ENDBRANCH   2   8
BRANCH   1  17
ATOM     17  C   UNL     1     -10.931  11.786  65.601  0.00  0.00    +0.010 C 
BRANCH  17  18
ATOM     18  C   UNL     1     -10.844  12.938  64.966  0.00  0.00    +0.065 C 
BRANCH  18  19
ATOM     19  C   UNL     1     -11.901  13.381  64.086  0.00  0.00    +0.151 C 
ATOM     20  O   UNL     1     -12.722  12.547  63.827  0.00  0.00    -0.296 OA
BRANCH  19  21
ATOM     21  C   UNL     1     -12.228  14.805  64.460  0.00  0.00    +0.065 C 
BRANCH  21  22
ATOM     22  C   UNL     1     -10.965  15.305  64.941  0.00  0.00    +0.008 C 
BRANCH  22  23
ATOM     23  C   UNL     1     -10.421  16.145  65.706  0.00  0.00    +0.000 C 
BRANCH  23  24
ATOM     24  C   UNL     1      -9.941  17.050  66.578  0.00  0.00    +0.000 C 
BRANCH  24  25
ATOM     25  C   UNL     1      -8.851  16.834  67.332  0.00  0.00    +0.000 C 
BRANCH  25  27
ATOM     26  C   UNL     1      -8.331  16.208  68.204  0.00  0.00    +0.000 C 
ATOM     27  C   UNL     1      -8.248  16.660  68.523  0.00  0.00    +0.000 C 
ENDBRANCH  25  27
ENDBRANCH  24  25
ENDBRANCH  23  24
ENDBRANCH  22  23
ENDBRANCH  21  22
ENDBRANCH  19  21
ENDBRANCH  18  19
ENDBRANCH  17  18
ENDBRANCH   1  17
TORSDOF 15
ENDMDL
MODEL 9
REMARK VINA RESULT:      -5.5      2.236      3.706
REMARK  Name = 
REMARK  15 active torsions:
REMARK  status: ('A' for Active; 'I' for Inactive)
REMARK    1  A    between atoms: C_2  and  C_3
REMARK    2  A    between atoms: C_3  and  C_4
REMARK    3  A    between atoms: C_4  and  C_5
REMARK    4  A    between atoms: C_5  and  C_6
REMARK    5  A    between atoms: C_6  and  C_7
REMARK    6  A    between atoms: C_7  and  C_8
REMARK    7  A    between atoms: C_8  and  C_10
REMARK    8  A    between atoms: C_10  and  C_11
REMARK    9  A    between atoms: C_11  and  C_12
REMARK   10  A    between atoms: C_18  and  C_19
REMARK   11  A    between atoms: C_19  and  C_20
REMARK   12  A    between atoms: C_21  and  C_22
REMARK   13  A    between atoms: C_22  and  C_23
REMARK   14  A    between atoms: C_23  and  C_24
REMARK   15  A    between atoms: C_24  and  C_25
REMARK                            x       y       z     vdW  Elec       q    Type
REMARK                         _______ _______ _______ _____ _____    ______ ____
ROOT
ATOM      1  C   UNL     1     -10.562  13.100  65.905  0.00  0.00    +0.034 C 
ATOM      2  C   UNL     1     -12.002  13.308  66.618  0.00  0.00    +0.037 C 
ATOM      3  C   UNL     1     -12.467  13.891  65.049  0.00  0.00    +0.155 C 
ATOM      4  O   UNL     1     -11.246  14.786  64.768  0.00  0.00    -0.223 OA
ATOM      5  C   UNL     1     -12.097  12.493  64.182  0.00  0.00    +0.066 C 
ATOM      6  C   UNL     1     -11.565  13.745  64.681  0.00  0.00    +0.155 C 
ATOM      7  O   UNL     1     -12.970  13.641  65.458  0.00  0.00    -0.223 OA
ENDROOT
BRANCH   2   8
ATOM      8  C   UNL     1     -11.604  14.782  67.116  0.00  0.00    +0.028 C 
BRANCH   8   9
ATOM      9  C   UNL     1     -11.867  14.971  68.520  0.00  0.00    -0.031 C 
ATOM     10  C   UNL     1     -11.374  15.943  69.289  0.00  0.00    -0.031 C 
BRANCH  10  11
ATOM     11  C   UNL     1     -10.152  16.582  68.803  0.00  0.00    +0.026 C 
BRANCH  11  12
ATOM     12  C   UNL     1     -10.131  17.974  68.650  0.00  0.00    +0.016 C 
BRANCH  12  13
ATOM     13  C   UNL     1     -10.372  18.800  67.536  0.00  0.00    +0.114 C 
BRANCH  13  14
ATOM     14  C   UNL     1     -10.107  18.318  66.202  0.00  0.00    +0.365 C 
ATOM     15  O   UNL     1      -8.761  18.146  65.876  0.00  0.00    -0.246 OA
ATOM     16  O   UNL     1     -10.890  18.152  65.249  0.00  0.00    -0.246 OA
ENDBRANCH  13  14
ENDBRANCH  12  13
ENDBRANCH  11  12
ENDBRANCH  10  11
ENDBRANCH   8   9
ENDBRANCH   2   8
BRANCH   1  17
ATOM     17  C   UNL     1     -11.003  11.600  65.481  0.00  0.00    +0.010 C 
BRANCH  17  18
ATOM     18  C   UNL     1     -10.178  10.884  66.220  0.00  0.00    +0.065 C 
BRANCH  18  19
ATOM     19  C   UNL     1     -10.667  10.106  67.335  0.00  0.00    +0.151 C 
ATOM     20  O   UNL     1     -10.698   8.922  67.148  0.00  0.00    -0.296 OA
BRANCH  19  21
ATOM     21  C   UNL     1     -10.144  10.752  68.594  0.00  0.00    +0.065 C 
BRANCH  21  22
ATOM     22  C   UNL     1     -11.207  10.518  69.537  0.00  0.00    +0.008 C 
BRANCH  22  23
ATOM     23  C   UNL     1     -11.964  11.063  70.383  0.00  0.00    +0.000 C 
BRANCH  23  24
ATOM     24  C   UNL     1     -12.853  11.570  71.257  0.00  0.00    +0.000 C 
BRANCH  24  25
ATOM     25  C   UNL     1     -12.941  12.880  71.535  0.00  0.00    +0.000 C 
BRANCH  25  27
ATOM     26  C   UNL     1     -13.686  13.410  72.302  0.00  0.00    +0.000 C 
ATOM     27  C   UNL     1     -13.514  13.924  72.163  0.00  0.00    +0.000 C 
ENDBRANCH  25  27
ENDBRANCH  24  25
ENDBRANCH  23  24
ENDBRANCH  22  23
ENDBRANCH  21  22
ENDBRANCH  19  21
ENDBRANCH  18  19
ENDBRANCH  17  18
ENDBRANCH   1  17
TORSDOF 15
ENDMDL
