MODEL 1
REMARK VINA RESULT:      -8.3      0.000      0.000
REMARK  Name = 
REMARK  6 active torsions:
REMARK  status: ('A' for Active; 'I' for Inactive)
REMARK    1  A    between atoms: O_2  and  C_3
REMARK    2  A    between atoms: C_5  and  C_6
REMARK    3  A    between atoms: C_6  and  C_7
REMARK    4  A    between atoms: C_7  and  C_9
REMARK    5  A    between atoms: C_20  and  O_21
REMARK    6  A    between atoms: C_37  and  O_38
REMARK                            x       y       z     vdW  Elec       q    Type
REMARK                         _______ _______ _______ _____ _____    ______ ____
ROOT
ATOM      1  C   UNL     1      -3.848  13.517  71.035  0.00  0.00    +0.176 C 
ATOM      2  O   UNL     1      -2.745  14.218  70.242  0.00  0.00    -0.451 OA
ATOM      3  C   UNL     1      -2.926  15.546  70.246  0.00  0.00    +0.335 C 
ATOM      4  O   UNL     1      -1.947  16.301  70.406  0.00  0.00    -0.248 OA
ATOM      5  C   UNL     1      -4.367  16.204  69.938  0.00  0.00    +0.175 C 
ATOM      6  N   UNL     1      -4.592  15.489  68.564  0.00  0.00    -0.265 N 
ATOM      7  C   UNL     1      -5.643  14.506  68.367  0.00  0.00    +0.094 C 
ATOM      8  C   UNL     1      -6.888  14.684  69.044  0.00  0.00    +0.022 C 
ATOM      9  C   UNL     1      -6.673  15.330  70.340  0.00  0.00    +0.004 C 
ATOM     10  C   UNL     1      -4.069  16.367  67.611  0.00  0.00    +0.289 C 
ATOM     11  O   UNL     1      -3.832  15.782  66.511  0.00  0.00    -0.267 OA
ATOM     12  C   UNL     1      -4.333  17.808  67.733  0.00  0.00    +0.279 C 
ATOM     13  O   UNL     1      -4.429  18.282  66.537  0.00  0.00    -0.281 OA
ATOM     14  C   UNL     1      -5.167  18.470  68.719  0.00  0.00    +0.279 C 
ATOM     15  O   UNL     1      -6.443  18.236  68.183  0.00  0.00    -0.329 OA
ATOM     16  C   UNL     1      -7.435  18.842  69.158  0.00  0.00    +0.121 C 
ATOM     17  C   UNL     1      -7.178  20.379  68.622  0.00  0.00    +0.030 C 
ATOM     18  C   UNL     1      -6.159  20.393  67.589  0.00  0.00    +0.008 C 
ATOM     19  C   UNL     1      -8.776  18.714  68.208  0.00  0.00    +0.063 C 
ATOM     20  C   UNL     1      -8.406  17.515  67.148  0.00  0.00    +0.136 C 
ATOM     21  C   UNL     1      -9.883  16.823  67.120  0.00  0.00    -0.017 C 
ATOM     22  C   UNL     1     -10.683  16.976  68.384  0.00  0.00    +0.029 C 
ATOM     23  C   UNL     1      -9.577  15.544  66.874  0.00  0.00    -0.006 C 
ATOM     24  C   UNL     1      -9.455  15.065  65.489  0.00  0.00    -0.001 C 
ATOM     25  C   UNL     1     -10.613  15.125  64.878  0.00  0.00    -0.000 C 
ATOM     26  C   UNL     1     -11.285  13.851  64.583  0.00  0.00    -0.005 C 
ATOM     27  C   UNL     1     -10.704  12.673  64.632  0.00  0.00    -0.026 C 
ATOM     28  C   UNL     1     -10.151  12.256  66.078  0.00  0.00    +0.022 C 
ATOM     29  C   UNL     1     -11.644  12.299  66.742  0.00  0.00    +0.005 C 
ATOM     30  C   UNL     1     -10.258  10.641  65.816  0.00  0.00    +0.012 C 
ATOM     31  C   UNL     1      -9.997  10.290  67.396  0.00  0.00    +0.061 C 
ATOM     32  C   UNL     1     -11.267   9.272  67.510  0.00  0.00    +0.008 C 
ATOM     33  C   UNL     1      -8.921   9.149  67.070  0.00  0.00    +0.180 C 
ATOM     34  O   UNL     1      -9.269   8.296  66.250  0.00  0.00    -0.293 OA
ATOM     35  C   UNL     1      -8.509   8.290  68.377  0.00  0.00    +0.206 C 
ATOM     36  C   UNL     1      -6.848   8.273  67.892  0.00  0.00    +0.204 C 
ATOM     37  O   UNL     1      -6.902   6.771  67.750  0.00  0.00    -0.216 OA
ATOM     38  C   UNL     1      -6.208   8.206  69.380  0.00  0.00    -0.015 C 
ATOM     39  C   UNL     1      -6.959   7.330  70.344  0.00  0.00    +0.029 C 
ATOM     40  C   UNL     1      -5.650   9.281  69.680  0.00  0.00    -0.025 C 
ATOM     41  C   UNL     1      -4.203   9.653  70.211  0.00  0.00    +0.079 C 
ATOM     42  C   UNL     1      -3.702  10.079  68.706  0.00  0.00    +0.012 C 
ATOM     43  C   UNL     1      -4.653  11.152  70.645  0.00  0.00    +0.158 C 
ATOM     44  O   UNL     1      -5.150  10.971  71.735  0.00  0.00    -0.296 OA
ATOM     45  O   UNL     1      -5.135  18.639  69.968  0.00  0.00    -0.187 OA
ATOM     46  C   UNL     1      -4.715  19.987  68.227  0.00  0.00    +0.062 C 
ATOM     47  C   UNL     1      -4.986  20.846  69.591  0.00  0.00    +0.006 C 
ATOM     48  C   UNL     1      -5.234  15.076  70.774  0.00  0.00    +0.031 C 
ATOM     49  C   UNL     1      -3.734  12.147  70.165  0.00  0.00    +0.108 C 
ENDROOT
BRANCH   1  50
ATOM     50  C   UNL     1      -2.838  12.864  72.260  0.00  0.00    +0.041 C 
ATOM     51  C   UNL     1      -1.954  14.196  72.546  0.00  0.00    +0.004 C 
BRANCH  50  52
ATOM     52  C   UNL     1      -3.769  13.173  73.530  0.00  0.00    +0.004 C 
BRANCH  52  58
ATOM     53  C   UNL     1      -4.486  10.906  76.481  0.00  0.00    +0.146 C 
ATOM     54  C   UNL     1      -2.817  10.625  76.856  0.00  0.00    +0.179 C 
ATOM     55  O   UNL     1      -2.466  12.091  77.000  0.00  0.00    -0.221 OA
ATOM     56  C   UNL     1      -2.239  10.393  75.361  0.00  0.00    +0.035 C 
ATOM     57  C   UNL     1      -2.830  10.961  74.255  0.00  0.00    +0.003 C 
ATOM     58  C   UNL     1      -3.009  12.484  74.813  0.00  0.00    +0.003 C 
ATOM     59  C   UNL     1      -4.417  12.152  75.479  0.00  0.00    +0.032 C 
BRANCH  53  61
ATOM     60  C   UNL     1      -5.650   9.530  75.386  0.00  0.00    +0.174 C 
ATOM     61  O   UNL     1      -4.577   9.850  75.390  0.00  0.00    -0.351 OA
ENDBRANCH  53  61
ENDBRANCH  52  58
ENDBRANCH  50  52
ENDBRANCH   1  50
BRANCH  20  62
ATOM     62  O   UNL     1      -8.752  18.394  65.951  0.00  0.00    -0.349 OA
ATOM     63  C   UNL     1      -9.735  19.261  66.363  0.00  0.00    +0.174 C 
ENDBRANCH  20  62
BRANCH  35  64
ATOM     64  O   UNL     1      -8.312   9.405  69.359  0.00  0.00    -0.343 OA
ATOM     65  C   UNL     1      -9.200   9.527  70.307  0.00  0.00    +0.175 C 
ENDBRANCH  35  64
TORSDOF 6
ENDMDL
MODEL 2
REMARK VINA RESULT:      -6.9      3.169      9.268
REMARK  Name = 
REMARK  6 active torsions:
REMARK  status: ('A' for Active; 'I' for Inactive)
REMARK    1  A    between atoms: O_2  and  C_3
REMARK    2  A    between atoms: C_5  and  C_6
REMARK    3  A    between atoms: C_6  and  C_7
REMARK    4  A    between atoms: C_7  and  C_9
REMARK    5  A    between atoms: C_20  and  O_21
REMARK    6  A    between atoms: C_37  and  O_38
REMARK                            x       y       z     vdW  Elec       q    Type
REMARK                         _______ _______ _______ _____ _____    ______ ____
ROOT
ATOM      1  C   UNL     1      -3.570  11.345  67.284  0.00  0.00    +0.176 C 
ATOM      2  O   UNL     1      -3.504  10.336  68.430  0.00  0.00    -0.451 OA
ATOM      3  C   UNL     1      -4.326   9.302  68.201  0.00  0.00    +0.335 C 
ATOM      4  O   UNL     1      -3.942   8.142  68.451  0.00  0.00    -0.248 OA
ATOM      5  C   UNL     1      -5.848   9.524  67.712  0.00  0.00    +0.175 C 
ATOM      6  N   UNL     1      -6.265  10.482  68.877  0.00  0.00    -0.265 N 
ATOM      7  C   UNL     1      -6.598  11.878  68.649  0.00  0.00    +0.094 C 
ATOM      8  C   UNL     1      -7.278  12.234  67.444  0.00  0.00    +0.022 C 
ATOM      9  C   UNL     1      -6.868  11.353  66.350  0.00  0.00    +0.004 C 
ATOM     10  C   UNL     1      -6.782   9.642  69.866  0.00  0.00    +0.289 C 
ATOM     11  O   UNL     1      -6.810  10.211  71.000  0.00  0.00    -0.267 OA
ATOM     12  C   UNL     1      -7.669   8.534  69.483  0.00  0.00    +0.279 C 
ATOM     13  O   UNL     1      -8.533   8.389  70.431  0.00  0.00    -0.281 OA
ATOM     14  C   UNL     1      -8.164   8.221  68.156  0.00  0.00    +0.279 C 
ATOM     15  O   UNL     1      -9.206   9.155  68.038  0.00  0.00    -0.329 OA
ATOM     16  C   UNL     1      -9.791   8.971  66.650  0.00  0.00    +0.121 C 
ATOM     17  C   UNL     1     -10.653   7.634  67.080  0.00  0.00    +0.030 C 
ATOM     18  C   UNL     1     -10.400   7.289  68.466  0.00  0.00    +0.008 C 
ATOM     19  C   UNL     1     -11.123   9.919  66.850  0.00  0.00    +0.063 C 
ATOM     20  C   UNL     1     -10.716  10.933  68.076  0.00  0.00    +0.136 C 
ATOM     21  C   UNL     1     -11.431  12.267  67.467  0.00  0.00    -0.017 C 
ATOM     22  C   UNL     1     -11.508  12.319  65.966  0.00  0.00    +0.029 C 
ATOM     23  C   UNL     1     -10.654  13.238  67.962  0.00  0.00    -0.006 C 
ATOM     24  C   UNL     1     -10.950  13.825  69.278  0.00  0.00    -0.001 C 
ATOM     25  C   UNL     1     -12.095  14.463  69.250  0.00  0.00    -0.000 C 
ATOM     26  C   UNL     1     -12.048  15.931  69.319  0.00  0.00    -0.005 C 
ATOM     27  C   UNL     1     -10.992  16.627  69.677  0.00  0.00    -0.026 C 
ATOM     28  C   UNL     1      -9.715  16.449  68.724  0.00  0.00    +0.022 C 
ATOM     29  C   UNL     1     -10.509  17.048  67.426  0.00  0.00    +0.005 C 
ATOM     30  C   UNL     1      -9.068  17.915  69.070  0.00  0.00    +0.012 C 
ATOM     31  C   UNL     1      -7.975  17.806  67.854  0.00  0.00    +0.061 C 
ATOM     32  C   UNL     1      -8.305  19.286  67.253  0.00  0.00    +0.008 C 
ATOM     33  C   UNL     1      -6.754  18.287  68.771  0.00  0.00    +0.180 C 
ATOM     34  O   UNL     1      -6.933  19.327  69.409  0.00  0.00    -0.293 OA
ATOM     35  C   UNL     1      -5.411  18.579  67.919  0.00  0.00    +0.206 C 
ATOM     36  C   UNL     1      -4.428  17.842  69.138  0.00  0.00    +0.204 C 
ATOM     37  O   UNL     1      -3.747  19.165  69.392  0.00  0.00    -0.216 OA
ATOM     38  C   UNL     1      -3.251  17.317  68.154  0.00  0.00    -0.015 C 
ATOM     39  C   UNL     1      -2.894  18.268  67.044  0.00  0.00    +0.029 C 
ATOM     40  C   UNL     1      -3.274  16.074  68.046  0.00  0.00    -0.025 C 
ATOM     41  C   UNL     1      -2.184  14.938  68.236  0.00  0.00    +0.079 C 
ATOM     42  C   UNL     1      -2.734  14.588  69.743  0.00  0.00    +0.012 C 
ATOM     43  C   UNL     1      -3.092  13.820  67.486  0.00  0.00    +0.158 C 
ATOM     44  O   UNL     1      -2.857  14.033  66.317  0.00  0.00    -0.296 OA
ATOM     45  O   UNL     1      -7.659   7.843  67.064  0.00  0.00    -0.187 OA
ATOM     46  C   UNL     1      -8.857   6.796  68.643  0.00  0.00    +0.062 C 
ATOM     47  C   UNL     1      -8.877   5.967  67.234  0.00  0.00    +0.006 C 
ATOM     48  C   UNL     1      -5.501  10.769  66.686  0.00  0.00    +0.031 C 
ATOM     49  C   UNL     1      -3.170  12.599  68.240  0.00  0.00    +0.108 C 
ENDROOT
BRANCH   1  50
ATOM     50  C   UNL     1      -1.941  11.176  66.767  0.00  0.00    +0.041 C 
ATOM     51  C   UNL     1      -1.995   9.598  66.390  0.00  0.00    +0.004 C 
BRANCH  50  52
ATOM     52  C   UNL     1      -2.134  11.581  65.226  0.00  0.00    +0.004 C 
BRANCH  52  58
ATOM     53  C   UNL     1      -4.636  10.631  62.542  0.00  0.00    +0.146 C 
ATOM     54  C   UNL     1      -4.124   8.977  62.446  0.00  0.00    +0.179 C 
ATOM     55  O   UNL     1      -4.333   8.689  63.919  0.00  0.00    -0.221 OA
ATOM     56  C   UNL     1      -2.518   9.189  62.478  0.00  0.00    +0.035 C 
ATOM     57  C   UNL     1      -1.939  10.277  63.090  0.00  0.00    +0.003 C 
ATOM     58  C   UNL     1      -2.767  10.252  64.496  0.00  0.00    +0.003 C 
ATOM     59  C   UNL     1      -3.951  11.134  63.898  0.00  0.00    +0.032 C 
BRANCH  53  61
ATOM     60  C   UNL     1      -3.993  12.113  61.187  0.00  0.00    +0.174 C 
ATOM     61  O   UNL     1      -3.555  11.180  61.624  0.00  0.00    -0.351 OA
ENDBRANCH  53  61
ENDBRANCH  52  58
ENDBRANCH  50  52
ENDBRANCH   1  50
BRANCH  20  62
ATOM     62  O   UNL     1     -11.971  10.572  68.863  0.00  0.00    -0.349 OA
ATOM     63  C   UNL     1     -11.588  10.409  70.172  0.00  0.00    +0.174 C 
ENDBRANCH  20  62
BRANCH  35  64
ATOM     64  O   UNL     1      -5.402  17.364  67.040  0.00  0.00    -0.343 OA
ATOM     65  C   UNL     1      -5.730  17.533  65.788  0.00  0.00    +0.175 C 
ENDBRANCH  35  64
TORSDOF 6
ENDMDL
MODEL 3
REMARK VINA RESULT:      -6.6      2.641      8.354
REMARK  Name = 
REMARK  6 active torsions:
REMARK  status: ('A' for Active; 'I' for Inactive)
REMARK    1  A    between atoms: O_2  and  C_3
REMARK    2  A    between atoms: C_5  and  C_6
REMARK    3  A    between atoms: C_6  and  C_7
REMARK    4  A    between atoms: C_7  and  C_9
REMARK    5  A    between atoms: C_20  and  O_21
REMARK    6  A    between atoms: C_37  and  O_38
REMARK                            x       y       z     vdW  Elec       q    Type
REMARK                         _______ _______ _______ _____ _____    ______ ____
ROOT
ATOM      1  C   UNL     1     -10.026  11.760  66.269  0.00  0.00    +0.176 C 
ATOM      2  O   UNL     1     -11.174  12.682  66.680  0.00  0.00    -0.451 OA
ATOM      3  C   UNL     1     -10.876  13.962  66.412  0.00  0.00    +0.335 C 
ATOM      4  O   UNL     1     -11.746  14.706  65.918  0.00  0.00    -0.248 OA
ATOM      5  C   UNL     1      -9.449  14.599  66.812  0.00  0.00    +0.175 C 
ATOM      6  N   UNL     1      -9.511  14.217  68.329  0.00  0.00    -0.265 N 
ATOM      7  C   UNL     1      -8.596  13.256  68.921  0.00  0.00    +0.094 C 
ATOM      8  C   UNL     1      -7.248  13.207  68.450  0.00  0.00    +0.022 C 
ATOM      9  C   UNL     1      -7.197  13.540  67.026  0.00  0.00    +0.004 C 
ATOM     10  C   UNL     1     -10.097  15.320  68.955  0.00  0.00    +0.289 C 
ATOM     11  O   UNL     1     -10.557  15.023  70.100  0.00  0.00    -0.267 OA
ATOM     12  C   UNL     1      -9.688  16.677  68.563  0.00  0.00    +0.279 C 
ATOM     13  O   UNL     1      -9.742  17.414  69.621  0.00  0.00    -0.281 OA
ATOM     14  C   UNL     1      -8.653  17.045  67.616  0.00  0.00    +0.279 C 
ATOM     15  O   UNL     1      -7.504  16.880  68.406  0.00  0.00    -0.329 OA
ATOM     16  C   UNL     1      -6.319  17.188  67.509  0.00  0.00    +0.121 C 
ATOM     17  C   UNL     1      -6.520  18.819  67.635  0.00  0.00    +0.030 C 
ATOM     18  C   UNL     1      -7.684  19.128  68.444  0.00  0.00    +0.008 C 
ATOM     19  C   UNL     1      -5.163  17.219  68.683  0.00  0.00    +0.063 C 
ATOM     20  C   UNL     1      -5.803  16.324  69.903  0.00  0.00    +0.136 C 
ATOM     21  C   UNL     1      -4.417  15.584  70.343  0.00  0.00    -0.017 C 
ATOM     22  C   UNL     1      -3.416  15.394  69.236  0.00  0.00    +0.029 C 
ATOM     23  C   UNL     1      -4.873  14.415  70.810  0.00  0.00    -0.006 C 
ATOM     24  C   UNL     1      -5.255  14.282  72.225  0.00  0.00    -0.001 C 
ATOM     25  C   UNL     1      -4.207  14.426  73.000  0.00  0.00    -0.000 C 
ATOM     26  C   UNL     1      -3.708  13.224  73.684  0.00  0.00    -0.005 C 
ATOM     27  C   UNL     1      -4.377  12.099  73.798  0.00  0.00    -0.026 C 
ATOM     28  C   UNL     1      -4.729  11.382  72.408  0.00  0.00    +0.022 C 
ATOM     29  C   UNL     1      -3.151  11.192  72.023  0.00  0.00    +0.005 C 
ATOM     30  C   UNL     1      -4.811   9.871  73.038  0.00  0.00    +0.012 C 
ATOM     31  C   UNL     1      -4.848   9.172  71.556  0.00  0.00    +0.061 C 
ATOM     32  C   UNL     1      -3.673   8.092  71.896  0.00  0.00    +0.008 C 
ATOM     33  C   UNL     1      -6.059   8.195  71.935  0.00  0.00    +0.180 C 
ATOM     34  O   UNL     1      -5.925   7.543  72.972  0.00  0.00    -0.293 OA
ATOM     35  C   UNL     1      -6.334   7.075  70.801  0.00  0.00    +0.206 C 
ATOM     36  C   UNL     1      -8.046   7.257  70.979  0.00  0.00    +0.204 C 
ATOM     37  O   UNL     1      -8.151   5.830  71.459  0.00  0.00    -0.216 OA
ATOM     38  C   UNL     1      -8.446   6.874  69.455  0.00  0.00    -0.015 C 
ATOM     39  C   UNL     1      -7.632   5.759  68.857  0.00  0.00    +0.029 C 
ATOM     40  C   UNL     1      -8.850   7.875  68.830  0.00  0.00    -0.025 C 
ATOM     41  C   UNL     1     -10.155   8.185  67.984  0.00  0.00    +0.079 C 
ATOM     42  C   UNL     1     -10.848   8.978  69.244  0.00  0.00    +0.012 C 
ATOM     43  C   UNL     1      -9.509   9.515  67.312  0.00  0.00    +0.158 C 
ATOM     44  O   UNL     1      -8.864   9.058  66.394  0.00  0.00    -0.296 OA
ATOM     45  O   UNL     1      -8.471  16.918  66.375  0.00  0.00    -0.187 OA
ATOM     46  C   UNL     1      -9.039  18.656  67.670  0.00  0.00    +0.062 C 
ATOM     47  C   UNL     1      -8.479  19.156  66.218  0.00  0.00    +0.006 C 
ATOM     48  C   UNL     1      -8.565  13.264  66.414  0.00  0.00    +0.031 C 
ATOM     49  C   UNL     1     -10.399  10.641  67.389  0.00  0.00    +0.108 C 
ENDROOT
BRANCH   1  50
ATOM     50  C   UNL     1     -10.884  10.889  65.063  0.00  0.00    +0.041 C 
ATOM     51  C   UNL     1     -11.978  12.034  64.704  0.00  0.00    +0.004 C 
BRANCH  50  52
ATOM     52  C   UNL     1      -9.994  11.298  63.792  0.00  0.00    +0.004 C 
BRANCH  52  58
ATOM     53  C   UNL     1      -7.796   9.987  60.998  0.00  0.00    +0.146 C 
ATOM     54  C   UNL     1      -7.419   8.496  61.798  0.00  0.00    +0.179 C 
ATOM     55  O   UNL     1      -8.863   8.078  61.986  0.00  0.00    -0.221 OA
ATOM     56  C   UNL     1      -7.142   9.054  63.293  0.00  0.00    +0.035 C 
ATOM     57  C   UNL     1      -7.735  10.203  63.763  0.00  0.00    +0.003 C 
ATOM     58  C   UNL     1      -9.271   9.910  63.294  0.00  0.00    +0.003 C 
ATOM     59  C   UNL     1      -9.028  10.544  61.853  0.00  0.00    +0.032 C 
BRANCH  53  61
ATOM     60  C   UNL     1      -6.458  11.616  60.982  0.00  0.00    +0.174 C 
ATOM     61  O   UNL     1      -6.739  10.815  61.711  0.00  0.00    -0.351 OA
ENDBRANCH  53  61
ENDBRANCH  52  58
ENDBRANCH  50  52
ENDBRANCH   1  50
BRANCH  20  62
ATOM     62  O   UNL     1      -5.574  17.441  70.915  0.00  0.00    -0.349 OA
ATOM     63  C   UNL     1      -4.543  18.211  70.433  0.00  0.00    +0.174 C 
ENDBRANCH  20  62
BRANCH  35  64
ATOM     64  O   UNL     1      -6.273   7.937  69.576  0.00  0.00    -0.343 OA
ATOM     65  C   UNL     1      -5.221   7.812  68.813  0.00  0.00    +0.175 C 
ENDBRANCH  35  64
TORSDOF 6
ENDMDL
MODEL 4
REMARK VINA RESULT:      -6.6      2.671      9.124
REMARK  Name = 
REMARK  6 active torsions:
REMARK  status: ('A' for Active; 'I' for Inactive)
REMARK    1  A    between atoms: O_2  and  C_3
REMARK    2  A    between atoms: C_5  and  C_6
REMARK    3  A    between atoms: C_6  and  C_7
REMARK    4  A    between atoms: C_7  and  C_9
REMARK    5  A    between atoms: C_20  and  O_21
REMARK    6  A    between atoms: C_37  and  O_38
REMARK                            x       y       z     vdW  Elec       q    Type
REMARK                         _______ _______ _______ _____ _____    ______ ____
ROOT
ATOM      1  C   UNL     1      -9.315   8.395  67.889  0.00  0.00    +0.176 C 
ATOM      2  O   UNL     1      -8.275   7.507  67.206  0.00  0.00    -0.451 OA
ATOM      3  C   UNL     1      -7.393   7.035  68.098  0.00  0.00    +0.335 C 
ATOM      4  O   UNL     1      -7.028   5.845  68.032  0.00  0.00    -0.248 OA
ATOM      5  C   UNL     1      -6.703   7.996  69.194  0.00  0.00    +0.175 C 
ATOM      6  N   UNL     1      -6.147   9.047  68.175  0.00  0.00    -0.265 N 
ATOM      7  C   UNL     1      -6.636  10.414  68.131  0.00  0.00    +0.094 C 
ATOM      8  C   UNL     1      -7.003  11.054  69.355  0.00  0.00    +0.022 C 
ATOM      9  C   UNL     1      -7.545  10.074  70.296  0.00  0.00    +0.004 C 
ATOM     10  C   UNL     1      -4.861   8.601  67.863  0.00  0.00    +0.289 C 
ATOM     11  O   UNL     1      -4.431   9.117  66.787  0.00  0.00    -0.267 OA
ATOM     12  C   UNL     1      -3.990   8.096  68.935  0.00  0.00    +0.279 C 
ATOM     13  O   UNL     1      -2.779   8.424  68.631  0.00  0.00    -0.281 OA
ATOM     14  C   UNL     1      -4.273   8.064  70.358  0.00  0.00    +0.279 C 
ATOM     15  O   UNL     1      -4.007   9.397  70.708  0.00  0.00    -0.329 OA
ATOM     16  C   UNL     1      -4.316   9.521  72.188  0.00  0.00    +0.121 C 
ATOM     17  C   UNL     1      -2.899   8.817  72.647  0.00  0.00    +0.030 C 
ATOM     18  C   UNL     1      -2.134   8.408  71.484  0.00  0.00    +0.008 C 
ATOM     19  C   UNL     1      -3.670  11.020  72.419  0.00  0.00    +0.063 C 
ATOM     20  C   UNL     1      -3.680  11.697  70.923  0.00  0.00    +0.136 C 
ATOM     21  C   UNL     1      -4.095  13.202  71.398  0.00  0.00    -0.017 C 
ATOM     22  C   UNL     1      -4.925  13.269  72.650  0.00  0.00    +0.029 C 
ATOM     23  C   UNL     1      -4.766  13.647  70.329  0.00  0.00    -0.006 C 
ATOM     24  C   UNL     1      -4.051  14.318  69.232  0.00  0.00    -0.001 C 
ATOM     25  C   UNL     1      -3.536  15.450  69.644  0.00  0.00    -0.000 C 
ATOM     26  C   UNL     1      -4.151  16.689  69.146  0.00  0.00    -0.005 C 
ATOM     27  C   UNL     1      -4.980  16.753  68.128  0.00  0.00    -0.026 C 
ATOM     28  C   UNL     1      -6.347  15.937  68.321  0.00  0.00    +0.022 C 
ATOM     29  C   UNL     1      -6.790  16.842  69.609  0.00  0.00    +0.005 C 
ATOM     30  C   UNL     1      -7.222  16.872  67.298  0.00  0.00    +0.012 C 
ATOM     31  C   UNL     1      -8.640  16.205  67.779  0.00  0.00    +0.061 C 
ATOM     32  C   UNL     1      -9.381  17.639  68.014  0.00  0.00    +0.008 C 
ATOM     33  C   UNL     1      -9.173  16.006  66.282  0.00  0.00    +0.180 C 
ATOM     34  O   UNL     1      -9.121  16.999  65.553  0.00  0.00    -0.293 OA
ATOM     35  C   UNL     1     -10.726  15.562  66.227  0.00  0.00    +0.206 C 
ATOM     36  C   UNL     1     -10.402  14.440  64.949  0.00  0.00    +0.204 C 
ATOM     37  O   UNL     1     -11.294  15.234  64.023  0.00  0.00    -0.216 OA
ATOM     38  C   UNL     1     -11.569  13.377  65.317  0.00  0.00    -0.015 C 
ATOM     39  C   UNL     1     -12.860  13.999  65.776  0.00  0.00    +0.029 C 
ATOM     40  C   UNL     1     -11.088  12.319  65.770  0.00  0.00    -0.025 C 
ATOM     41  C   UNL     1     -11.261  10.788  65.395  0.00  0.00    +0.079 C 
ATOM     42  C   UNL     1      -9.863  10.785  64.535  0.00  0.00    +0.012 C 
ATOM     43  C   UNL     1     -10.583  10.281  66.780  0.00  0.00    +0.158 C 
ATOM     44  O   UNL     1     -11.509  10.330  67.559  0.00  0.00    -0.296 OA
ATOM     45  O   UNL     1      -5.094   7.469  71.106  0.00  0.00    -0.187 OA
ATOM     46  C   UNL     1      -2.904   7.198  70.711  0.00  0.00    +0.062 C 
ATOM     47  C   UNL     1      -3.349   6.479  72.110  0.00  0.00    +0.006 C 
ATOM     48  C   UNL     1      -8.062   8.878  69.506  0.00  0.00    +0.031 C 
ATOM     49  C   UNL     1      -9.578   9.280  66.550  0.00  0.00    +0.108 C 
ENDROOT
BRANCH   1  50
ATOM     50  C   UNL     1     -10.682   7.411  67.548  0.00  0.00    +0.041 C 
ATOM     51  C   UNL     1      -9.907   6.237  66.738  0.00  0.00    +0.004 C 
BRANCH  50  52
ATOM     52  C   UNL     1     -10.683   6.529  68.888  0.00  0.00    +0.004 C 
BRANCH  52  58
ATOM     53  C   UNL     1     -11.528   7.045  72.546  0.00  0.00    +0.146 C 
ATOM     54  C   UNL     1     -12.821   8.159  72.240  0.00  0.00    +0.179 C 
ATOM     55  O   UNL     1     -13.591   7.222  71.332  0.00  0.00    -0.221 OA
ATOM     56  C   UNL     1     -12.126   9.071  71.095  0.00  0.00    +0.035 C 
ATOM     57  C   UNL     1     -11.148   8.576  70.263  0.00  0.00    +0.003 C 
ATOM     58  C   UNL     1     -11.859   7.170  69.839  0.00  0.00    +0.003 C 
ATOM     59  C   UNL     1     -11.266   6.404  71.103  0.00  0.00    +0.032 C 
BRANCH  53  61
ATOM     60  C   UNL     1      -9.632   7.722  73.171  0.00  0.00    +0.174 C 
ATOM     61  O   UNL     1     -10.413   8.074  72.451  0.00  0.00    -0.351 OA
ENDBRANCH  53  61
ENDBRANCH  52  58
ENDBRANCH  50  52
ENDBRANCH   1  50
BRANCH  20  62
ATOM     62  O   UNL     1      -2.196  12.037  71.007  0.00  0.00    -0.349 OA
ATOM     63  C   UNL     1      -1.940  12.379  72.313  0.00  0.00    +0.174 C 
ENDBRANCH  20  62
BRANCH  35  64
ATOM     64  O   UNL     1     -10.722  14.502  67.288  0.00  0.00    -0.343 OA
ATOM     65  C   UNL     1     -11.356  14.768  68.396  0.00  0.00    +0.175 C 
ENDBRANCH  35  64
TORSDOF 6
ENDMDL
MODEL 5
REMARK VINA RESULT:      -6.6      5.849     12.251
REMARK  Name = 
REMARK  6 active torsions:
REMARK  status: ('A' for Active; 'I' for Inactive)
REMARK    1  A    between atoms: O_2  and  C_3
REMARK    2  A    between atoms: C_5  and  C_6
REMARK    3  A    between atoms: C_6  and  C_7
REMARK    4  A    between atoms: C_7  and  C_9
REMARK    5  A    between atoms: C_20  and  O_21
REMARK    6  A    between atoms: C_37  and  O_38
REMARK                            x       y       z     vdW  Elec       q    Type
REMARK                         _______ _______ _______ _____ _____    ______ ____
ROOT
ATOM      1  C   UNL     1      -7.953   9.096  64.570  0.00  0.00    +0.176 C 
ATOM      2  O   UNL     1      -6.540   9.274  64.015  0.00  0.00    -0.451 OA
ATOM      3  C   UNL     1      -6.340   8.476  62.956  0.00  0.00    +0.335 C 
ATOM      4  O   UNL     1      -5.741   8.918  61.957  0.00  0.00    -0.248 OA
ATOM      5  C   UNL     1      -6.760   6.919  62.981  0.00  0.00    +0.175 C 
ATOM      6  N   UNL     1      -5.962   6.547  64.275  0.00  0.00    -0.265 N 
ATOM      7  C   UNL     1      -6.627   6.149  65.505  0.00  0.00    +0.094 C 
ATOM      8  C   UNL     1      -7.826   5.377  65.420  0.00  0.00    +0.022 C 
ATOM      9  C   UNL     1      -8.582   5.745  64.222  0.00  0.00    +0.004 C 
ATOM     10  C   UNL     1      -4.711   6.127  63.820  0.00  0.00    +0.289 C 
ATOM     11  O   UNL     1      -3.839   6.156  64.742  0.00  0.00    -0.267 OA
ATOM     12  C   UNL     1      -4.626   5.257  62.638  0.00  0.00    +0.279 C 
ATOM     13  O   UNL     1      -3.622   4.465  62.817  0.00  0.00    -0.281 OA
ATOM     14  C   UNL     1      -5.726   4.685  61.884  0.00  0.00    +0.279 C 
ATOM     15  O   UNL     1      -6.076   3.605  62.709  0.00  0.00    -0.329 OA
ATOM     16  C   UNL     1      -7.270   2.935  62.055  0.00  0.00    +0.121 C 
ATOM     17  C   UNL     1      -6.346   2.152  60.937  0.00  0.00    +0.030 C 
ATOM     18  C   UNL     1      -4.949   2.510  61.091  0.00  0.00    +0.008 C 
ATOM     19  C   UNL     1      -7.305   1.586  63.001  0.00  0.00    +0.063 C 
ATOM     20  C   UNL     1      -6.531   2.038  64.377  0.00  0.00    +0.136 C 
ATOM     21  C   UNL     1      -7.503   1.237  65.414  0.00  0.00    -0.017 C 
ATOM     22  C   UNL     1      -8.922   1.057  64.949  0.00  0.00    +0.029 C 
ATOM     23  C   UNL     1      -7.429   2.009  66.504  0.00  0.00    -0.006 C 
ATOM     24  C   UNL     1      -6.373   1.781  67.503  0.00  0.00    -0.001 C 
ATOM     25  C   UNL     1      -6.530   0.615  68.081  0.00  0.00    -0.000 C 
ATOM     26  C   UNL     1      -6.969   0.614  69.484  0.00  0.00    -0.005 C 
ATOM     27  C   UNL     1      -6.950   1.666  70.271  0.00  0.00    -0.026 C 
ATOM     28  C   UNL     1      -7.879   2.882  69.792  0.00  0.00    +0.022 C 
ATOM     29  C   UNL     1      -9.239   1.982  69.902  0.00  0.00    +0.005 C 
ATOM     30  C   UNL     1      -8.103   3.497  71.295  0.00  0.00    +0.012 C 
ATOM     31  C   UNL     1      -9.287   4.510  70.787  0.00  0.00    +0.061 C 
ATOM     32  C   UNL     1     -10.330   4.087  71.970  0.00  0.00    +0.008 C 
ATOM     33  C   UNL     1      -8.684   5.772  71.567  0.00  0.00    +0.180 C 
ATOM     34  O   UNL     1      -8.426   5.598  72.760  0.00  0.00    -0.293 OA
ATOM     35  C   UNL     1      -9.683   7.043  71.564  0.00  0.00    +0.206 C 
ATOM     36  C   UNL     1      -8.364   8.131  71.299  0.00  0.00    +0.204 C 
ATOM     37  O   UNL     1      -8.627   8.780  72.637  0.00  0.00    -0.216 OA
ATOM     38  C   UNL     1      -9.196   9.257  70.482  0.00  0.00    -0.015 C 
ATOM     39  C   UNL     1     -10.587   9.505  71.000  0.00  0.00    +0.029 C 
ATOM     40  C   UNL     1      -8.871   9.272  69.277  0.00  0.00    -0.025 C 
ATOM     41  C   UNL     1      -8.389  10.412  68.287  0.00  0.00    +0.079 C 
ATOM     42  C   UNL     1      -6.816   9.978  68.468  0.00  0.00    +0.012 C 
ATOM     43  C   UNL     1      -8.643   9.497  66.970  0.00  0.00    +0.158 C 
ATOM     44  O   UNL     1      -9.829   9.645  66.772  0.00  0.00    -0.296 OA
ATOM     45  O   UNL     1      -6.658   5.130  61.161  0.00  0.00    -0.187 OA
ATOM     46  C   UNL     1      -4.731   4.079  60.704  0.00  0.00    +0.062 C 
ATOM     47  C   UNL     1      -5.768   3.994  59.443  0.00  0.00    +0.006 C 
ATOM     48  C   UNL     1      -8.172   7.151  63.803  0.00  0.00    +0.031 C 
ATOM     49  C   UNL     1      -7.515   9.514  66.080  0.00  0.00    +0.108 C 
ENDROOT
BRANCH   1  50
ATOM     50  C   UNL     1      -8.503  10.691  64.252  0.00  0.00    +0.041 C 
ATOM     51  C   UNL     1      -8.380  10.644  62.633  0.00  0.00    +0.004 C 
BRANCH  50  52
ATOM     52  C   UNL     1     -10.077  10.392  64.171  0.00  0.00    +0.004 C 
BRANCH  52  58
ATOM     53  C   UNL     1     -12.514  12.858  65.700  0.00  0.00    +0.146 C 
ATOM     54  C   UNL     1     -12.146  14.135  64.587  0.00  0.00    +0.179 C 
ATOM     55  O   UNL     1     -12.453  13.322  63.347  0.00  0.00    -0.221 OA
ATOM     56  C   UNL     1     -10.531  14.007  64.554  0.00  0.00    +0.035 C 
ATOM     57  C   UNL     1      -9.890  12.814  64.802  0.00  0.00    +0.003 C 
ATOM     58  C   UNL     1     -10.786  11.838  63.849  0.00  0.00    +0.003 C 
ATOM     59  C   UNL     1     -11.857  11.579  64.999  0.00  0.00    +0.032 C 
BRANCH  53  61
ATOM     60  C   UNL     1     -11.684  12.757  67.635  0.00  0.00    +0.174 C 
ATOM     61  O   UNL     1     -11.345  13.127  66.635  0.00  0.00    -0.351 OA
ENDBRANCH  53  61
ENDBRANCH  52  58
ENDBRANCH  50  52
ENDBRANCH   1  50
BRANCH  20  62
ATOM     62  O   UNL     1      -5.576   0.853  64.294  0.00  0.00    -0.349 OA
ATOM     63  C   UNL     1      -4.315   1.339  64.537  0.00  0.00    +0.174 C 
ENDBRANCH  20  62
BRANCH  35  64
ATOM     64  O   UNL     1     -10.094   7.036  70.122  0.00  0.00    -0.343 OA
ATOM     65  C   UNL     1     -11.277   6.564  69.842  0.00  0.00    +0.175 C 
ENDBRANCH  35  64
TORSDOF 6
ENDMDL
MODEL 6
REMARK VINA RESULT:      -6.3      4.554     11.373
REMARK  Name = 
REMARK  6 active torsions:
REMARK  status: ('A' for Active; 'I' for Inactive)
REMARK    1  A    between atoms: O_2  and  C_3
REMARK    2  A    between atoms: C_5  and  C_6
REMARK    3  A    between atoms: C_6  and  C_7
REMARK    4  A    between atoms: C_7  and  C_9
REMARK    5  A    between atoms: C_20  and  O_21
REMARK    6  A    between atoms: C_37  and  O_38
REMARK                            x       y       z     vdW  Elec       q    Type
REMARK                         _______ _______ _______ _____ _____    ______ ____
ROOT
ATOM      1  C   UNL     1      -9.846   8.366  69.623  0.00  0.00    +0.176 C 
ATOM      2  O   UNL     1     -10.718   7.812  70.749  0.00  0.00    -0.451 OA
ATOM      3  C   UNL     1     -10.285   8.242  71.942  0.00  0.00    +0.335 C 
ATOM      4  O   UNL     1     -11.111   8.612  72.800  0.00  0.00    -0.248 OA
ATOM      5  C   UNL     1      -8.723   8.195  72.343  0.00  0.00    +0.175 C 
ATOM      6  N   UNL     1      -8.519   6.670  72.053  0.00  0.00    -0.265 N 
ATOM      7  C   UNL     1      -7.663   6.195  70.978  0.00  0.00    +0.094 C 
ATOM      8  C   UNL     1      -6.472   6.923  70.674  0.00  0.00    +0.022 C 
ATOM      9  C   UNL     1      -6.674   8.352  70.922  0.00  0.00    +0.004 C 
ATOM     10  C   UNL     1      -8.775   6.034  73.270  0.00  0.00    +0.289 C 
ATOM     11  O   UNL     1      -9.021   4.799  73.114  0.00  0.00    -0.267 OA
ATOM     12  C   UNL     1      -8.249   6.615  74.514  0.00  0.00    +0.279 C 
ATOM     13  O   UNL     1      -7.958   5.634  75.301  0.00  0.00    -0.281 OA
ATOM     14  C   UNL     1      -7.395   7.779  74.650  0.00  0.00    +0.279 C 
ATOM     15  O   UNL     1      -6.145   7.227  74.328  0.00  0.00    -0.329 OA
ATOM     16  C   UNL     1      -5.146   8.367  74.382  0.00  0.00    +0.121 C 
ATOM     17  C   UNL     1      -5.053   8.342  76.027  0.00  0.00    +0.030 C 
ATOM     18  C   UNL     1      -5.954   7.344  76.573  0.00  0.00    +0.008 C 
ATOM     19  C   UNL     1      -3.776   7.458  74.271  0.00  0.00    +0.063 C 
ATOM     20  C   UNL     1      -4.274   6.063  73.562  0.00  0.00    +0.136 C 
ATOM     21  C   UNL     1      -2.962   5.851  72.616  0.00  0.00    -0.017 C 
ATOM     22  C   UNL     1      -2.264   7.117  72.201  0.00  0.00    +0.029 C 
ATOM     23  C   UNL     1      -3.486   5.204  71.569  0.00  0.00    -0.006 C 
ATOM     24  C   UNL     1      -3.574   3.735  71.575  0.00  0.00    -0.001 C 
ATOM     25  C   UNL     1      -2.376   3.203  71.573  0.00  0.00    -0.000 C 
ATOM     26  C   UNL     1      -1.939   2.534  70.339  0.00  0.00    -0.005 C 
ATOM     27  C   UNL     1      -2.738   2.192  69.353  0.00  0.00    -0.026 C 
ATOM     28  C   UNL     1      -3.488   3.417  68.640  0.00  0.00    +0.022 C 
ATOM     29  C   UNL     1      -2.080   4.095  68.161  0.00  0.00    +0.005 C 
ATOM     30  C   UNL     1      -3.672   2.657  67.199  0.00  0.00    +0.012 C 
ATOM     31  C   UNL     1      -4.136   4.036  66.444  0.00  0.00    +0.061 C 
ATOM     32  C   UNL     1      -3.101   3.850  65.195  0.00  0.00    +0.008 C 
ATOM     33  C   UNL     1      -5.377   3.338  65.712  0.00  0.00    +0.180 C 
ATOM     34  O   UNL     1      -5.130   2.298  65.098  0.00  0.00    -0.293 OA
ATOM     35  C   UNL     1      -6.062   4.293  64.601  0.00  0.00    +0.206 C 
ATOM     36  C   UNL     1      -7.646   3.789  65.085  0.00  0.00    +0.204 C 
ATOM     37  O   UNL     1      -7.870   3.178  63.723  0.00  0.00    -0.216 OA
ATOM     38  C   UNL     1      -8.417   5.163  64.702  0.00  0.00    -0.015 C 
ATOM     39  C   UNL     1      -7.938   5.816  63.434  0.00  0.00    +0.029 C 
ATOM     40  C   UNL     1      -8.782   5.776  65.725  0.00  0.00    -0.025 C 
ATOM     41  C   UNL     1     -10.171   6.364  66.214  0.00  0.00    +0.079 C 
ATOM     42  C   UNL     1     -10.444   5.062  67.176  0.00  0.00    +0.012 C 
ATOM     43  C   UNL     1      -9.481   7.263  67.377  0.00  0.00    +0.158 C 
ATOM     44  O   UNL     1      -9.127   8.250  66.770  0.00  0.00    -0.296 OA
ATOM     45  O   UNL     1      -7.505   9.016  74.432  0.00  0.00    -0.187 OA
ATOM     46  C   UNL     1      -7.500   7.785  76.305  0.00  0.00    +0.062 C 
ATOM     47  C   UNL     1      -7.191   9.358  76.627  0.00  0.00    +0.006 C 
ATOM     48  C   UNL     1      -8.167   8.648  70.857  0.00  0.00    +0.031 C 
ATOM     49  C   UNL     1     -10.144   7.103  68.641  0.00  0.00    +0.108 C 
ENDROOT
BRANCH   1  50
ATOM     50  C   UNL     1     -11.068   9.296  68.854  0.00  0.00    +0.041 C 
ATOM     51  C   UNL     1     -11.589  10.098  70.166  0.00  0.00    +0.004 C 
BRANCH  50  52
ATOM     52  C   UNL     1     -10.172  10.549  68.406  0.00  0.00    +0.004 C 
BRANCH  52  58
ATOM     53  C   UNL     1     -10.927  13.851  66.708  0.00  0.00    +0.146 C 
ATOM     54  C   UNL     1     -11.368  13.136  65.191  0.00  0.00    +0.179 C 
ATOM     55  O   UNL     1     -12.438  12.238  65.775  0.00  0.00    -0.221 OA
ATOM     56  C   UNL     1     -10.188  12.035  65.058  0.00  0.00    +0.035 C 
ATOM     57  C   UNL     1      -9.567  11.495  66.161  0.00  0.00    +0.003 C 
ATOM     58  C   UNL     1     -10.888  11.144  67.053  0.00  0.00    +0.003 C 
ATOM     59  C   UNL     1     -10.927  12.598  67.701  0.00  0.00    +0.032 C 
BRANCH  53  61
ATOM     60  C   UNL     1      -9.025  14.696  67.044  0.00  0.00    +0.174 C 
ATOM     61  O   UNL     1      -9.427  13.834  66.454  0.00  0.00    -0.351 OA
ENDBRANCH  53  61
ENDBRANCH  52  58
ENDBRANCH  50  52
ENDBRANCH   1  50
BRANCH  20  62
ATOM     62  O   UNL     1      -3.660   5.216  74.671  0.00  0.00    -0.349 OA
ATOM     63  C   UNL     1      -4.600   4.278  75.022  0.00  0.00    +0.174 C 
ENDBRANCH  20  62
BRANCH  35  64
ATOM     64  O   UNL     1      -6.128   5.574  65.377  0.00  0.00    -0.343 OA
ATOM     65  C   UNL     1      -5.298   6.521  65.033  0.00  0.00    +0.175 C 
ENDBRANCH  35  64
TORSDOF 6
ENDMDL
MODEL 7
REMARK VINA RESULT:      -6.2      4.390     10.846
REMARK  Name = 
REMARK  6 active torsions:
REMARK  status: ('A' for Active; 'I' for Inactive)
REMARK    1  A    between atoms: O_2  and  C_3
REMARK    2  A    between atoms: C_5  and  C_6
REMARK    3  A    between atoms: C_6  and  C_7
REMARK    4  A    between atoms: C_7  and  C_9
REMARK    5  A    between atoms: C_20  and  O_21
REMARK    6  A    between atoms: C_37  and  O_38
REMARK                            x       y       z     vdW  Elec       q    Type
REMARK                         _______ _______ _______ _____ _____    ______ ____
ROOT
ATOM      1  C   UNL     1     -10.198  11.154  67.467  0.00  0.00    +0.176 C 
ATOM      2  O   UNL     1     -11.470  10.410  67.874  0.00  0.00    -0.451 OA
ATOM      3  C   UNL     1     -11.386   9.983  69.142  0.00  0.00    +0.335 C 
ATOM      4  O   UNL     1     -12.373  10.093  69.896  0.00  0.00    -0.248 OA
ATOM      5  C   UNL     1     -10.072   9.228  69.694  0.00  0.00    +0.175 C 
ATOM      6  N   UNL     1     -10.041   8.113  68.596  0.00  0.00    -0.265 N 
ATOM      7  C   UNL     1      -8.973   8.025  67.614  0.00  0.00    +0.094 C 
ATOM      8  C   UNL     1      -7.644   8.370  68.010  0.00  0.00    +0.022 C 
ATOM      9  C   UNL     1      -7.675   9.430  69.019  0.00  0.00    +0.004 C 
ATOM     10  C   UNL     1     -10.783   7.058  69.131  0.00  0.00    +0.289 C 
ATOM     11  O   UNL     1     -11.167   6.248  68.234  0.00  0.00    -0.267 OA
ATOM     12  C   UNL     1     -10.605   6.692  70.545  0.00  0.00    +0.279 C 
ATOM     13  O   UNL     1     -10.755   5.413  70.630  0.00  0.00    -0.281 OA
ATOM     14  C   UNL     1      -9.661   7.260  71.488  0.00  0.00    +0.279 C 
ATOM     15  O   UNL     1      -8.485   6.587  71.120  0.00  0.00    -0.329 OA
ATOM     16  C   UNL     1      -7.383   7.132  72.009  0.00  0.00    +0.121 C 
ATOM     17  C   UNL     1      -7.839   6.220  73.304  0.00  0.00    +0.030 C 
ATOM     18  C   UNL     1      -9.021   5.441  72.987  0.00  0.00    +0.008 C 
ATOM     19  C   UNL     1      -6.223   6.029  71.615  0.00  0.00    +0.063 C 
ATOM     20  C   UNL     1      -6.687   5.464  70.144  0.00  0.00    +0.136 C 
ATOM     21  C   UNL     1      -5.193   5.367  69.498  0.00  0.00    -0.017 C 
ATOM     22  C   UNL     1      -4.197   6.354  70.042  0.00  0.00    +0.029 C 
ATOM     23  C   UNL     1      -5.446   5.576  68.200  0.00  0.00    -0.006 C 
ATOM     24  C   UNL     1      -5.773   4.446  67.318  0.00  0.00    -0.001 C 
ATOM     25  C   UNL     1      -4.747   3.638  67.204  0.00  0.00    -0.000 C 
ATOM     26  C   UNL     1      -4.049   3.616  65.911  0.00  0.00    -0.005 C 
ATOM     27  C   UNL     1      -4.527   4.124  64.797  0.00  0.00    -0.026 C 
ATOM     28  C   UNL     1      -4.787   5.706  64.835  0.00  0.00    +0.022 C 
ATOM     29  C   UNL     1      -3.208   6.033  65.101  0.00  0.00    +0.005 C 
ATOM     30  C   UNL     1      -4.614   5.922  63.220  0.00  0.00    +0.012 C 
ATOM     31  C   UNL     1      -4.569   7.555  63.366  0.00  0.00    +0.061 C 
ATOM     32  C   UNL     1      -3.229   7.726  62.450  0.00  0.00    +0.008 C 
ATOM     33  C   UNL     1      -5.600   7.793  62.165  0.00  0.00    +0.180 C 
ATOM     34  O   UNL     1      -5.343   7.215  61.107  0.00  0.00    -0.293 OA
ATOM     35  C   UNL     1      -5.715   9.350  61.742  0.00  0.00    +0.206 C 
ATOM     36  C   UNL     1      -7.431   9.214  61.554  0.00  0.00    +0.204 C 
ATOM     37  O   UNL     1      -7.296   9.520  60.082  0.00  0.00    -0.216 OA
ATOM     38  C   UNL     1      -7.794  10.747  61.937  0.00  0.00    -0.015 C 
ATOM     39  C   UNL     1      -6.825  11.769  61.410  0.00  0.00    +0.029 C 
ATOM     40  C   UNL     1      -8.366  10.812  63.044  0.00  0.00    -0.025 C 
ATOM     41  C   UNL     1      -9.720  11.470  63.542  0.00  0.00    +0.079 C 
ATOM     42  C   UNL     1     -10.506  10.030  63.478  0.00  0.00    +0.012 C 
ATOM     43  C   UNL     1      -9.309  11.344  65.107  0.00  0.00    +0.158 C 
ATOM     44  O   UNL     1      -8.617  12.324  65.277  0.00  0.00    -0.296 OA
ATOM     45  O   UNL     1      -9.485   8.384  72.032  0.00  0.00    -0.187 OA
ATOM     46  C   UNL     1     -10.298   6.431  72.775  0.00  0.00    +0.062 C 
ATOM     47  C   UNL     1      -9.854   7.400  74.015  0.00  0.00    +0.006 C 
ATOM     48  C   UNL     1      -8.994  10.183  68.890  0.00  0.00    +0.031 C 
ATOM     49  C   UNL     1     -10.365  10.771  65.894  0.00  0.00    +0.108 C 
ENDROOT
BRANCH   1  50
ATOM     50  C   UNL     1     -10.930  12.686  67.206  0.00  0.00    +0.041 C 
ATOM     51  C   UNL     1     -11.605  12.857  68.673  0.00  0.00    +0.004 C 
BRANCH  50  52
ATOM     52  C   UNL     1      -9.695  13.617  67.633  0.00  0.00    +0.004 C 
BRANCH  52  58
ATOM     53  C   UNL     1      -8.463  17.196  67.817  0.00  0.00    +0.146 C 
ATOM     54  C   UNL     1      -9.946  17.890  67.248  0.00  0.00    +0.179 C 
ATOM     55  O   UNL     1     -10.809  17.251  68.316  0.00  0.00    -0.221 OA
ATOM     56  C   UNL     1     -10.277  16.864  66.038  0.00  0.00    +0.035 C 
ATOM     57  C   UNL     1      -9.838  15.559  66.049  0.00  0.00    +0.003 C 
ATOM     58  C   UNL     1     -10.262  15.158  67.573  0.00  0.00    +0.003 C 
ATOM     59  C   UNL     1      -8.889  15.696  68.174  0.00  0.00    +0.032 C 
BRANCH  53  61
ATOM     60  C   UNL     1      -6.798  16.917  66.555  0.00  0.00    +0.174 C 
ATOM     61  O   UNL     1      -7.910  16.865  66.440  0.00  0.00    -0.351 OA
ENDBRANCH  53  61
ENDBRANCH  52  58
ENDBRANCH  50  52
ENDBRANCH   1  50
BRANCH  20  62
ATOM     62  O   UNL     1      -6.620   4.017  70.618  0.00  0.00    -0.349 OA
ATOM     63  C   UNL     1      -7.764   3.399  70.176  0.00  0.00    +0.174 C 
ENDBRANCH  20  62
BRANCH  35  64
ATOM     64  O   UNL     1      -5.816   9.973  63.102  0.00  0.00    -0.343 OA
ATOM     65  C   UNL     1      -4.782  10.644  63.527  0.00  0.00    +0.175 C 
ENDBRANCH  35  64
TORSDOF 6
ENDMDL
MODEL 8
REMARK VINA RESULT:      -6.2      4.946     11.188
REMARK  Name = 
REMARK  6 active torsions:
REMARK  status: ('A' for Active; 'I' for Inactive)
REMARK    1  A    between atoms: O_2  and  C_3
REMARK    2  A    between atoms: C_5  and  C_6
REMARK    3  A    between atoms: C_6  and  C_7
REMARK    4  A    between atoms: C_7  and  C_9
REMARK    5  A    between atoms: C_20  and  O_21
REMARK    6  A    between atoms: C_37  and  O_38
REMARK                            x       y       z     vdW  Elec       q    Type
REMARK                         _______ _______ _______ _____ _____    ______ ____
ROOT
ATOM      1  C   UNL     1      -9.171  10.639  65.420  0.00  0.00    +0.176 C 
ATOM      2  O   UNL     1     -10.607  10.245  65.767  0.00  0.00    -0.451 OA
ATOM      3  C   UNL     1     -10.753  10.095  67.091  0.00  0.00    +0.335 C 
ATOM      4  O   UNL     1     -11.771  10.543  67.654  0.00  0.00    -0.248 OA
ATOM      5  C   UNL     1      -9.693   9.251  67.968  0.00  0.00    +0.175 C 
ATOM      6  N   UNL     1      -9.776   7.938  67.119  0.00  0.00    -0.265 N 
ATOM      7  C   UNL     1      -8.650   7.446  66.343  0.00  0.00    +0.094 C 
ATOM      8  C   UNL     1      -7.330   7.622  66.860  0.00  0.00    +0.022 C 
ATOM      9  C   UNL     1      -7.248   8.863  67.632  0.00  0.00    +0.004 C 
ATOM     10  C   UNL     1     -10.776   7.177  67.729  0.00  0.00    +0.289 C 
ATOM     11  O   UNL     1     -11.221   6.275  66.955  0.00  0.00    -0.267 OA
ATOM     12  C   UNL     1     -10.833   7.100  69.196  0.00  0.00    +0.279 C 
ATOM     13  O   UNL     1     -11.255   5.919  69.501  0.00  0.00    -0.281 OA
ATOM     14  C   UNL     1      -9.899   7.677  70.145  0.00  0.00    +0.279 C 
ATOM     15  O   UNL     1      -8.857   6.738  70.091  0.00  0.00    -0.329 OA
ATOM     16  C   UNL     1      -7.769   7.253  71.015  0.00  0.00    +0.121 C 
ATOM     17  C   UNL     1      -8.543   6.741  72.377  0.00  0.00    +0.030 C 
ATOM     18  C   UNL     1      -9.820   6.140  72.041  0.00  0.00    +0.008 C 
ATOM     19  C   UNL     1      -6.830   5.899  71.017  0.00  0.00    +0.063 C 
ATOM     20  C   UNL     1      -7.238   5.123  69.628  0.00  0.00    +0.136 C 
ATOM     21  C   UNL     1      -5.736   4.618  69.243  0.00  0.00    -0.017 C 
ATOM     22  C   UNL     1      -4.621   5.501  69.731  0.00  0.00    +0.029 C 
ATOM     23  C   UNL     1      -5.797   4.584  67.906  0.00  0.00    -0.006 C 
ATOM     24  C   UNL     1      -6.255   3.368  67.217  0.00  0.00    -0.001 C 
ATOM     25  C   UNL     1      -5.414   2.382  67.414  0.00  0.00    -0.000 C 
ATOM     26  C   UNL     1      -4.600   1.954  66.268  0.00  0.00    -0.005 C 
ATOM     27  C   UNL     1      -4.837   2.286  65.019  0.00  0.00    -0.026 C 
ATOM     28  C   UNL     1      -4.764   3.859  64.715  0.00  0.00    +0.022 C 
ATOM     29  C   UNL     1      -3.189   3.943  65.147  0.00  0.00    +0.005 C 
ATOM     30  C   UNL     1      -4.374   3.686  63.132  0.00  0.00    +0.012 C 
ATOM     31  C   UNL     1      -4.006   5.275  62.970  0.00  0.00    +0.061 C 
ATOM     32  C   UNL     1      -2.568   4.997  62.249  0.00  0.00    +0.008 C 
ATOM     33  C   UNL     1      -4.828   5.431  61.605  0.00  0.00    +0.180 C 
ATOM     34  O   UNL     1      -4.583   4.600  60.727  0.00  0.00    -0.293 OA
ATOM     35  C   UNL     1      -4.569   6.853  60.881  0.00  0.00    +0.206 C 
ATOM     36  C   UNL     1      -6.244   6.994  60.468  0.00  0.00    +0.204 C 
ATOM     37  O   UNL     1      -5.889   6.945  59.001  0.00  0.00    -0.216 OA
ATOM     38  C   UNL     1      -6.318   8.614  60.492  0.00  0.00    -0.015 C 
ATOM     39  C   UNL     1      -5.106   9.304  59.931  0.00  0.00    +0.029 C 
ATOM     40  C   UNL     1      -6.981   9.019  61.469  0.00  0.00    -0.025 C 
ATOM     41  C   UNL     1      -8.213  10.005  61.623  0.00  0.00    +0.079 C 
ATOM     42  C   UNL     1      -9.271   8.752  61.719  0.00  0.00    +0.012 C 
ATOM     43  C   UNL     1      -8.010  10.148  63.227  0.00  0.00    +0.158 C 
ATOM     44  O   UNL     1      -7.152  10.999  63.309  0.00  0.00    -0.296 OA
ATOM     45  O   UNL     1      -9.554   8.841  70.485  0.00  0.00    -0.187 OA
ATOM     46  C   UNL     1     -10.832   7.276  71.456  0.00  0.00    +0.062 C 
ATOM     47  C   UNL     1     -10.333   8.394  72.540  0.00  0.00    +0.006 C 
ATOM     48  C   UNL     1      -8.358   9.797  67.166  0.00  0.00    +0.031 C 
ATOM     49  C   UNL     1      -9.243   9.961  63.943  0.00  0.00    +0.108 C 
ENDROOT
BRANCH   1  50
ATOM     50  C   UNL     1      -9.534  12.185  64.766  0.00  0.00    +0.041 C 
ATOM     51  C   UNL     1     -11.136  11.979  64.596  0.00  0.00    +0.004 C 
BRANCH  50  52
ATOM     52  C   UNL     1      -9.752  12.983  66.140  0.00  0.00    +0.004 C 
BRANCH  52  58
ATOM     53  C   UNL     1     -10.789  16.367  67.493  0.00  0.00    +0.146 C 
ATOM     54  C   UNL     1      -9.864  17.273  66.341  0.00  0.00    +0.179 C 
ATOM     55  O   UNL     1     -10.501  16.632  65.126  0.00  0.00    -0.221 OA
ATOM     56  C   UNL     1      -8.490  16.415  66.362  0.00  0.00    +0.035 C 
ATOM     57  C   UNL     1      -8.473  15.075  66.677  0.00  0.00    +0.003 C 
ATOM     58  C   UNL     1      -9.711  14.575  65.739  0.00  0.00    +0.003 C 
ATOM     59  C   UNL     1     -10.790  14.896  66.865  0.00  0.00    +0.032 C 
BRANCH  53  61
ATOM     60  C   UNL     1     -10.114  16.006  69.457  0.00  0.00    +0.174 C 
ATOM     61  O   UNL     1      -9.636  16.114  68.451  0.00  0.00    -0.351 OA
ENDBRANCH  53  61
ENDBRANCH  52  58
ENDBRANCH  50  52
ENDBRANCH   1  50
BRANCH  20  62
ATOM     62  O   UNL     1      -7.526   3.825  70.374  0.00  0.00    -0.349 OA
ATOM     63  C   UNL     1      -8.723   3.349  69.897  0.00  0.00    +0.174 C 
ENDBRANCH  20  62
BRANCH  35  64
ATOM     64  O   UNL     1      -4.685   7.764  62.066  0.00  0.00    -0.343 OA
ATOM     65  C   UNL     1      -3.582   8.295  62.519  0.00  0.00    +0.175 C 
ENDBRANCH  35  64
TORSDOF 6
ENDMDL
MODEL 9
REMARK VINA RESULT:      -6.0      5.510     12.281
REMARK  Name = 
REMARK  6 active torsions:
REMARK  status: ('A' for Active; 'I' for Inactive)
REMARK    1  A    between atoms: O_2  and  C_3
REMARK    2  A    between atoms: C_5  and  C_6
REMARK    3  A    between atoms: C_6  and  C_7
REMARK    4  A    between atoms: C_7  and  C_9
REMARK    5  A    between atoms: C_20  and  O_21
REMARK    6  A    between atoms: C_37  and  O_38
REMARK                            x       y       z     vdW  Elec       q    Type
REMARK                         _______ _______ _______ _____ _____    ______ ____
ROOT
ATOM      1  C   UNL     1      -7.963   8.633  65.831  0.00  0.00    +0.176 C 
ATOM      2  O   UNL     1      -6.519   8.794  65.358  0.00  0.00    -0.451 OA
ATOM      3  C   UNL     1      -6.282   8.031  64.282  0.00  0.00    +0.335 C 
ATOM      4  O   UNL     1      -5.620   8.493  63.332  0.00  0.00    -0.248 OA
ATOM      5  C   UNL     1      -6.741   6.485  64.224  0.00  0.00    +0.175 C 
ATOM      6  N   UNL     1      -6.023   6.045  65.543  0.00  0.00    -0.265 N 
ATOM      7  C   UNL     1      -6.762   5.619  66.720  0.00  0.00    +0.094 C 
ATOM      8  C   UNL     1      -7.974   4.883  66.543  0.00  0.00    +0.022 C 
ATOM      9  C   UNL     1      -8.656   5.315  65.322  0.00  0.00    +0.004 C 
ATOM     10  C   UNL     1      -4.760   5.609  65.138  0.00  0.00    +0.289 C 
ATOM     11  O   UNL     1      -3.938   5.580  66.105  0.00  0.00    -0.267 OA
ATOM     12  C   UNL     1      -4.633   4.781  63.930  0.00  0.00    +0.279 C 
ATOM     13  O   UNL     1      -3.660   3.956  64.131  0.00  0.00    -0.281 OA
ATOM     14  C   UNL     1      -5.705   4.268  63.098  0.00  0.00    +0.279 C 
ATOM     15  O   UNL     1      -6.125   3.167  63.862  0.00  0.00    -0.329 OA
ATOM     16  C   UNL     1      -7.299   2.554  63.121  0.00  0.00    +0.121 C 
ATOM     17  C   UNL     1      -6.336   1.789  62.023  0.00  0.00    +0.030 C 
ATOM     18  C   UNL     1      -4.941   2.104  62.264  0.00  0.00    +0.008 C 
ATOM     19  C   UNL     1      -7.417   1.172  64.010  0.00  0.00    +0.063 C 
ATOM     20  C   UNL     1      -6.707   1.552  65.442  0.00  0.00    +0.136 C 
ATOM     21  C   UNL     1      -7.752   0.739  66.394  0.00  0.00    -0.017 C 
ATOM     22  C   UNL     1      -9.149   0.615  65.849  0.00  0.00    +0.029 C 
ATOM     23  C   UNL     1      -7.718   1.468  67.516  0.00  0.00    -0.006 C 
ATOM     24  C   UNL     1      -6.722   1.175  68.559  0.00  0.00    -0.001 C 
ATOM     25  C   UNL     1      -6.938  -0.007  69.083  0.00  0.00    -0.000 C 
ATOM     26  C   UNL     1      -7.452  -0.048  70.460  0.00  0.00    -0.005 C 
ATOM     27  C   UNL     1      -7.449   0.972  71.287  0.00  0.00    -0.026 C 
ATOM     28  C   UNL     1      -8.321   2.230  70.807  0.00  0.00    +0.022 C 
ATOM     29  C   UNL     1      -9.707   1.362  70.811  0.00  0.00    +0.005 C 
ATOM     30  C   UNL     1      -8.610   2.795  72.319  0.00  0.00    +0.012 C 
ATOM     31  C   UNL     1      -9.740   3.857  71.789  0.00  0.00    +0.061 C 
ATOM     32  C   UNL     1     -10.854   3.418  72.898  0.00  0.00    +0.008 C 
ATOM     33  C   UNL     1      -9.148   5.072  72.648  0.00  0.00    +0.180 C 
ATOM     34  O   UNL     1      -8.959   4.847  73.845  0.00  0.00    -0.293 OA
ATOM     35  C   UNL     1     -10.115   6.368  72.641  0.00  0.00    +0.206 C 
ATOM     36  C   UNL     1      -8.756   7.430  72.488  0.00  0.00    +0.204 C 
ATOM     37  O   UNL     1      -9.075   8.036  73.834  0.00  0.00    -0.216 OA
ATOM     38  C   UNL     1      -9.516   8.608  71.672  0.00  0.00    -0.015 C 
ATOM     39  C   UNL     1     -10.926   8.873  72.125  0.00  0.00    +0.029 C 
ATOM     40  C   UNL     1      -9.127   8.659  70.487  0.00  0.00    -0.025 C 
ATOM     41  C   UNL     1      -8.565   9.822  69.568  0.00  0.00    +0.079 C 
ATOM     42  C   UNL     1      -7.014   9.339  69.815  0.00  0.00    +0.012 C 
ATOM     43  C   UNL     1      -8.770   8.963  68.205  0.00  0.00    +0.158 C 
ATOM     44  O   UNL     1      -9.940   9.150  67.951  0.00  0.00    -0.296 OA
ATOM     45  O   UNL     1      -6.586   4.763  62.345  0.00  0.00    -0.187 OA
ATOM     46  C   UNL     1      -4.664   3.679  61.949  0.00  0.00    +0.062 C 
ATOM     47  C   UNL     1      -5.634   3.669  60.633  0.00  0.00    +0.006 C 
ATOM     48  C   UNL     1      -8.189   6.724  64.980  0.00  0.00    +0.031 C 
ATOM     49  C   UNL     1      -7.596   8.982  67.377  0.00  0.00    +0.108 C 
ENDROOT
BRANCH   1  50
ATOM     50  C   UNL     1      -8.456  10.253  65.546  0.00  0.00    +0.041 C 
ATOM     51  C   UNL     1      -7.649  10.484  64.156  0.00  0.00    +0.004 C 
BRANCH  50  52
ATOM     52  C   UNL     1      -9.813   9.954  64.744  0.00  0.00    +0.004 C 
BRANCH  52  58
ATOM     53  C   UNL     1     -10.361  13.322  66.393  0.00  0.00    +0.146 C 
ATOM     54  C   UNL     1     -12.085  13.164  66.476  0.00  0.00    +0.179 C 
ATOM     55  O   UNL     1     -12.061  11.857  67.242  0.00  0.00    -0.221 OA
ATOM     56  C   UNL     1     -12.373  12.562  65.000  0.00  0.00    +0.035 C 
ATOM     57  C   UNL     1     -11.433  11.824  64.318  0.00  0.00    +0.003 C 
ATOM     58  C   UNL     1     -10.981  10.813  65.517  0.00  0.00    +0.003 C 
ATOM     59  C   UNL     1      -9.885  11.831  66.062  0.00  0.00    +0.032 C 
BRANCH  53  61
ATOM     60  C   UNL     1      -9.831  14.814  65.000  0.00  0.00    +0.174 C 
ATOM     61  O   UNL     1     -10.321  13.809  64.953  0.00  0.00    -0.351 OA
ENDBRANCH  53  61
ENDBRANCH  52  58
ENDBRANCH  50  52
ENDBRANCH   1  50
BRANCH  20  62
ATOM     62  O   UNL     1      -5.779   0.345  65.363  0.00  0.00    -0.349 OA
ATOM     63  C   UNL     1      -4.521   0.789  65.692  0.00  0.00    +0.174 C 
ENDBRANCH  20  62
BRANCH  35  64
ATOM     64  O   UNL     1     -10.447   6.426  71.180  0.00  0.00    -0.343 OA
ATOM     65  C   UNL     1     -11.684   6.187  70.842  0.00  0.00    +0.175 C 
ENDBRANCH  35  64
TORSDOF 6
ENDMDL
