MODEL 1
REMARK VINA RESULT:      -8.5      0.000      0.000
REMARK  Name = 
REMARK  0 active torsions:
REMARK  status: ('A' for Active; 'I' for Inactive)
REMARK                            x       y       z     vdW  Elec       q    Type
REMARK                         _______ _______ _______ _____ _____    ______ ____
ROOT
ATOM      1  O   UNL     1      -6.788  15.829  68.329  0.00  0.00    -0.245 OA
ATOM      2  C   UNL     1      -7.986  16.050  68.646  0.00  0.00    +0.342 C 
ATOM      3  C   UNL     1      -8.763  17.273  68.519  0.00  0.00    +0.076 A 
ATOM      4  C   UNL     1     -10.121  16.979  68.511  0.00  0.00    +0.028 A 
ATOM      5  C   UNL     1     -10.954  17.846  67.814  0.00  0.00    -0.000 A 
ATOM      6  C   UNL     1     -10.479  19.084  67.397  0.00  0.00    -0.000 A 
ATOM      7  C   UNL     1      -9.352  19.545  68.065  0.00  0.00    +0.000 A 
ATOM      8  C   UNL     1     -10.218  15.508  68.702  0.00  0.00    +0.198 C 
ATOM      9  C   UNL     1     -11.063  15.137  69.854  0.00  0.00    +0.056 A 
ATOM     10  C   UNL     1     -12.179  14.322  69.698  0.00  0.00    +0.148 A 
ATOM     11  C   UNL     1     -13.258  14.409  70.569  0.00  0.00    +0.079 A 
ATOM     12  C   UNL     1     -13.213  15.291  71.631  0.00  0.00    +0.199 A 
ATOM     13  C   UNL     1     -11.970  15.742  72.017  0.00  0.00    +0.042 A 
ATOM     14  O   UNL     1     -14.391  15.888  72.071  0.00  0.00    -0.286 OA
ATOM     15  O   UNL     1     -12.176  13.414  68.640  0.00  0.00    -0.454 OA
ATOM     16  C   UNL     1     -11.539  13.762  67.445  0.00  0.00    +0.148 A 
ATOM     17  C   UNL     1     -11.930  13.223  66.225  0.00  0.00    +0.079 A 
ATOM     18  C   UNL     1     -11.641  13.864  65.028  0.00  0.00    +0.199 A 
ATOM     19  O   UNL     1     -12.587  13.897  63.999  0.00  0.00    -0.286 OA
ATOM     20  C   UNL     1     -10.603  14.786  65.070  0.00  0.00    +0.042 A 
ATOM     21  C   UNL     1     -10.056  15.158  66.284  0.00  0.00    +0.006 A 
ATOM     22  C   UNL     1     -10.932  15.735  71.093  0.00  0.00    +0.006 A 
ATOM     23  C   UNL     1     -10.720  14.871  67.470  0.00  0.00    +0.056 A 
ATOM     24  C   UNL     1      -8.375  18.587  68.313  0.00  0.00    +0.006 A 
ATOM     25  O   UNL     1      -8.906  15.036  68.919  0.00  0.00    -0.440 OA
ENDROOT
TORSDOF 0
ENDMDL
MODEL 2
REMARK VINA RESULT:      -8.1      1.907      5.296
REMARK  Name = 
REMARK  0 active torsions:
REMARK  status: ('A' for Active; 'I' for Inactive)
REMARK                            x       y       z     vdW  Elec       q    Type
REMARK                         _______ _______ _______ _____ _____    ______ ____
ROOT
ATOM      1  O   UNL     1      -8.389  11.980  68.400  0.00  0.00    -0.245 OA
ATOM      2  C   UNL     1      -8.992  12.976  67.922  0.00  0.00    +0.342 C 
ATOM      3  C   UNL     1      -9.958  13.036  66.836  0.00  0.00    +0.076 A 
ATOM      4  C   UNL     1     -10.730  14.186  66.944  0.00  0.00    +0.028 A 
ATOM      5  C   UNL     1     -12.023  14.133  66.438  0.00  0.00    -0.000 A 
ATOM      6  C   UNL     1     -12.407  13.078  65.618  0.00  0.00    -0.000 A 
ATOM      7  C   UNL     1     -11.366  12.379  65.019  0.00  0.00    +0.000 A 
ATOM      8  C   UNL     1     -10.193  14.925  68.118  0.00  0.00    +0.198 C 
ATOM      9  C   UNL     1      -9.795  16.308  67.787  0.00  0.00    +0.056 A 
ATOM     10  C   UNL     1     -10.354  17.396  68.447  0.00  0.00    +0.148 A 
ATOM     11  C   UNL     1     -10.447  18.637  67.828  0.00  0.00    +0.079 A 
ATOM     12  C   UNL     1      -9.944  18.809  66.554  0.00  0.00    +0.199 A 
ATOM     13  C   UNL     1      -9.027  17.880  66.113  0.00  0.00    +0.042 A 
ATOM     14  O   UNL     1     -10.566  19.708  65.692  0.00  0.00    -0.286 OA
ATOM     15  O   UNL     1     -10.815  17.200  69.746  0.00  0.00    -0.454 OA
ATOM     16  C   UNL     1     -11.368  15.964  70.094  0.00  0.00    +0.148 A 
ATOM     17  C   UNL     1     -12.310  15.845  71.111  0.00  0.00    +0.079 A 
ATOM     18  C   UNL     1     -13.177  14.762  71.167  0.00  0.00    +0.199 A 
ATOM     19  O   UNL     1     -14.514  14.945  71.532  0.00  0.00    -0.286 OA
ATOM     20  C   UNL     1     -12.781  13.632  70.462  0.00  0.00    +0.042 A 
ATOM     21  C   UNL     1     -11.692  13.693  69.611  0.00  0.00    +0.006 A 
ATOM     22  C   UNL     1      -9.023  16.613  66.682  0.00  0.00    +0.006 A 
ATOM     23  C   UNL     1     -11.182  14.922  69.212  0.00  0.00    +0.056 A 
ATOM     24  C   UNL     1     -10.272  12.126  65.839  0.00  0.00    +0.006 A 
ATOM     25  O   UNL     1      -9.061  14.212  68.568  0.00  0.00    -0.440 OA
ENDROOT
TORSDOF 0
ENDMDL
MODEL 3
REMARK VINA RESULT:      -7.8      3.744      6.924
REMARK  Name = 
REMARK  0 active torsions:
REMARK  status: ('A' for Active; 'I' for Inactive)
REMARK                            x       y       z     vdW  Elec       q    Type
REMARK                         _______ _______ _______ _____ _____    ______ ____
ROOT
ATOM      1  O   UNL     1     -13.640  14.026  65.445  0.00  0.00    -0.245 OA
ATOM      2  C   UNL     1     -12.480  13.563  65.286  0.00  0.00    +0.342 C 
ATOM      3  C   UNL     1     -11.193  14.216  65.472  0.00  0.00    +0.076 A 
ATOM      4  C   UNL     1     -10.200  13.266  65.674  0.00  0.00    +0.028 A 
ATOM      5  C   UNL     1      -9.108  13.643  66.446  0.00  0.00    -0.000 A 
ATOM      6  C   UNL     1      -8.900  14.983  66.750  0.00  0.00    -0.000 A 
ATOM      7  C   UNL     1      -9.547  15.890  65.920  0.00  0.00    +0.000 A 
ATOM      8  C   UNL     1     -10.872  11.945  65.550  0.00  0.00    +0.198 C 
ATOM      9  C   UNL     1     -10.241  11.076  64.536  0.00  0.00    +0.056 A 
ATOM     10  C   UNL     1      -9.740   9.823  64.870  0.00  0.00    +0.148 A 
ATOM     11  C   UNL     1      -8.698   9.253  64.150  0.00  0.00    +0.079 A 
ATOM     12  C   UNL     1      -8.171   9.919  63.061  0.00  0.00    +0.199 A 
ATOM     13  C   UNL     1      -8.948  10.905  62.495  0.00  0.00    +0.042 A 
ATOM     14  O   UNL     1      -6.818   9.774  62.763  0.00  0.00    -0.286 OA
ATOM     15  O   UNL     1     -10.321   9.160  65.949  0.00  0.00    -0.454 OA
ATOM     16  C   UNL     1     -10.792   9.905  67.034  0.00  0.00    +0.148 A 
ATOM     17  C   UNL     1     -10.862   9.367  68.315  0.00  0.00    +0.079 A 
ATOM     18  C   UNL     1     -10.884  10.182  69.438  0.00  0.00    +0.199 A 
ATOM     19  O   UNL     1     -10.166   9.826  70.584  0.00  0.00    -0.286 OA
ATOM     20  C   UNL     1     -11.275  11.498  69.224  0.00  0.00    +0.042 A 
ATOM     21  C   UNL     1     -11.425  11.975  67.935  0.00  0.00    +0.006 A 
ATOM     22  C   UNL     1      -9.919  11.528  63.271  0.00  0.00    +0.006 A 
ATOM     23  C   UNL     1     -10.900  11.268  66.860  0.00  0.00    +0.056 A 
ATOM     24  C   UNL     1     -10.852  15.554  65.577  0.00  0.00    +0.006 A 
ATOM     25  O   UNL     1     -12.208  12.198  65.175  0.00  0.00    -0.440 OA
ENDROOT
TORSDOF 0
ENDMDL
MODEL 4
REMARK VINA RESULT:      -7.7      1.946      4.665
REMARK  Name = 
REMARK  0 active torsions:
REMARK  status: ('A' for Active; 'I' for Inactive)
REMARK                            x       y       z     vdW  Elec       q    Type
REMARK                         _______ _______ _______ _____ _____    ______ ____
ROOT
ATOM      1  O   UNL     1     -12.489  12.797  65.132  0.00  0.00    -0.245 OA
ATOM      2  C   UNL     1     -12.054  13.015  66.293  0.00  0.00    +0.342 C 
ATOM      3  C   UNL     1     -11.028  12.306  67.042  0.00  0.00    +0.076 A 
ATOM      4  C   UNL     1     -10.510  13.125  68.037  0.00  0.00    +0.028 A 
ATOM      5  C   UNL     1      -9.193  12.903  68.419  0.00  0.00    -0.000 A 
ATOM      6  C   UNL     1      -8.539  11.741  68.025  0.00  0.00    -0.000 A 
ATOM      7  C   UNL     1      -9.367  10.694  67.638  0.00  0.00    +0.000 A 
ATOM      8  C   UNL     1     -11.281  14.394  67.959  0.00  0.00    +0.198 C 
ATOM      9  C   UNL     1     -11.912  14.757  69.244  0.00  0.00    +0.056 A 
ATOM     10  C   UNL     1     -11.637  15.969  69.866  0.00  0.00    +0.148 A 
ATOM     11  C   UNL     1     -11.736  16.105  71.245  0.00  0.00    +0.079 A 
ATOM     12  C   UNL     1     -12.150  15.035  72.012  0.00  0.00    +0.199 A 
ATOM     13  C   UNL     1     -12.826  14.024  71.363  0.00  0.00    +0.042 A 
ATOM     14  O   UNL     1     -11.645  14.884  73.301  0.00  0.00    -0.286 OA
ATOM     15  O   UNL     1     -11.261  17.041  69.059  0.00  0.00    -0.454 OA
ATOM     16  C   UNL     1     -10.508  16.796  67.907  0.00  0.00    +0.148 A 
ATOM     17  C   UNL     1      -9.653  17.755  67.375  0.00  0.00    +0.079 A 
ATOM     18  C   UNL     1      -8.599  17.400  66.544  0.00  0.00    +0.199 A 
ATOM     19  O   UNL     1      -7.361  18.038  66.662  0.00  0.00    -0.286 OA
ATOM     20  C   UNL     1      -8.703  16.157  65.932  0.00  0.00    +0.042 A 
ATOM     21  C   UNL     1      -9.704  15.280  66.309  0.00  0.00    +0.006 A 
ATOM     22  C   UNL     1     -12.630  13.850  69.999  0.00  0.00    +0.006 A 
ATOM     23  C   UNL     1     -10.409  15.487  67.488  0.00  0.00    +0.056 A 
ATOM     24  C   UNL     1     -10.457  11.057  66.855  0.00  0.00    +0.006 A 
ATOM     25  O   UNL     1     -12.285  14.204  66.986  0.00  0.00    -0.440 OA
ENDROOT
TORSDOF 0
ENDMDL
MODEL 5
REMARK VINA RESULT:      -7.4      2.845      5.614
REMARK  Name = 
REMARK  0 active torsions:
REMARK  status: ('A' for Active; 'I' for Inactive)
REMARK                            x       y       z     vdW  Elec       q    Type
REMARK                         _______ _______ _______ _____ _____    ______ ____
ROOT
ATOM      1  O   UNL     1     -12.977  14.073  65.638  0.00  0.00    -0.245 OA
ATOM      2  C   UNL     1     -12.078  13.555  66.350  0.00  0.00    +0.342 C 
ATOM      3  C   UNL     1     -10.714  14.004  66.584  0.00  0.00    +0.076 A 
ATOM      4  C   UNL     1     -10.229  13.465  67.770  0.00  0.00    +0.028 A 
ATOM      5  C   UNL     1      -9.274  14.202  68.458  0.00  0.00    -0.000 A 
ATOM      6  C   UNL     1      -8.641  15.274  67.839  0.00  0.00    -0.000 A 
ATOM      7  C   UNL     1      -8.694  15.275  66.450  0.00  0.00    +0.000 A 
ATOM      8  C   UNL     1     -11.310  12.584  68.285  0.00  0.00    +0.198 C 
ATOM      9  C   UNL     1     -10.854  11.200  68.522  0.00  0.00    +0.056 A 
ATOM     10  C   UNL     1     -10.956  10.611  69.777  0.00  0.00    +0.148 A 
ATOM     11  C   UNL     1     -10.081   9.606  70.170  0.00  0.00    +0.079 A 
ATOM     12  C   UNL     1      -9.115   9.155  69.293  0.00  0.00    +0.199 A 
ATOM     13  C   UNL     1      -9.312   9.420  67.956  0.00  0.00    +0.042 A 
ATOM     14  O   UNL     1      -7.891   8.718  69.793  0.00  0.00    -0.286 OA
ATOM     15  O   UNL     1     -11.967  11.061  70.624  0.00  0.00    -0.454 OA
ATOM     16  C   UNL     1     -12.343  12.407  70.581  0.00  0.00    +0.148 A 
ATOM     17  C   UNL     1     -12.891  13.048  71.687  0.00  0.00    +0.079 A 
ATOM     18  C   UNL     1     -12.846  14.429  71.816  0.00  0.00    +0.199 A 
ATOM     19  O   UNL     1     -12.588  15.015  73.059  0.00  0.00    -0.286 OA
ATOM     20  C   UNL     1     -12.647  15.141  70.639  0.00  0.00    +0.042 A 
ATOM     21  C   UNL     1     -12.317  14.473  69.474  0.00  0.00    +0.006 A 
ATOM     22  C   UNL     1     -10.115  10.494  67.592  0.00  0.00    +0.006 A 
ATOM     23  C   UNL     1     -11.881  13.155  69.520  0.00  0.00    +0.056 A 
ATOM     24  C   UNL     1      -9.919  14.911  65.902  0.00  0.00    +0.006 A 
ATOM     25  O   UNL     1     -12.331  12.575  67.312  0.00  0.00    -0.440 OA
ENDROOT
TORSDOF 0
ENDMDL
MODEL 6
REMARK VINA RESULT:      -7.3      4.452      7.477
REMARK  Name = 
REMARK  0 active torsions:
REMARK  status: ('A' for Active; 'I' for Inactive)
REMARK                            x       y       z     vdW  Elec       q    Type
REMARK                         _______ _______ _______ _____ _____    ______ ____
ROOT
ATOM      1  O   UNL     1      -6.470  10.119  68.149  0.00  0.00    -0.245 OA
ATOM      2  C   UNL     1      -7.558  10.109  67.516  0.00  0.00    +0.342 C 
ATOM      3  C   UNL     1      -8.278   8.985  66.937  0.00  0.00    +0.076 A 
ATOM      4  C   UNL     1      -9.618   9.309  66.774  0.00  0.00    +0.028 A 
ATOM      5  C   UNL     1     -10.535   8.267  66.836  0.00  0.00    -0.000 A 
ATOM      6  C   UNL     1     -10.097   6.949  66.779  0.00  0.00    -0.000 A 
ATOM      7  C   UNL     1      -8.829   6.766  66.242  0.00  0.00    +0.000 A 
ATOM      8  C   UNL     1      -9.750  10.724  67.210  0.00  0.00    +0.198 C 
ATOM      9  C   UNL     1     -10.344  11.589  66.172  0.00  0.00    +0.056 A 
ATOM     10  C   UNL     1     -11.508  12.310  66.413  0.00  0.00    +0.148 A 
ATOM     11  C   UNL     1     -12.367  12.651  65.374  0.00  0.00    +0.079 A 
ATOM     12  C   UNL     1     -12.047  12.305  64.077  0.00  0.00    +0.199 A 
ATOM     13  C   UNL     1     -10.727  12.005  63.817  0.00  0.00    +0.042 A 
ATOM     14  O   UNL     1     -13.069  12.006  63.180  0.00  0.00    -0.286 OA
ATOM     15  O   UNL     1     -11.782  12.679  67.728  0.00  0.00    -0.454 OA
ATOM     16  C   UNL     1     -11.401  11.826  68.768  0.00  0.00    +0.148 A 
ATOM     17  C   UNL     1     -12.075  11.811  69.984  0.00  0.00    +0.079 A 
ATOM     18  C   UNL     1     -12.019  10.709  70.826  0.00  0.00    +0.199 A 
ATOM     19  O   UNL     1     -13.162  10.283  71.510  0.00  0.00    -0.286 OA
ATOM     20  C   UNL     1     -10.949   9.846  70.624  0.00  0.00    +0.042 A 
ATOM     21  C   UNL     1     -10.133  10.002  69.518  0.00  0.00    +0.006 A 
ATOM     22  C   UNL     1      -9.916  11.570  64.858  0.00  0.00    +0.006 A 
ATOM     23  C   UNL     1     -10.539  10.798  68.454  0.00  0.00    +0.056 A 
ATOM     24  C   UNL     1      -7.874   7.692  66.645  0.00  0.00    +0.006 A 
ATOM     25  O   UNL     1      -8.449  11.184  67.507  0.00  0.00    -0.440 OA
ENDROOT
TORSDOF 0
ENDMDL
MODEL 7
REMARK VINA RESULT:      -7.2      2.756      6.167
REMARK  Name = 
REMARK  0 active torsions:
REMARK  status: ('A' for Active; 'I' for Inactive)
REMARK                            x       y       z     vdW  Elec       q    Type
REMARK                         _______ _______ _______ _____ _____    ______ ____
ROOT
ATOM      1  O   UNL     1      -6.723  11.407  68.560  0.00  0.00    -0.245 OA
ATOM      2  C   UNL     1      -7.860  11.526  68.034  0.00  0.00    +0.342 C 
ATOM      3  C   UNL     1      -9.156  11.090  68.530  0.00  0.00    +0.076 A 
ATOM      4  C   UNL     1     -10.171  11.822  67.924  0.00  0.00    +0.028 A 
ATOM      5  C   UNL     1     -11.340  12.008  68.652  0.00  0.00    -0.000 A 
ATOM      6  C   UNL     1     -11.573  11.259  69.799  0.00  0.00    -0.000 A 
ATOM      7  C   UNL     1     -10.833  10.088  69.906  0.00  0.00    +0.000 A 
ATOM      8  C   UNL     1      -9.496  12.722  66.953  0.00  0.00    +0.198 C 
ATOM      9  C   UNL     1     -10.015  12.571  65.579  0.00  0.00    +0.056 A 
ATOM     10  C   UNL     1     -10.556  13.650  64.889  0.00  0.00    +0.148 A 
ATOM     11  C   UNL     1     -11.515  13.460  63.901  0.00  0.00    +0.079 A 
ATOM     12  C   UNL     1     -11.913  12.181  63.568  0.00  0.00    +0.199 A 
ATOM     13  C   UNL     1     -11.073  11.150  63.928  0.00  0.00    +0.042 A 
ATOM     14  O   UNL     1     -13.225  11.962  63.155  0.00  0.00    -0.286 OA
ATOM     15  O   UNL     1     -10.102  14.924  65.220  0.00  0.00    -0.454 OA
ATOM     16  C   UNL     1      -9.751  15.200  66.545  0.00  0.00    +0.148 A 
ATOM     17  C   UNL     1      -9.827  16.486  67.069  0.00  0.00    +0.079 A 
ATOM     18  C   UNL     1      -9.925  16.703  68.436  0.00  0.00    +0.199 A 
ATOM     19  O   UNL     1     -10.768  17.701  68.935  0.00  0.00    -0.286 OA
ATOM     20  C   UNL     1      -9.506  15.655  69.247  0.00  0.00    +0.042 A 
ATOM     21  C   UNL     1      -9.211  14.424  68.690  0.00  0.00    +0.006 A 
ATOM     22  C   UNL     1     -10.192  11.335  64.986  0.00  0.00    +0.006 A 
ATOM     23  C   UNL     1      -9.617  14.124  67.396  0.00  0.00    +0.056 A 
ATOM     24  C   UNL     1      -9.500  10.191  69.526  0.00  0.00    +0.006 A 
ATOM     25  O   UNL     1      -8.125  12.390  66.970  0.00  0.00    -0.440 OA
ENDROOT
TORSDOF 0
ENDMDL
MODEL 8
REMARK VINA RESULT:      -7.1      3.553      5.547
REMARK  Name = 
REMARK  0 active torsions:
REMARK  status: ('A' for Active; 'I' for Inactive)
REMARK                            x       y       z     vdW  Elec       q    Type
REMARK                         _______ _______ _______ _____ _____    ______ ____
ROOT
ATOM      1  O   UNL     1     -10.932   8.102  69.002  0.00  0.00    -0.245 OA
ATOM      2  C   UNL     1     -10.676   9.327  68.864  0.00  0.00    +0.342 C 
ATOM      3  C   UNL     1      -9.435  10.044  69.114  0.00  0.00    +0.076 A 
ATOM      4  C   UNL     1      -9.415  11.231  68.393  0.00  0.00    +0.028 A 
ATOM      5  C   UNL     1      -8.172  11.719  68.008  0.00  0.00    -0.000 A 
ATOM      6  C   UNL     1      -7.013  11.191  68.565  0.00  0.00    -0.000 A 
ATOM      7  C   UNL     1      -7.185  10.516  69.767  0.00  0.00    +0.000 A 
ATOM      8  C   UNL     1     -10.727  11.306  67.698  0.00  0.00    +0.198 C 
ATOM      9  C   UNL     1     -11.462  12.551  67.998  0.00  0.00    +0.056 A 
ATOM     10  C   UNL     1     -11.850  13.422  66.986  0.00  0.00    +0.148 A 
ATOM     11  C   UNL     1     -12.011  14.780  67.233  0.00  0.00    +0.079 A 
ATOM     12  C   UNL     1     -11.821  15.274  68.507  0.00  0.00    +0.199 A 
ATOM     13  C   UNL     1     -11.879  14.368  69.544  0.00  0.00    +0.042 A 
ATOM     14  O   UNL     1     -11.316  16.561  68.671  0.00  0.00    -0.286 OA
ATOM     15  O   UNL     1     -12.073  12.885  65.720  0.00  0.00    -0.454 OA
ATOM     16  C   UNL     1     -11.296  11.805  65.291  0.00  0.00    +0.148 A 
ATOM     17  C   UNL     1     -11.052  11.572  63.942  0.00  0.00    +0.079 A 
ATOM     18  C   UNL     1      -9.960  10.821  63.527  0.00  0.00    +0.199 A 
ATOM     19  O   UNL     1      -9.225  11.205  62.401  0.00  0.00    -0.286 OA
ATOM     20  C   UNL     1      -9.409   9.974  64.481  0.00  0.00    +0.042 A 
ATOM     21  C   UNL     1      -9.821  10.055  65.799  0.00  0.00    +0.006 A 
ATOM     22  C   UNL     1     -11.616  13.029  69.286  0.00  0.00    +0.006 A 
ATOM     23  C   UNL     1     -10.538  11.160  66.243  0.00  0.00    +0.056 A 
ATOM     24  C   UNL     1      -8.303   9.692  69.831  0.00  0.00    +0.006 A 
ATOM     25  O   UNL     1     -11.487  10.202  68.139  0.00  0.00    -0.440 OA
ENDROOT
TORSDOF 0
ENDMDL
MODEL 9
REMARK VINA RESULT:      -7.0      3.607      6.035
REMARK  Name = 
REMARK  0 active torsions:
REMARK  status: ('A' for Active; 'I' for Inactive)
REMARK                            x       y       z     vdW  Elec       q    Type
REMARK                         _______ _______ _______ _____ _____    ______ ____
ROOT
ATOM      1  O   UNL     1      -5.312  21.188  70.285  0.00  0.00    -0.245 OA
ATOM      2  C   UNL     1      -5.900  20.621  69.326  0.00  0.00    +0.342 C 
ATOM      3  C   UNL     1      -5.508  20.529  67.928  0.00  0.00    +0.076 A 
ATOM      4  C   UNL     1      -6.134  19.446  67.326  0.00  0.00    +0.028 A 
ATOM      5  C   UNL     1      -5.470  18.837  66.268  0.00  0.00    -0.000 A 
ATOM      6  C   UNL     1      -4.381  19.465  65.675  0.00  0.00    -0.000 A 
ATOM      7  C   UNL     1      -4.291  20.834  65.894  0.00  0.00    +0.000 A 
ATOM      8  C   UNL     1      -7.013  18.854  68.369  0.00  0.00    +0.198 C 
ATOM      9  C   UNL     1      -8.423  18.757  67.939  0.00  0.00    +0.056 A 
ATOM     10  C   UNL     1      -9.086  17.535  67.912  0.00  0.00    +0.148 A 
ATOM     11  C   UNL     1     -10.139  17.311  67.034  0.00  0.00    +0.079 A 
ATOM     12  C   UNL     1     -10.562  18.325  66.198  0.00  0.00    +0.199 A 
ATOM     13  C   UNL     1     -10.208  19.610  66.544  0.00  0.00    +0.042 A 
ATOM     14  O   UNL     1     -11.066  18.004  64.939  0.00  0.00    -0.286 OA
ATOM     15  O   UNL     1      -8.660  16.547  68.797  0.00  0.00    -0.454 OA
ATOM     16  C   UNL     1      -7.303  16.464  69.125  0.00  0.00    +0.148 A 
ATOM     17  C   UNL     1      -6.717  15.264  69.513  0.00  0.00    +0.079 A 
ATOM     18  C   UNL     1      -5.348  15.061  69.401  0.00  0.00    +0.199 A 
ATOM     19  O   UNL     1      -4.849  13.827  68.975  0.00  0.00    -0.286 OA
ATOM     20  C   UNL     1      -4.571  16.209  69.318  0.00  0.00    +0.042 A 
ATOM     21  C   UNL     1      -5.173  17.444  69.156  0.00  0.00    +0.006 A 
ATOM     22  C   UNL     1      -9.090  19.810  67.344  0.00  0.00    +0.006 A 
ATOM     23  C   UNL     1      -6.505  17.528  68.766  0.00  0.00    +0.056 A 
ATOM     24  C   UNL     1      -4.584  21.249  67.188  0.00  0.00    +0.006 A 
ATOM     25  O   UNL     1      -6.931  19.695  69.499  0.00  0.00    -0.440 OA
ENDROOT
TORSDOF 0
ENDMDL
