MODEL 1
REMARK VINA RESULT:      -4.5      0.000      0.000
REMARK  Name = 
REMARK  1 active torsions:
REMARK  status: ('A' for Active; 'I' for Inactive)
REMARK    1  A    between atoms: C_2  and  CA_4
REMARK                            x       y       z     vdW  Elec       q    Type
REMARK                         _______ _______ _______ _____ _____    ______ ____
ROOT
ATOM      1  CA  HYP A   1     -10.656  14.743  65.085  0.00  0.00    +0.178 C 
ATOM      2  N   HYP A   1     -11.345  14.499  66.496  0.00  0.00    -0.206 NA
ATOM      3  CD  HYP A   1     -11.851  13.182  66.345  0.00  0.00    +0.122 C 
ATOM      4  CG  HYP A   1     -11.803  12.942  64.698  0.00  0.00    +0.171 C 
ATOM      5  OD  HYP A   1     -13.277  12.511  64.668  0.00  0.00    -0.222 OA
ATOM      6  CB  HYP A   1     -12.165  14.548  64.394  0.00  0.00    +0.063 C 
ENDROOT
BRANCH   1   8
ATOM      7  O   HYP A   1     -11.393  16.687  64.158  0.00  0.00    -0.244 OA
ATOM      8  C   HYP A   1     -10.728  16.369  65.142  0.00  0.00    +0.380 C 
ATOM      9  OXT HYP A   1      -9.757  17.097  65.686  0.00  0.00    -0.244 OA
ENDBRANCH   1   8
TORSDOF 1
ENDMDL
MODEL 2
REMARK VINA RESULT:      -4.4      1.363      1.583
REMARK  Name = 
REMARK  1 active torsions:
REMARK  status: ('A' for Active; 'I' for Inactive)
REMARK    1  A    between atoms: C_2  and  CA_4
REMARK                            x       y       z     vdW  Elec       q    Type
REMARK                         _______ _______ _______ _____ _____    ______ ____
ROOT
ATOM      1  CA  HYP A   1     -11.721  14.520  64.564  0.00  0.00    +0.178 C 
ATOM      2  N   HYP A   1     -10.325  13.766  64.644  0.00  0.00    -0.206 NA
ATOM      3  CD  HYP A   1     -10.729  12.449  64.986  0.00  0.00    +0.122 C 
ATOM      4  CG  HYP A   1     -12.293  12.656  65.517  0.00  0.00    +0.171 C 
ATOM      5  OD  HYP A   1     -12.000  11.905  66.825  0.00  0.00    -0.222 OA
ATOM      6  CB  HYP A   1     -11.933  14.150  66.180  0.00  0.00    +0.063 C 
ENDROOT
BRANCH   1   8
ATOM      7  O   HYP A   1     -11.604  16.704  63.936  0.00  0.00    -0.244 OA
ATOM      8  C   HYP A   1     -11.122  16.011  64.829  0.00  0.00    +0.380 C 
ATOM      9  OXT HYP A   1      -9.936  16.201  65.400  0.00  0.00    -0.244 OA
ENDBRANCH   1   8
TORSDOF 1
ENDMDL
MODEL 3
REMARK VINA RESULT:      -4.3      1.622      2.124
REMARK  Name = 
REMARK  1 active torsions:
REMARK  status: ('A' for Active; 'I' for Inactive)
REMARK    1  A    between atoms: C_2  and  CA_4
REMARK                            x       y       z     vdW  Elec       q    Type
REMARK                         _______ _______ _______ _____ _____    ______ ____
ROOT
ATOM      1  CA  HYP A   1     -11.691  14.414  65.191  0.00  0.00    +0.178 C 
ATOM      2  N   HYP A   1     -12.417  14.002  63.839  0.00  0.00    -0.206 NA
ATOM      3  CD  HYP A   1     -12.563  12.600  64.007  0.00  0.00    +0.122 C 
ATOM      4  CG  HYP A   1     -11.506  12.252  65.245  0.00  0.00    +0.171 C 
ATOM      5  OD  HYP A   1     -10.832  11.143  64.423  0.00  0.00    -0.222 OA
ATOM      6  CB  HYP A   1     -10.426  13.424  64.731  0.00  0.00    +0.063 C 
ENDROOT
BRANCH   1   8
ATOM      7  O   HYP A   1     -10.124  16.050  65.406  0.00  0.00    -0.244 OA
ATOM      8  C   HYP A   1     -11.026  15.784  64.614  0.00  0.00    +0.380 C 
ATOM      9  OXT HYP A   1     -11.733  16.672  63.922  0.00  0.00    -0.244 OA
ENDBRANCH   1   8
TORSDOF 1
ENDMDL
MODEL 4
REMARK VINA RESULT:      -4.3      7.129      7.853
REMARK  Name = 
REMARK  1 active torsions:
REMARK  status: ('A' for Active; 'I' for Inactive)
REMARK    1  A    between atoms: C_2  and  CA_4
REMARK                            x       y       z     vdW  Elec       q    Type
REMARK                         _______ _______ _______ _____ _____    ______ ____
ROOT
ATOM      1  CA  HYP A   1     -13.049  14.923  73.236  0.00  0.00    +0.178 C 
ATOM      2  N   HYP A   1     -14.124  15.710  72.371  0.00  0.00    -0.206 NA
ATOM      3  CD  HYP A   1     -14.222  14.889  71.217  0.00  0.00    +0.122 C 
ATOM      4  CG  HYP A   1     -12.861  13.935  71.313  0.00  0.00    +0.171 C 
ATOM      5  OD  HYP A   1     -12.447  14.296  69.878  0.00  0.00    -0.222 OA
ATOM      6  CB  HYP A   1     -11.965  15.177  71.989  0.00  0.00    +0.063 C 
ENDROOT
BRANCH   1   8
ATOM      7  O   HYP A   1     -11.857  16.859  73.352  0.00  0.00    -0.244 OA
ATOM      8  C   HYP A   1     -12.568  16.207  74.114  0.00  0.00    +0.380 C 
ATOM      9  OXT HYP A   1     -12.427  16.143  75.436  0.00  0.00    -0.244 OA
ENDBRANCH   1   8
TORSDOF 1
ENDMDL
MODEL 5
REMARK VINA RESULT:      -4.3      1.474      1.855
REMARK  Name = 
REMARK  1 active torsions:
REMARK  status: ('A' for Active; 'I' for Inactive)
REMARK    1  A    between atoms: C_2  and  CA_4
REMARK                            x       y       z     vdW  Elec       q    Type
REMARK                         _______ _______ _______ _____ _____    ______ ____
ROOT
ATOM      1  CA  HYP A   1     -10.938  14.377  65.326  0.00  0.00    +0.178 C 
ATOM      2  N   HYP A   1     -11.352  14.869  66.779  0.00  0.00    -0.206 NA
ATOM      3  CD  HYP A   1     -11.099  13.709  67.558  0.00  0.00    +0.122 C 
ATOM      4  CG  HYP A   1     -10.987  12.502  66.418  0.00  0.00    +0.171 C 
ATOM      5  OD  HYP A   1     -12.018  11.638  67.159  0.00  0.00    -0.222 OA
ATOM      6  CB  HYP A   1     -12.144  13.227  65.449  0.00  0.00    +0.063 C 
ENDROOT
BRANCH   1   8
ATOM      7  O   HYP A   1     -12.647  14.780  63.878  0.00  0.00    -0.244 OA
ATOM      8  C   HYP A   1     -11.847  15.460  64.517  0.00  0.00    +0.380 C 
ATOM      9  OXT HYP A   1     -11.366  16.642  64.143  0.00  0.00    -0.244 OA
ENDBRANCH   1   8
TORSDOF 1
ENDMDL
MODEL 6
REMARK VINA RESULT:      -4.3      6.161      6.985
REMARK  Name = 
REMARK  1 active torsions:
REMARK  status: ('A' for Active; 'I' for Inactive)
REMARK    1  A    between atoms: C_2  and  CA_4
REMARK                            x       y       z     vdW  Elec       q    Type
REMARK                         _______ _______ _______ _____ _____    ______ ____
ROOT
ATOM      1  CA  HYP A   1     -12.923  15.631  70.976  0.00  0.00    +0.178 C 
ATOM      2  N   HYP A   1     -12.702  14.116  71.400  0.00  0.00    -0.206 NA
ATOM      3  CD  HYP A   1     -13.242  14.104  72.713  0.00  0.00    +0.122 C 
ATOM      4  CG  HYP A   1     -13.321  15.719  73.107  0.00  0.00    +0.171 C 
ATOM      5  OD  HYP A   1     -12.562  15.486  74.422  0.00  0.00    -0.222 OA
ATOM      6  CB  HYP A   1     -11.926  16.059  72.247  0.00  0.00    +0.063 C 
ENDROOT
BRANCH   1   8
ATOM      7  O   HYP A   1     -10.727  15.339  70.452  0.00  0.00    -0.244 OA
ATOM      8  C   HYP A   1     -11.748  15.663  69.848  0.00  0.00    +0.380 C 
ATOM      9  OXT HYP A   1     -11.800  16.481  68.801  0.00  0.00    -0.244 OA
ENDBRANCH   1   8
TORSDOF 1
ENDMDL
MODEL 7
REMARK VINA RESULT:      -4.0      1.373      3.587
REMARK  Name = 
REMARK  1 active torsions:
REMARK  status: ('A' for Active; 'I' for Inactive)
REMARK    1  A    between atoms: C_2  and  CA_4
REMARK                            x       y       z     vdW  Elec       q    Type
REMARK                         _______ _______ _______ _____ _____    ______ ____
ROOT
ATOM      1  CA  HYP A   1     -11.624  14.437  65.900  0.00  0.00    +0.178 C 
ATOM      2  N   HYP A   1     -10.244  13.653  65.820  0.00  0.00    -0.206 NA
ATOM      3  CD  HYP A   1      -9.354  14.576  66.431  0.00  0.00    +0.122 C 
ATOM      4  CG  HYP A   1     -10.210  16.003  66.406  0.00  0.00    +0.171 C 
ATOM      5  OD  HYP A   1      -9.043  16.748  65.740  0.00  0.00    -0.222 OA
ATOM      6  CB  HYP A   1     -10.927  15.617  64.944  0.00  0.00    +0.063 C 
ENDROOT
BRANCH   1   8
ATOM      7  O   HYP A   1     -12.584  14.522  63.838  0.00  0.00    -0.244 OA
ATOM      8  C   HYP A   1     -12.337  13.648  64.666  0.00  0.00    +0.380 C 
ATOM      9  OXT HYP A   1     -13.049  12.540  64.857  0.00  0.00    -0.244 OA
ENDBRANCH   1   8
TORSDOF 1
ENDMDL
MODEL 8
REMARK VINA RESULT:      -4.0      1.238      3.719
REMARK  Name = 
REMARK  1 active torsions:
REMARK  status: ('A' for Active; 'I' for Inactive)
REMARK    1  A    between atoms: C_2  and  CA_4
REMARK                            x       y       z     vdW  Elec       q    Type
REMARK                         _______ _______ _______ _____ _____    ______ ____
ROOT
ATOM      1  CA  HYP A   1     -12.068  14.300  65.477  0.00  0.00    +0.178 C 
ATOM      2  N   HYP A   1     -11.584  14.369  66.988  0.00  0.00    -0.206 NA
ATOM      3  CD  HYP A   1     -10.867  15.595  67.005  0.00  0.00    +0.122 C 
ATOM      4  CG  HYP A   1     -10.615  15.910  65.390  0.00  0.00    +0.171 C 
ATOM      5  OD  HYP A   1      -9.107  16.101  65.612  0.00  0.00    -0.222 OA
ATOM      6  CB  HYP A   1     -10.456  14.282  65.036  0.00  0.00    +0.063 C 
ENDROOT
BRANCH   1   8
ATOM      7  O   HYP A   1     -13.173  12.495  64.640  0.00  0.00    -0.244 OA
ATOM      8  C   HYP A   1     -12.253  12.683  65.433  0.00  0.00    +0.380 C 
ATOM      9  OXT HYP A   1     -11.965  11.913  66.480  0.00  0.00    -0.244 OA
ENDBRANCH   1   8
TORSDOF 1
ENDMDL
MODEL 9
REMARK VINA RESULT:      -4.0      5.669      6.397
REMARK  Name = 
REMARK  1 active torsions:
REMARK  status: ('A' for Active; 'I' for Inactive)
REMARK    1  A    between atoms: C_2  and  CA_4
REMARK                            x       y       z     vdW  Elec       q    Type
REMARK                         _______ _______ _______ _____ _____    ______ ____
ROOT
ATOM      1  CA  HYP A   1     -11.842  15.366  71.418  0.00  0.00    +0.178 C 
ATOM      2  N   HYP A   1     -13.287  15.971  71.151  0.00  0.00    -0.206 NA
ATOM      3  CD  HYP A   1     -14.042  15.384  72.200  0.00  0.00    +0.122 C 
ATOM      4  CG  HYP A   1     -13.070  14.135  72.716  0.00  0.00    +0.171 C 
ATOM      5  OD  HYP A   1     -14.216  13.122  72.580  0.00  0.00    -0.222 OA
ATOM      6  CB  HYP A   1     -12.506  13.854  71.166  0.00  0.00    +0.063 C 
ENDROOT
BRANCH   1   8
ATOM      7  O   HYP A   1     -10.079  15.432  69.980  0.00  0.00    -0.244 OA
ATOM      8  C   HYP A   1     -11.300  15.547  69.893  0.00  0.00    +0.380 C 
ATOM      9  OXT HYP A   1     -11.944  16.296  69.001  0.00  0.00    -0.244 OA
ENDBRANCH   1   8
TORSDOF 1
ENDMDL
