MODEL 1
REMARK VINA RESULT:      -6.7      0.000      0.000
REMARK  Name = 
REMARK  6 active torsions:
REMARK  status: ('A' for Active; 'I' for Inactive)
REMARK    1  A    between atoms: C_2  and  N_5
REMARK    2  A    between atoms: N_5  and  C_6
REMARK    3  A    between atoms: C_6  and  C_7
REMARK    4  A    between atoms: C_7  and  C_9
REMARK    5  A    between atoms: C_9  and  O_10
REMARK    6  A    between atoms: O_10  and  C_11
REMARK                            x       y       z     vdW  Elec       q    Type
REMARK                         _______ _______ _______ _____ _____    ______ ____
ROOT
ATOM      1  C   UNL     1     -11.770  11.972  69.279  0.00  0.00    +0.135 A 
ATOM      2  C   UNL     1     -11.836  10.947  70.183  0.00  0.00    +0.015 A 
ATOM      3  C   UNL     1     -12.681  11.092  71.406  0.00  0.00    +0.030 C 
ATOM      4  C   UNL     1     -13.344   9.734  71.597  0.00  0.00    +0.013 C 
ATOM      5  C   UNL     1     -12.253   8.757  72.012  0.00  0.00    +0.069 C 
ATOM      6  C   UNL     1     -11.234   8.705  70.944  0.00  0.00    +0.173 C 
ATOM      7  O   UNL     1     -10.620   7.636  70.745  0.00  0.00    -0.291 OA
ATOM      8  C   UNL     1     -11.103   9.789  69.981  0.00  0.00    +0.034 A 
ATOM      9  C   UNL     1     -10.595   9.606  68.715  0.00  0.00    +0.003 A 
ATOM     10  C   UNL     1     -10.953  10.452  67.672  0.00  0.00    +0.003 A 
ATOM     11  C   UNL     1     -11.598  11.643  67.941  0.00  0.00    +0.037 A 
ENDROOT
BRANCH   1  12
ATOM     12  O   UNL     1     -12.010  13.285  69.679  0.00  0.00    -0.473 OA
BRANCH  12  13
ATOM     13  C   UNL     1     -11.713  14.326  68.768  0.00  0.00    +0.239 C 
BRANCH  13  14
ATOM     14  C   UNL     1     -11.187  15.502  69.800  0.00  0.00    +0.213 C 
ATOM     15  O   UNL     1     -11.538  16.607  68.815  0.00  0.00    -0.218 OA
BRANCH  14  16
ATOM     16  C   UNL     1     -12.659  15.604  70.544  0.00  0.00    +0.125 C 
BRANCH  16  17
ATOM     17  N   UNL     1     -12.289  16.031  71.877  0.00  0.00    -0.218 NA
BRANCH  17  19
ATOM     18  C   UNL     1     -13.330  15.738  72.951  0.00  0.00    +0.017 C 
ATOM     19  C   UNL     1     -13.195  15.587  72.901  0.00  0.00    +0.060 C 
ATOM     20  C   UNL     1     -12.455  15.417  74.195  0.00  0.00    +0.017 C 
ATOM     21  C   UNL     1     -13.927  14.351  72.464  0.00  0.00    +0.017 C 
ENDBRANCH  17  19
ENDBRANCH  16  17
ENDBRANCH  14  16
ENDBRANCH  13  14
ENDBRANCH  12  13
ENDBRANCH   1  12
TORSDOF 6
ENDMDL
MODEL 2
REMARK VINA RESULT:      -6.4      2.973      4.334
REMARK  Name = 
REMARK  6 active torsions:
REMARK  status: ('A' for Active; 'I' for Inactive)
REMARK    1  A    between atoms: C_2  and  N_5
REMARK    2  A    between atoms: N_5  and  C_6
REMARK    3  A    between atoms: C_6  and  C_7
REMARK    4  A    between atoms: C_7  and  C_9
REMARK    5  A    between atoms: C_9  and  O_10
REMARK    6  A    between atoms: O_10  and  C_11
REMARK                            x       y       z     vdW  Elec       q    Type
REMARK                         _______ _______ _______ _____ _____    ______ ____
ROOT
ATOM      1  C   UNL     1     -11.174  13.179  67.729  0.00  0.00    +0.135 A 
ATOM      2  C   UNL     1     -11.532  13.045  66.415  0.00  0.00    +0.015 A 
ATOM      3  C   UNL     1     -12.448  14.046  65.791  0.00  0.00    +0.030 C 
ATOM      4  C   UNL     1     -11.892  14.279  64.392  0.00  0.00    +0.013 C 
ATOM      5  C   UNL     1     -12.136  13.005  63.595  0.00  0.00    +0.069 C 
ATOM      6  C   UNL     1     -11.438  11.889  64.264  0.00  0.00    +0.173 C 
ATOM      7  O   UNL     1     -10.983  10.956  63.570  0.00  0.00    -0.291 OA
ATOM      8  C   UNL     1     -11.069  11.971  65.670  0.00  0.00    +0.034 A 
ATOM      9  C   UNL     1     -10.014  11.271  66.209  0.00  0.00    +0.003 A 
ATOM     10  C   UNL     1      -9.354  11.731  67.341  0.00  0.00    +0.003 A 
ATOM     11  C   UNL     1      -9.911  12.740  68.102  0.00  0.00    +0.037 A 
ENDROOT
BRANCH   1  12
ATOM     12  O   UNL     1     -11.999  13.861  68.620  0.00  0.00    -0.473 OA
BRANCH  12  13
ATOM     13  C   UNL     1     -11.534  14.064  69.941  0.00  0.00    +0.239 C 
BRANCH  13  14
ATOM     14  C   UNL     1     -11.064  15.645  69.865  0.00  0.00    +0.213 C 
ATOM     15  O   UNL     1     -12.384  16.069  69.240  0.00  0.00    -0.218 OA
BRANCH  14  16
ATOM     16  C   UNL     1     -11.611  15.951  71.394  0.00  0.00    +0.125 C 
BRANCH  16  17
ATOM     17  N   UNL     1     -13.045  15.854  71.222  0.00  0.00    -0.218 NA
BRANCH  17  19
ATOM     18  C   UNL     1     -13.893  15.534  72.447  0.00  0.00    +0.017 C 
ATOM     19  C   UNL     1     -13.742  15.400  72.394  0.00  0.00    +0.060 C 
ATOM     20  C   UNL     1     -12.838  15.488  73.588  0.00  0.00    +0.017 C 
ATOM     21  C   UNL     1     -14.313  14.029  72.176  0.00  0.00    +0.017 C 
ENDBRANCH  17  19
ENDBRANCH  16  17
ENDBRANCH  14  16
ENDBRANCH  13  14
ENDBRANCH  12  13
ENDBRANCH   1  12
TORSDOF 6
ENDMDL
MODEL 3
REMARK VINA RESULT:      -6.3      4.048      7.814
REMARK  Name = 
REMARK  6 active torsions:
REMARK  status: ('A' for Active; 'I' for Inactive)
REMARK    1  A    between atoms: C_2  and  N_5
REMARK    2  A    between atoms: N_5  and  C_6
REMARK    3  A    between atoms: C_6  and  C_7
REMARK    4  A    between atoms: C_7  and  C_9
REMARK    5  A    between atoms: C_9  and  O_10
REMARK    6  A    between atoms: O_10  and  C_11
REMARK                            x       y       z     vdW  Elec       q    Type
REMARK                         _______ _______ _______ _____ _____    ______ ____
ROOT
ATOM      1  C   UNL     1      -9.825  18.055  68.328  0.00  0.00    +0.135 A 
ATOM      2  C   UNL     1      -8.563  18.583  68.300  0.00  0.00    +0.015 A 
ATOM      3  C   UNL     1      -7.420  17.794  68.850  0.00  0.00    +0.030 C 
ATOM      4  C   UNL     1      -6.267  18.035  67.883  0.00  0.00    +0.013 C 
ATOM      5  C   UNL     1      -5.835  19.485  68.054  0.00  0.00    +0.069 C 
ATOM      6  C   UNL     1      -6.982  20.360  67.740  0.00  0.00    +0.173 C 
ATOM      7  O   UNL     1      -6.768  21.481  67.233  0.00  0.00    -0.291 OA
ATOM      8  C   UNL     1      -8.346  19.853  67.790  0.00  0.00    +0.034 A 
ATOM      9  C   UNL     1      -9.371  20.388  67.044  0.00  0.00    +0.003 A 
ATOM     10  C   UNL     1     -10.472  19.621  66.687  0.00  0.00    +0.003 A 
ATOM     11  C   UNL     1     -10.692  18.403  67.300  0.00  0.00    +0.037 A 
ENDROOT
BRANCH   1  12
ATOM     12  O   UNL     1     -10.171  17.096  69.277  0.00  0.00    -0.473 OA
BRANCH  12  13
ATOM     13  C   UNL     1     -10.310  15.754  68.851  0.00  0.00    +0.239 C 
BRANCH  13  14
ATOM     14  C   UNL     1     -11.933  15.529  69.053  0.00  0.00    +0.213 C 
ATOM     15  O   UNL     1     -11.755  14.038  69.299  0.00  0.00    -0.218 OA
BRANCH  14  16
ATOM     16  C   UNL     1     -11.849  15.874  70.667  0.00  0.00    +0.125 C 
BRANCH  16  17
ATOM     17  N   UNL     1     -13.246  15.862  71.046  0.00  0.00    -0.218 NA
BRANCH  17  19
ATOM     18  C   UNL     1     -13.649  15.482  72.466  0.00  0.00    +0.017 C 
ATOM     19  C   UNL     1     -13.481  15.388  72.382  0.00  0.00    +0.060 C 
ATOM     20  C   UNL     1     -12.388  15.867  73.291  0.00  0.00    +0.017 C 
ATOM     21  C   UNL     1     -13.660  13.897  72.394  0.00  0.00    +0.017 C 
ENDBRANCH  17  19
ENDBRANCH  16  17
ENDBRANCH  14  16
ENDBRANCH  13  14
ENDBRANCH  12  13
ENDBRANCH   1  12
TORSDOF 6
ENDMDL
MODEL 4
REMARK VINA RESULT:      -6.2      2.875      4.206
REMARK  Name = 
REMARK  6 active torsions:
REMARK  status: ('A' for Active; 'I' for Inactive)
REMARK    1  A    between atoms: C_2  and  N_5
REMARK    2  A    between atoms: N_5  and  C_6
REMARK    3  A    between atoms: C_6  and  C_7
REMARK    4  A    between atoms: C_7  and  C_9
REMARK    5  A    between atoms: C_9  and  O_10
REMARK    6  A    between atoms: O_10  and  C_11
REMARK                            x       y       z     vdW  Elec       q    Type
REMARK                         _______ _______ _______ _____ _____    ______ ____
ROOT
ATOM      1  C   UNL     1     -11.319  12.648  66.219  0.00  0.00    +0.135 A 
ATOM      2  C   UNL     1     -10.571  11.553  65.882  0.00  0.00    +0.015 A 
ATOM      3  C   UNL     1      -9.948  10.723  66.956  0.00  0.00    +0.030 C 
ATOM      4  C   UNL     1     -10.116   9.281  66.496  0.00  0.00    +0.013 C 
ATOM      5  C   UNL     1      -9.201   9.084  65.296  0.00  0.00    +0.069 C 
ATOM      6  C   UNL     1      -9.603  10.030  64.235  0.00  0.00    +0.173 C 
ATOM      7  O   UNL     1      -9.459   9.697  63.040  0.00  0.00    -0.291 OA
ATOM      8  C   UNL     1     -10.369  11.227  64.550  0.00  0.00    +0.034 A 
ATOM      9  C   UNL     1     -11.201  11.843  63.643  0.00  0.00    +0.003 A 
ATOM     10  C   UNL     1     -12.282  12.604  64.067  0.00  0.00    +0.003 A 
ATOM     11  C   UNL     1     -12.383  12.982  65.391  0.00  0.00    +0.037 A 
ENDROOT
BRANCH   1  12
ATOM     12  O   UNL     1     -11.101  13.310  67.425  0.00  0.00    -0.473 OA
BRANCH  12  13
ATOM     13  C   UNL     1     -12.023  14.310  67.815  0.00  0.00    +0.239 C 
BRANCH  13  14
ATOM     14  C   UNL     1     -11.284  14.905  69.167  0.00  0.00    +0.213 C 
ATOM     15  O   UNL     1     -12.021  16.231  69.058  0.00  0.00    -0.218 OA
BRANCH  14  16
ATOM     16  C   UNL     1     -12.439  14.267  70.162  0.00  0.00    +0.125 C 
BRANCH  16  17
ATOM     17  N   UNL     1     -13.023  15.458  70.741  0.00  0.00    -0.218 NA
BRANCH  17  19
ATOM     18  C   UNL     1     -13.832  15.348  72.028  0.00  0.00    +0.017 C 
ATOM     19  C   UNL     1     -13.657  15.235  72.012  0.00  0.00    +0.060 C 
ATOM     20  C   UNL     1     -12.820  15.824  73.108  0.00  0.00    +0.017 C 
ATOM     21  C   UNL     1     -13.960  13.777  72.206  0.00  0.00    +0.017 C 
ENDBRANCH  17  19
ENDBRANCH  16  17
ENDBRANCH  14  16
ENDBRANCH  13  14
ENDBRANCH  12  13
ENDBRANCH   1  12
TORSDOF 6
ENDMDL
MODEL 5
REMARK VINA RESULT:      -6.1      3.104      5.085
REMARK  Name = 
REMARK  6 active torsions:
REMARK  status: ('A' for Active; 'I' for Inactive)
REMARK    1  A    between atoms: C_2  and  N_5
REMARK    2  A    between atoms: N_5  and  C_6
REMARK    3  A    between atoms: C_6  and  C_7
REMARK    4  A    between atoms: C_7  and  C_9
REMARK    5  A    between atoms: C_9  and  O_10
REMARK    6  A    between atoms: O_10  and  C_11
REMARK                            x       y       z     vdW  Elec       q    Type
REMARK                         _______ _______ _______ _____ _____    ______ ____
ROOT
ATOM      1  C   UNL     1     -11.033  14.312  68.887  0.00  0.00    +0.135 A 
ATOM      2  C   UNL     1     -11.664  13.267  69.504  0.00  0.00    +0.015 A 
ATOM      3  C   UNL     1     -11.610  11.905  68.893  0.00  0.00    +0.030 C 
ATOM      4  C   UNL     1     -11.427  10.949  70.065  0.00  0.00    +0.013 C 
ATOM      5  C   UNL     1     -12.730  10.951  70.853  0.00  0.00    +0.069 C 
ATOM      6  C   UNL     1     -12.993  12.325  71.326  0.00  0.00    +0.173 C 
ATOM      7  O   UNL     1     -13.588  12.489  72.411  0.00  0.00    -0.291 OA
ATOM      8  C   UNL     1     -12.372  13.472  70.678  0.00  0.00    +0.034 A 
ATOM      9  C   UNL     1     -12.134  14.661  71.329  0.00  0.00    +0.003 A 
ATOM     10  C   UNL     1     -11.116  15.510  70.916  0.00  0.00    +0.003 A 
ATOM     11  C   UNL     1     -10.509  15.316  69.691  0.00  0.00    +0.037 A 
ENDROOT
BRANCH   1  12
ATOM     12  O   UNL     1     -10.806  14.290  67.513  0.00  0.00    -0.473 OA
BRANCH  12  13
ATOM     13  C   UNL     1     -11.148  15.438  66.760  0.00  0.00    +0.239 C 
BRANCH  13  14
ATOM     14  C   UNL     1      -9.808  15.599  65.809  0.00  0.00    +0.213 C 
ATOM     15  O   UNL     1     -10.579  16.371  64.750  0.00  0.00    -0.218 OA
BRANCH  14  16
ATOM     16  C   UNL     1      -9.344  16.985  66.580  0.00  0.00    +0.125 C 
BRANCH  16  17
ATOM     17  N   UNL     1     -10.617  17.635  66.814  0.00  0.00    -0.218 NA
BRANCH  17  19
ATOM     18  C   UNL     1     -10.689  19.076  67.305  0.00  0.00    +0.017 C 
ATOM     19  C   UNL     1     -10.500  18.989  67.280  0.00  0.00    +0.060 C 
ATOM     20  C   UNL     1      -9.923  19.852  66.197  0.00  0.00    +0.017 C 
ATOM     21  C   UNL     1      -9.725  19.044  68.565  0.00  0.00    +0.017 C 
ENDBRANCH  17  19
ENDBRANCH  16  17
ENDBRANCH  14  16
ENDBRANCH  13  14
ENDBRANCH  12  13
ENDBRANCH   1  12
TORSDOF 6
ENDMDL
MODEL 6
REMARK VINA RESULT:      -6.1      2.245      3.221
REMARK  Name = 
REMARK  6 active torsions:
REMARK  status: ('A' for Active; 'I' for Inactive)
REMARK    1  A    between atoms: C_2  and  N_5
REMARK    2  A    between atoms: N_5  and  C_6
REMARK    3  A    between atoms: C_6  and  C_7
REMARK    4  A    between atoms: C_7  and  C_9
REMARK    5  A    between atoms: C_9  and  O_10
REMARK    6  A    between atoms: O_10  and  C_11
REMARK                            x       y       z     vdW  Elec       q    Type
REMARK                         _______ _______ _______ _____ _____    ______ ____
ROOT
ATOM      1  C   UNL     1     -11.831  13.788  66.611  0.00  0.00    +0.135 A 
ATOM      2  C   UNL     1     -11.362  12.584  67.062  0.00  0.00    +0.015 A 
ATOM      3  C   UNL     1     -11.230  12.345  68.530  0.00  0.00    +0.030 C 
ATOM      4  C   UNL     1     -11.691  10.909  68.745  0.00  0.00    +0.013 C 
ATOM      5  C   UNL     1     -10.638  10.002  68.124  0.00  0.00    +0.069 C 
ATOM      6  C   UNL     1     -10.533  10.317  66.685  0.00  0.00    +0.173 C 
ATOM      7  O   UNL     1     -10.243   9.403  65.885  0.00  0.00    -0.291 OA
ATOM      8  C   UNL     1     -10.986  11.598  66.163  0.00  0.00    +0.034 A 
ATOM      9  C   UNL     1     -11.408  11.770  64.865  0.00  0.00    +0.003 A 
ATOM     10  C   UNL     1     -12.300  12.781  64.531  0.00  0.00    +0.003 A 
ATOM     11  C   UNL     1     -12.564  13.793  65.432  0.00  0.00    +0.037 A 
ENDROOT
BRANCH   1  12
ATOM     12  O   UNL     1     -11.693  14.937  67.386  0.00  0.00    -0.473 OA
BRANCH  12  13
ATOM     13  C   UNL     1     -10.688  15.867  67.030  0.00  0.00    +0.239 C 
BRANCH  13  14
ATOM     14  C   UNL     1     -10.326  16.514  68.505  0.00  0.00    +0.213 C 
ATOM     15  O   UNL     1     -10.919  17.863  68.125  0.00  0.00    -0.218 OA
BRANCH  14  16
ATOM     16  C   UNL     1     -11.752  15.995  69.159  0.00  0.00    +0.125 C 
BRANCH  16  17
ATOM     17  N   UNL     1     -11.406  15.863  70.559  0.00  0.00    -0.218 NA
BRANCH  17  19
ATOM     18  C   UNL     1     -12.695  15.709  71.358  0.00  0.00    +0.017 C 
ATOM     19  C   UNL     1     -12.531  15.591  71.412  0.00  0.00    +0.060 C 
ATOM     20  C   UNL     1     -12.249  16.086  72.799  0.00  0.00    +0.017 C 
ATOM     21  C   UNL     1     -12.899  14.136  71.358  0.00  0.00    +0.017 C 
ENDBRANCH  17  19
ENDBRANCH  16  17
ENDBRANCH  14  16
ENDBRANCH  13  14
ENDBRANCH  12  13
ENDBRANCH   1  12
TORSDOF 6
ENDMDL
MODEL 7
REMARK VINA RESULT:      -6.0      3.617      6.635
REMARK  Name = 
REMARK  6 active torsions:
REMARK  status: ('A' for Active; 'I' for Inactive)
REMARK    1  A    between atoms: C_2  and  N_5
REMARK    2  A    between atoms: N_5  and  C_6
REMARK    3  A    between atoms: C_6  and  C_7
REMARK    4  A    between atoms: C_7  and  C_9
REMARK    5  A    between atoms: C_9  and  O_10
REMARK    6  A    between atoms: O_10  and  C_11
REMARK                            x       y       z     vdW  Elec       q    Type
REMARK                         _______ _______ _______ _____ _____    ______ ____
ROOT
ATOM      1  C   UNL     1     -11.738  12.483  66.141  0.00  0.00    +0.135 A 
ATOM      2  C   UNL     1     -11.259  13.765  66.129  0.00  0.00    +0.015 A 
ATOM      3  C   UNL     1     -10.404  14.245  67.256  0.00  0.00    +0.030 C 
ATOM      4  C   UNL     1      -9.317  15.089  66.600  0.00  0.00    +0.013 C 
ATOM      5  C   UNL     1      -9.985  16.352  66.075  0.00  0.00    +0.069 C 
ATOM      6  C   UNL     1     -11.021  15.966  65.096  0.00  0.00    +0.173 C 
ATOM      7  O   UNL     1     -11.265  16.731  64.139  0.00  0.00    -0.291 OA
ATOM      8  C   UNL     1     -11.586  14.624  65.092  0.00  0.00    +0.034 A 
ATOM      9  C   UNL     1     -12.116  14.038  63.965  0.00  0.00    +0.003 A 
ATOM     10  C   UNL     1     -12.150  12.657  63.826  0.00  0.00    +0.003 A 
ATOM     11  C   UNL     1     -11.911  11.847  64.918  0.00  0.00    +0.037 A 
ENDROOT
BRANCH   1  12
ATOM     12  O   UNL     1     -11.908  11.802  67.344  0.00  0.00    -0.473 OA
BRANCH  12  13
ATOM     13  C   UNL     1     -11.151  10.626  67.560  0.00  0.00    +0.239 C 
BRANCH  13  14
ATOM     14  C   UNL     1     -10.508  10.938  69.048  0.00  0.00    +0.213 C 
ATOM     15  O   UNL     1     -11.794  11.592  69.532  0.00  0.00    -0.218 OA
BRANCH  14  16
ATOM     16  C   UNL     1     -10.961   9.459  69.629  0.00  0.00    +0.125 C 
BRANCH  16  17
ATOM     17  N   UNL     1     -11.006   9.701  71.056  0.00  0.00    -0.218 NA
BRANCH  17  19
ATOM     18  C   UNL     1     -11.795   8.755  71.953  0.00  0.00    +0.017 C 
ATOM     19  C   UNL     1     -11.880   8.810  71.769  0.00  0.00    +0.060 C 
ATOM     20  C   UNL     1     -11.945   7.489  71.063  0.00  0.00    +0.017 C 
ATOM     21  C   UNL     1     -13.225   9.442  71.983  0.00  0.00    +0.017 C 
ENDBRANCH  17  19
ENDBRANCH  16  17
ENDBRANCH  14  16
ENDBRANCH  13  14
ENDBRANCH  12  13
ENDBRANCH   1  12
TORSDOF 6
ENDMDL
MODEL 8
REMARK VINA RESULT:      -6.0      3.406      5.361
REMARK  Name = 
REMARK  6 active torsions:
REMARK  status: ('A' for Active; 'I' for Inactive)
REMARK    1  A    between atoms: C_2  and  N_5
REMARK    2  A    between atoms: N_5  and  C_6
REMARK    3  A    between atoms: C_6  and  C_7
REMARK    4  A    between atoms: C_7  and  C_9
REMARK    5  A    between atoms: C_9  and  O_10
REMARK    6  A    between atoms: O_10  and  C_11
REMARK                            x       y       z     vdW  Elec       q    Type
REMARK                         _______ _______ _______ _____ _____    ______ ____
ROOT
ATOM      1  C   UNL     1     -11.372  13.118  67.873  0.00  0.00    +0.135 A 
ATOM      2  C   UNL     1     -11.669  13.013  66.541  0.00  0.00    +0.015 A 
ATOM      3  C   UNL     1     -12.574  14.015  65.903  0.00  0.00    +0.030 C 
ATOM      4  C   UNL     1     -11.962  14.295  64.537  0.00  0.00    +0.013 C 
ATOM      5  C   UNL     1     -12.146  13.039  63.697  0.00  0.00    +0.069 C 
ATOM      6  C   UNL     1     -11.458  11.917  64.367  0.00  0.00    +0.173 C 
ATOM      7  O   UNL     1     -10.956  11.011  63.670  0.00  0.00    -0.291 OA
ATOM      8  C   UNL     1     -11.153  11.969  65.790  0.00  0.00    +0.034 A 
ATOM      9  C   UNL     1     -10.111  11.272  66.357  0.00  0.00    +0.003 A 
ATOM     10  C   UNL     1      -9.510  11.713  67.530  0.00  0.00    +0.003 A 
ATOM     11  C   UNL     1     -10.119  12.691  68.290  0.00  0.00    +0.037 A 
ENDROOT
BRANCH   1  12
ATOM     12  O   UNL     1     -12.249  13.761  68.744  0.00  0.00    -0.473 OA
BRANCH  12  13
ATOM     13  C   UNL     1     -11.779  14.101  70.035  0.00  0.00    +0.239 C 
BRANCH  13  14
ATOM     14  C   UNL     1     -12.301  15.663  70.155  0.00  0.00    +0.213 C 
ATOM     15  O   UNL     1     -11.869  15.757  71.611  0.00  0.00    -0.218 OA
BRANCH  14  16
ATOM     16  C   UNL     1     -10.857  16.259  69.617  0.00  0.00    +0.125 C 
BRANCH  16  17
ATOM     17  N   UNL     1     -11.252  16.943  68.403  0.00  0.00    -0.218 NA
BRANCH  17  19
ATOM     18  C   UNL     1     -10.400  16.615  67.183  0.00  0.00    +0.017 C 
ATOM     19  C   UNL     1     -10.333  16.766  67.312  0.00  0.00    +0.060 C 
ATOM     20  C   UNL     1      -9.050  16.178  67.819  0.00  0.00    +0.017 C 
ATOM     21  C   UNL     1     -10.147  18.051  66.559  0.00  0.00    +0.017 C 
ENDBRANCH  17  19
ENDBRANCH  16  17
ENDBRANCH  14  16
ENDBRANCH  13  14
ENDBRANCH  12  13
ENDBRANCH   1  12
TORSDOF 6
ENDMDL
MODEL 9
REMARK VINA RESULT:      -6.0      3.709      5.867
REMARK  Name = 
REMARK  6 active torsions:
REMARK  status: ('A' for Active; 'I' for Inactive)
REMARK    1  A    between atoms: C_2  and  N_5
REMARK    2  A    between atoms: N_5  and  C_6
REMARK    3  A    between atoms: C_6  and  C_7
REMARK    4  A    between atoms: C_7  and  C_9
REMARK    5  A    between atoms: C_9  and  O_10
REMARK    6  A    between atoms: O_10  and  C_11
REMARK                            x       y       z     vdW  Elec       q    Type
REMARK                         _______ _______ _______ _____ _____    ______ ____
ROOT
ATOM      1  C   UNL     1     -11.701  15.392  68.778  0.00  0.00    +0.135 A 
ATOM      2  C   UNL     1     -12.215  14.825  69.912  0.00  0.00    +0.015 A 
ATOM      3  C   UNL     1     -12.837  15.694  70.957  0.00  0.00    +0.030 C 
ATOM      4  C   UNL     1     -14.063  14.926  71.436  0.00  0.00    +0.013 C 
ATOM      5  C   UNL     1     -13.560  13.716  72.210  0.00  0.00    +0.069 C 
ATOM      6  C   UNL     1     -12.736  12.887  71.307  0.00  0.00    +0.173 C 
ATOM      7  O   UNL     1     -12.720  11.649  71.467  0.00  0.00    -0.291 OA
ATOM      8  C   UNL     1     -12.138  13.455  70.106  0.00  0.00    +0.034 A 
ATOM      9  C   UNL     1     -11.831  12.703  68.996  0.00  0.00    +0.003 A 
ATOM     10  C   UNL     1     -11.780  13.280  67.733  0.00  0.00    +0.003 A 
ATOM     11  C   UNL     1     -11.762  14.654  67.603  0.00  0.00    +0.037 A 
ENDROOT
BRANCH   1  12
ATOM     12  O   UNL     1     -11.264  16.715  68.783  0.00  0.00    -0.473 OA
BRANCH  12  13
ATOM     13  C   UNL     1     -10.005  17.006  68.207  0.00  0.00    +0.239 C 
BRANCH  13  14
ATOM     14  C   UNL     1     -10.460  17.923  66.912  0.00  0.00    +0.213 C 
ATOM     15  O   UNL     1     -10.924  19.063  67.807  0.00  0.00    -0.218 OA
BRANCH  14  16
ATOM     16  C   UNL     1      -8.948  18.572  66.755  0.00  0.00    +0.125 C 
BRANCH  16  17
ATOM     17  N   UNL     1      -8.251  17.529  66.031  0.00  0.00    -0.218 NA
BRANCH  17  19
ATOM     18  C   UNL     1      -6.730  17.439  66.065  0.00  0.00    +0.017 C 
ATOM     19  C   UNL     1      -6.819  17.621  66.116  0.00  0.00    +0.060 C 
ATOM     20  C   UNL     1      -6.403  17.759  67.551  0.00  0.00    +0.017 C 
ATOM     21  C   UNL     1      -6.303  18.722  65.235  0.00  0.00    +0.017 C 
ENDBRANCH  17  19
ENDBRANCH  16  17
ENDBRANCH  14  16
ENDBRANCH  13  14
ENDBRANCH  12  13
ENDBRANCH   1  12
TORSDOF 6
ENDMDL
