MODEL 1
REMARK VINA RESULT:      -5.1      0.000      0.000
REMARK  Name = 
REMARK  2 active torsions:
REMARK  status: ('A' for Active; 'I' for Inactive)
REMARK    1  A    between atoms: C_2  and  C_3
REMARK    2  A    between atoms: C_3  and  C_5
REMARK                            x       y       z     vdW  Elec       q    Type
REMARK                         _______ _______ _______ _____ _____    ______ ____
ROOT
ATOM      1  C   UNL     1     -12.019  15.052  71.816  0.00  0.00    +0.013 A 
ATOM      2  C   UNL     1     -11.611  16.115  71.038  0.00  0.00    +0.044 A 
ATOM      3  C   UNL     1     -11.086  15.895  69.782  0.00  0.00    +0.234 A 
ATOM      4  O   UNL     1     -10.307  16.844  69.136  0.00  0.00    -0.283 OA
ATOM      5  C   UNL     1     -11.633  14.876  69.014  0.00  0.00    +0.234 A 
ATOM      6  O   UNL     1     -11.837  15.031  67.657  0.00  0.00    -0.283 OA
ATOM      7  C   UNL     1     -12.104  13.788  69.734  0.00  0.00    +0.045 A 
ATOM      8  C   UNL     1     -12.337  13.903  71.094  0.00  0.00    +0.002 A 
ENDROOT
BRANCH   1   9
ATOM      9  C   UNL     1     -13.344  15.437  72.740  0.00  0.00    +0.193 C 
ATOM     10  O   UNL     1     -13.744  13.940  72.850  0.00  0.00    -0.217 OA
BRANCH   9  12
ATOM     11  N   UNL     1     -12.603  16.370  74.529  0.00  0.00    -0.128 NA
ATOM     12  C   UNL     1     -12.455  15.340  74.173  0.00  0.00    +0.147 C 
ENDBRANCH   9  12
ENDBRANCH   1   9
TORSDOF 2
ENDMDL
MODEL 2
REMARK VINA RESULT:      -5.1      6.233      7.372
REMARK  Name = 
REMARK  2 active torsions:
REMARK  status: ('A' for Active; 'I' for Inactive)
REMARK    1  A    between atoms: C_2  and  C_3
REMARK    2  A    between atoms: C_3  and  C_5
REMARK                            x       y       z     vdW  Elec       q    Type
REMARK                         _______ _______ _______ _____ _____    ______ ____
ROOT
ATOM      1  C   UNL     1     -12.237  13.439  65.306  0.00  0.00    +0.013 A 
ATOM      2  C   UNL     1     -12.018  14.426  64.367  0.00  0.00    +0.044 A 
ATOM      3  C   UNL     1     -11.467  15.631  64.744  0.00  0.00    +0.234 A 
ATOM      4  O   UNL     1     -11.592  16.771  63.964  0.00  0.00    -0.283 OA
ATOM      5  C   UNL     1     -10.479  15.623  65.721  0.00  0.00    +0.234 A 
ATOM      6  O   UNL     1      -9.370  16.440  65.627  0.00  0.00    -0.283 OA
ATOM      7  C   UNL     1     -10.612  14.628  66.679  0.00  0.00    +0.045 A 
ATOM      8  C   UNL     1     -11.436  13.540  66.441  0.00  0.00    +0.002 A 
ENDROOT
BRANCH   1   9
ATOM      9  C   UNL     1     -12.006  11.922  64.672  0.00  0.00    +0.193 C 
ATOM     10  O   UNL     1     -12.990  12.221  63.508  0.00  0.00    -0.217 OA
BRANCH   9  12
ATOM     11  N   UNL     1     -10.445  11.481  63.261  0.00  0.00    -0.128 NA
ATOM     12  C   UNL     1     -10.694  12.439  63.741  0.00  0.00    +0.147 C 
ENDBRANCH   9  12
ENDBRANCH   1   9
TORSDOF 2
ENDMDL
MODEL 3
REMARK VINA RESULT:      -4.8      5.132      5.944
REMARK  Name = 
REMARK  2 active torsions:
REMARK  status: ('A' for Active; 'I' for Inactive)
REMARK    1  A    between atoms: C_2  and  C_3
REMARK    2  A    between atoms: C_3  and  C_5
REMARK                            x       y       z     vdW  Elec       q    Type
REMARK                         _______ _______ _______ _____ _____    ______ ____
ROOT
ATOM      1  C   UNL     1     -12.023  13.858  66.195  0.00  0.00    +0.013 A 
ATOM      2  C   UNL     1     -11.810  14.499  64.992  0.00  0.00    +0.044 A 
ATOM      3  C   UNL     1     -11.348  15.797  64.971  0.00  0.00    +0.234 A 
ATOM      4  O   UNL     1     -11.495  16.610  63.856  0.00  0.00    -0.283 OA
ATOM      5  C   UNL     1     -10.414  16.176  65.927  0.00  0.00    +0.234 A 
ATOM      6  O   UNL     1      -9.349  16.993  65.606  0.00  0.00    -0.283 OA
ATOM      7  C   UNL     1     -10.542  15.539  67.153  0.00  0.00    +0.045 A 
ATOM      8  C   UNL     1     -11.290  14.378  67.259  0.00  0.00    +0.002 A 
ENDROOT
BRANCH   1   9
ATOM      9  C   UNL     1     -11.674  12.237  66.101  0.00  0.00    +0.193 C 
ATOM     10  O   UNL     1     -10.150  12.533  66.072  0.00  0.00    -0.217 OA
BRANCH   9  12
ATOM     11  N   UNL     1     -11.880  11.004  67.850  0.00  0.00    -0.128 NA
ATOM     12  C   UNL     1     -11.646  12.078  67.782  0.00  0.00    +0.147 C 
ENDBRANCH   9  12
ENDBRANCH   1   9
TORSDOF 2
ENDMDL
MODEL 4
REMARK VINA RESULT:      -4.7      3.534      4.945
REMARK  Name = 
REMARK  2 active torsions:
REMARK  status: ('A' for Active; 'I' for Inactive)
REMARK    1  A    between atoms: C_2  and  C_3
REMARK    2  A    between atoms: C_3  and  C_5
REMARK                            x       y       z     vdW  Elec       q    Type
REMARK                         _______ _______ _______ _____ _____    ______ ____
ROOT
ATOM      1  C   UNL     1     -11.376  13.958  67.196  0.00  0.00    +0.013 A 
ATOM      2  C   UNL     1     -12.130  14.626  66.253  0.00  0.00    +0.044 A 
ATOM      3  C   UNL     1     -12.253  14.120  64.977  0.00  0.00    +0.234 A 
ATOM      4  O   UNL     1     -12.640  14.914  63.907  0.00  0.00    -0.283 OA
ATOM      5  C   UNL     1     -12.344  12.743  64.825  0.00  0.00    +0.234 A 
ATOM      6  O   UNL     1     -13.208  12.177  63.909  0.00  0.00    -0.283 OA
ATOM      7  C   UNL     1     -11.642  12.002  65.765  0.00  0.00    +0.045 A 
ATOM      8  C   UNL     1     -11.220  12.597  66.943  0.00  0.00    +0.002 A 
ENDROOT
BRANCH   1   9
ATOM      9  C   UNL     1     -12.020  14.106  68.719  0.00  0.00    +0.193 C 
ATOM     10  O   UNL     1     -10.629  13.867  69.367  0.00  0.00    -0.217 OA
BRANCH   9  12
ATOM     11  N   UNL     1     -12.102  15.985  69.761  0.00  0.00    -0.128 NA
ATOM     12  C   UNL     1     -11.776  15.778  68.731  0.00  0.00    +0.147 C 
ENDBRANCH   9  12
ENDBRANCH   1   9
TORSDOF 2
ENDMDL
MODEL 5
REMARK VINA RESULT:      -4.7      5.076      6.586
REMARK  Name = 
REMARK  2 active torsions:
REMARK  status: ('A' for Active; 'I' for Inactive)
REMARK    1  A    between atoms: C_2  and  C_3
REMARK    2  A    between atoms: C_3  and  C_5
REMARK                            x       y       z     vdW  Elec       q    Type
REMARK                         _______ _______ _______ _____ _____    ______ ____
ROOT
ATOM      1  C   UNL     1     -11.564  14.343  65.448  0.00  0.00    +0.013 A 
ATOM      2  C   UNL     1     -10.562  15.258  65.203  0.00  0.00    +0.044 A 
ATOM      3  C   UNL     1     -10.342  16.299  66.079  0.00  0.00    +0.234 A 
ATOM      4  O   UNL     1      -9.653  17.443  65.703  0.00  0.00    -0.283 OA
ATOM      5  C   UNL     1     -10.491  16.053  67.438  0.00  0.00    +0.234 A 
ATOM      6  O   UNL     1      -9.619  16.589  68.364  0.00  0.00    -0.283 OA
ATOM      7  C   UNL     1     -11.457  15.109  67.759  0.00  0.00    +0.045 A 
ATOM      8  C   UNL     1     -11.934  14.246  66.788  0.00  0.00    +0.002 A 
ENDROOT
BRANCH   1   9
ATOM      9  C   UNL     1     -11.145  12.819  64.940  0.00  0.00    +0.193 C 
ATOM     10  O   UNL     1     -12.342  12.196  65.710  0.00  0.00    -0.217 OA
BRANCH   9  12
ATOM     11  N   UNL     1     -12.918  12.315  63.833  0.00  0.00    -0.128 NA
ATOM     12  C   UNL     1     -12.076  12.959  63.538  0.00  0.00    +0.147 C 
ENDBRANCH   9  12
ENDBRANCH   1   9
TORSDOF 2
ENDMDL
MODEL 6
REMARK VINA RESULT:      -4.6      2.921      4.934
REMARK  Name = 
REMARK  2 active torsions:
REMARK  status: ('A' for Active; 'I' for Inactive)
REMARK    1  A    between atoms: C_2  and  C_3
REMARK    2  A    between atoms: C_3  and  C_5
REMARK                            x       y       z     vdW  Elec       q    Type
REMARK                         _______ _______ _______ _____ _____    ______ ____
ROOT
ATOM      1  C   UNL     1     -11.638  13.853  69.960  0.00  0.00    +0.013 A 
ATOM      2  C   UNL     1     -12.702  13.284  70.628  0.00  0.00    +0.044 A 
ATOM      3  C   UNL     1     -13.226  13.894  71.748  0.00  0.00    +0.234 A 
ATOM      4  O   UNL     1     -13.996  13.199  72.670  0.00  0.00    -0.283 OA
ATOM      5  C   UNL     1     -13.290  15.281  71.768  0.00  0.00    +0.234 A 
ATOM      6  O   UNL     1     -14.383  15.942  72.291  0.00  0.00    -0.283 OA
ATOM      7  C   UNL     1     -12.271  15.924  71.079  0.00  0.00    +0.045 A 
ATOM      8  C   UNL     1     -11.505  15.226  70.161  0.00  0.00    +0.002 A 
ENDROOT
BRANCH   1   9
ATOM      9  C   UNL     1     -11.731  13.600  68.322  0.00  0.00    +0.193 C 
ATOM     10  O   UNL     1     -10.183  13.613  68.198  0.00  0.00    -0.217 OA
BRANCH   9  12
ATOM     11  N   UNL     1     -11.901  11.636  67.465  0.00  0.00    -0.128 NA
ATOM     12  C   UNL     1     -11.737  11.922  68.515  0.00  0.00    +0.147 C 
ENDBRANCH   9  12
ENDBRANCH   1   9
TORSDOF 2
ENDMDL
MODEL 7
REMARK VINA RESULT:      -4.6      4.789      6.306
REMARK  Name = 
REMARK  2 active torsions:
REMARK  status: ('A' for Active; 'I' for Inactive)
REMARK    1  A    between atoms: C_2  and  C_3
REMARK    2  A    between atoms: C_3  and  C_5
REMARK                            x       y       z     vdW  Elec       q    Type
REMARK                         _______ _______ _______ _____ _____    ______ ____
ROOT
ATOM      1  C   UNL     1     -11.636  14.927  65.745  0.00  0.00    +0.013 A 
ATOM      2  C   UNL     1     -11.384  14.594  67.060  0.00  0.00    +0.044 A 
ATOM      3  C   UNL     1     -11.862  13.410  67.580  0.00  0.00    +0.234 A 
ATOM      4  O   UNL     1     -11.994  13.209  68.947  0.00  0.00    -0.283 OA
ATOM      5  C   UNL     1     -11.870  12.290  66.759  0.00  0.00    +0.234 A 
ATOM      6  O   UNL     1     -11.525  11.044  67.242  0.00  0.00    -0.283 OA
ATOM      7  C   UNL     1     -12.078  12.553  65.412  0.00  0.00    +0.045 A 
ATOM      8  C   UNL     1     -11.909  13.837  64.922  0.00  0.00    +0.002 A 
ENDROOT
BRANCH   1   9
ATOM      9  C   UNL     1     -10.368  15.754  65.065  0.00  0.00    +0.193 C 
ATOM     10  O   UNL     1     -11.344  16.675  64.283  0.00  0.00    -0.217 OA
BRANCH   9  12
ATOM     11  N   UNL     1      -9.968  17.737  65.793  0.00  0.00    -0.128 NA
ATOM     12  C   UNL     1     -10.307  16.850  66.349  0.00  0.00    +0.147 C 
ENDBRANCH   9  12
ENDBRANCH   1   9
TORSDOF 2
ENDMDL
MODEL 8
REMARK VINA RESULT:      -4.6      4.842      6.442
REMARK  Name = 
REMARK  2 active torsions:
REMARK  status: ('A' for Active; 'I' for Inactive)
REMARK    1  A    between atoms: C_2  and  C_3
REMARK    2  A    between atoms: C_3  and  C_5
REMARK                            x       y       z     vdW  Elec       q    Type
REMARK                         _______ _______ _______ _____ _____    ______ ____
ROOT
ATOM      1  C   UNL     1     -11.411  14.401  66.048  0.00  0.00    +0.013 A 
ATOM      2  C   UNL     1     -11.546  14.597  67.407  0.00  0.00    +0.044 A 
ATOM      3  C   UNL     1     -10.808  15.571  68.045  0.00  0.00    +0.234 A 
ATOM      4  O   UNL     1     -10.595  15.551  69.415  0.00  0.00    -0.283 OA
ATOM      5  C   UNL     1     -10.583  16.766  67.374  0.00  0.00    +0.234 A 
ATOM      6  O   UNL     1     -10.636  17.979  68.031  0.00  0.00    -0.283 OA
ATOM      7  C   UNL     1     -10.478  16.652  65.994  0.00  0.00    +0.045 A 
ATOM      8  C   UNL     1     -10.933  15.512  65.355  0.00  0.00    +0.002 A 
ENDROOT
BRANCH   1   9
ATOM      9  C   UNL     1     -12.848  13.960  65.343  0.00  0.00    +0.193 C 
ATOM     10  O   UNL     1     -12.478  14.715  64.038  0.00  0.00    -0.217 OA
BRANCH   9  12
ATOM     11  N   UNL     1     -12.842  12.398  63.866  0.00  0.00    -0.128 NA
ATOM     12  C   UNL     1     -12.187  12.526  64.741  0.00  0.00    +0.147 C 
ENDBRANCH   9  12
ENDBRANCH   1   9
TORSDOF 2
ENDMDL
MODEL 9
REMARK VINA RESULT:      -4.6      4.407      5.486
REMARK  Name = 
REMARK  2 active torsions:
REMARK  status: ('A' for Active; 'I' for Inactive)
REMARK    1  A    between atoms: C_2  and  C_3
REMARK    2  A    between atoms: C_3  and  C_5
REMARK                            x       y       z     vdW  Elec       q    Type
REMARK                         _______ _______ _______ _____ _____    ______ ____
ROOT
ATOM      1  C   UNL     1      -9.382  15.617  66.559  0.00  0.00    +0.013 A 
ATOM      2  C   UNL     1     -10.288  16.392  65.864  0.00  0.00    +0.044 A 
ATOM      3  C   UNL     1     -11.018  15.846  64.830  0.00  0.00    +0.234 A 
ATOM      4  O   UNL     1     -11.620  16.636  63.861  0.00  0.00    -0.283 OA
ATOM      5  C   UNL     1     -11.456  14.535  64.958  0.00  0.00    +0.234 A 
ATOM      6  O   UNL     1     -12.715  14.154  64.537  0.00  0.00    -0.283 OA
ATOM      7  C   UNL     1     -10.613  13.704  65.682  0.00  0.00    +0.045 A 
ATOM      8  C   UNL     1      -9.637  14.248  66.501  0.00  0.00    +0.002 A 
ENDROOT
BRANCH   1   9
ATOM      9  C   UNL     1      -9.312  16.038  68.163  0.00  0.00    +0.193 C 
ATOM     10  O   UNL     1      -8.912  17.494  67.798  0.00  0.00    -0.217 OA
BRANCH   9  12
ATOM     11  N   UNL     1     -11.054  16.639  69.272  0.00  0.00    -0.128 NA
ATOM     12  C   UNL     1     -10.948  16.460  68.191  0.00  0.00    +0.147 C 
ENDBRANCH   9  12
ENDBRANCH   1   9
TORSDOF 2
ENDMDL
