MODEL 1
REMARK VINA RESULT:      -5.1      0.000      0.000
REMARK  Name = 
REMARK  2 active torsions:
REMARK  status: ('A' for Active; 'I' for Inactive)
REMARK    1  A    between atoms: C_2  and  C_3
REMARK    2  A    between atoms: C_3  and  C_4
REMARK                            x       y       z     vdW  Elec       q    Type
REMARK                         _______ _______ _______ _____ _____    ______ ____
ROOT
ATOM      1  C   UNL     1     -11.463  13.979  66.976  0.00  0.00    -0.017 A 
ATOM      2  C   UNL     1     -12.284  13.722  65.894  0.00  0.00    +0.041 A 
ATOM      3  C   UNL     1     -11.998  14.400  64.721  0.00  0.00    +0.234 A 
ATOM      4  O   UNL     1     -12.642  14.092  63.519  0.00  0.00    -0.283 OA
ATOM      5  C   UNL     1     -11.195  15.534  64.697  0.00  0.00    +0.234 A 
ATOM      6  O   UNL     1     -11.562  16.656  63.949  0.00  0.00    -0.283 OA
ATOM      7  C   UNL     1     -10.289  15.687  65.736  0.00  0.00    +0.045 A 
ATOM      8  C   UNL     1     -10.430  14.899  66.871  0.00  0.00    -0.001 A 
ENDROOT
BRANCH   1   9
ATOM      9  C   UNL     1     -11.950  13.530  68.304  0.00  0.00    +0.047 C 
BRANCH   9  11
ATOM     10  N   UNL     1     -12.067  11.118  68.371  0.00  0.00    -0.131 NA
ATOM     11  C   UNL     1     -11.248  12.259  68.750  0.00  0.00    +0.114 C 
ENDBRANCH   9  11
ENDBRANCH   1   9
TORSDOF 2
ENDMDL
MODEL 2
REMARK VINA RESULT:      -5.0      1.665      1.767
REMARK  Name = 
REMARK  2 active torsions:
REMARK  status: ('A' for Active; 'I' for Inactive)
REMARK    1  A    between atoms: C_2  and  C_3
REMARK    2  A    between atoms: C_3  and  C_4
REMARK                            x       y       z     vdW  Elec       q    Type
REMARK                         _______ _______ _______ _____ _____    ______ ____
ROOT
ATOM      1  C   UNL     1     -11.476  14.338  67.192  0.00  0.00    -0.017 A 
ATOM      2  C   UNL     1     -12.285  13.961  66.135  0.00  0.00    +0.041 A 
ATOM      3  C   UNL     1     -11.986  14.509  64.899  0.00  0.00    +0.234 A 
ATOM      4  O   UNL     1     -12.616  14.069  63.731  0.00  0.00    -0.283 OA
ATOM      5  C   UNL     1     -11.187  15.637  64.761  0.00  0.00    +0.234 A 
ATOM      6  O   UNL     1     -11.548  16.670  63.892  0.00  0.00    -0.283 OA
ATOM      7  C   UNL     1     -10.293  15.905  65.788  0.00  0.00    +0.045 A 
ATOM      8  C   UNL     1     -10.446  15.244  66.999  0.00  0.00    -0.001 A 
ENDROOT
BRANCH   1   9
ATOM      9  C   UNL     1     -11.978  14.033  68.555  0.00  0.00    +0.047 C 
BRANCH   9  11
ATOM     10  N   UNL     1     -12.348  15.867  70.084  0.00  0.00    -0.131 NA
ATOM     11  C   UNL     1     -11.341  14.937  69.595  0.00  0.00    +0.114 C 
ENDBRANCH   9  11
ENDBRANCH   1   9
TORSDOF 2
ENDMDL
MODEL 3
REMARK VINA RESULT:      -4.7      4.732      5.877
REMARK  Name = 
REMARK  2 active torsions:
REMARK  status: ('A' for Active; 'I' for Inactive)
REMARK    1  A    between atoms: C_2  and  C_3
REMARK    2  A    between atoms: C_3  and  C_4
REMARK                            x       y       z     vdW  Elec       q    Type
REMARK                         _______ _______ _______ _____ _____    ______ ____
ROOT
ATOM      1  C   UNL     1     -12.412  12.506  70.905  0.00  0.00    -0.017 A 
ATOM      2  C   UNL     1     -12.175  13.666  70.190  0.00  0.00    +0.041 A 
ATOM      3  C   UNL     1     -12.767  14.823  70.670  0.00  0.00    +0.234 A 
ATOM      4  O   UNL     1     -12.458  16.079  70.140  0.00  0.00    -0.283 OA
ATOM      5  C   UNL     1     -13.822  14.796  71.574  0.00  0.00    +0.234 A 
ATOM      6  O   UNL     1     -14.934  15.625  71.401  0.00  0.00    -0.283 OA
ATOM      7  C   UNL     1     -13.945  13.664  72.367  0.00  0.00    +0.045 A 
ATOM      8  C   UNL     1     -13.229  12.525  72.024  0.00  0.00    -0.001 A 
ENDROOT
BRANCH   1   9
ATOM      9  C   UNL     1     -12.073  11.228  70.230  0.00  0.00    +0.047 C 
BRANCH   9  11
ATOM     10  N   UNL     1     -11.520   9.303  71.582  0.00  0.00    -0.131 NA
ATOM     11  C   UNL     1     -12.628  10.037  70.989  0.00  0.00    +0.114 C 
ENDBRANCH   9  11
ENDBRANCH   1   9
TORSDOF 2
ENDMDL
MODEL 4
REMARK VINA RESULT:      -4.7      4.416      5.544
REMARK  Name = 
REMARK  2 active torsions:
REMARK  status: ('A' for Active; 'I' for Inactive)
REMARK    1  A    between atoms: C_2  and  C_3
REMARK    2  A    between atoms: C_3  and  C_4
REMARK                            x       y       z     vdW  Elec       q    Type
REMARK                         _______ _______ _______ _____ _____    ______ ____
ROOT
ATOM      1  C   UNL     1     -12.835  14.446  71.498  0.00  0.00    -0.017 A 
ATOM      2  C   UNL     1     -12.480  15.627  70.873  0.00  0.00    +0.041 A 
ATOM      3  C   UNL     1     -11.892  15.517  69.624  0.00  0.00    +0.234 A 
ATOM      4  O   UNL     1     -11.656  16.638  68.824  0.00  0.00    -0.283 OA
ATOM      5  C   UNL     1     -11.343  14.325  69.166  0.00  0.00    +0.234 A 
ATOM      6  O   UNL     1     -10.101  14.309  68.524  0.00  0.00    -0.283 OA
ATOM      7  C   UNL     1     -11.824  13.152  69.728  0.00  0.00    +0.045 A 
ATOM      8  C   UNL     1     -12.574  13.225  70.894  0.00  0.00    -0.001 A 
ENDROOT
BRANCH   1   9
ATOM      9  C   UNL     1     -13.148  14.527  72.947  0.00  0.00    +0.047 C 
BRANCH   9  11
ATOM     10  N   UNL     1     -12.490  16.000  74.745  0.00  0.00    -0.131 NA
ATOM     11  C   UNL     1     -13.129  15.963  73.438  0.00  0.00    +0.114 C 
ENDBRANCH   9  11
ENDBRANCH   1   9
TORSDOF 2
ENDMDL
MODEL 5
REMARK VINA RESULT:      -4.6      4.796      6.207
REMARK  Name = 
REMARK  2 active torsions:
REMARK  status: ('A' for Active; 'I' for Inactive)
REMARK    1  A    between atoms: C_2  and  C_3
REMARK    2  A    between atoms: C_3  and  C_4
REMARK                            x       y       z     vdW  Elec       q    Type
REMARK                         _______ _______ _______ _____ _____    ______ ____
ROOT
ATOM      1  C   UNL     1     -13.047  13.550  71.589  0.00  0.00    -0.017 A 
ATOM      2  C   UNL     1     -13.146  12.192  71.831  0.00  0.00    +0.041 A 
ATOM      3  C   UNL     1     -12.460  11.355  70.968  0.00  0.00    +0.234 A 
ATOM      4  O   UNL     1     -12.340   9.985  71.217  0.00  0.00    -0.283 OA
ATOM      5  C   UNL     1     -12.005  11.782  69.726  0.00  0.00    +0.234 A 
ATOM      6  O   UNL     1     -12.172  10.985  68.590  0.00  0.00    -0.283 OA
ATOM      7  C   UNL     1     -11.791  13.143  69.567  0.00  0.00    +0.045 A 
ATOM      8  C   UNL     1     -12.314  14.019  70.509  0.00  0.00    -0.001 A 
ENDROOT
BRANCH   1   9
ATOM      9  C   UNL     1     -14.026  14.424  72.281  0.00  0.00    +0.047 C 
BRANCH   9  11
ATOM     10  N   UNL     1     -12.452  15.160  73.960  0.00  0.00    -0.131 NA
ATOM     11  C   UNL     1     -13.347  15.627  72.912  0.00  0.00    +0.114 C 
ENDBRANCH   9  11
ENDBRANCH   1   9
TORSDOF 2
ENDMDL
MODEL 6
REMARK VINA RESULT:      -4.5      3.104      4.355
REMARK  Name = 
REMARK  2 active torsions:
REMARK  status: ('A' for Active; 'I' for Inactive)
REMARK    1  A    between atoms: C_2  and  C_3
REMARK    2  A    between atoms: C_3  and  C_4
REMARK                            x       y       z     vdW  Elec       q    Type
REMARK                         _______ _______ _______ _____ _____    ______ ____
ROOT
ATOM      1  C   UNL     1     -11.575  13.302  68.006  0.00  0.00    -0.017 A 
ATOM      2  C   UNL     1     -11.506  14.654  67.723  0.00  0.00    +0.041 A 
ATOM      3  C   UNL     1     -11.637  15.520  68.796  0.00  0.00    +0.234 A 
ATOM      4  O   UNL     1     -11.408  16.893  68.662  0.00  0.00    -0.283 OA
ATOM      5  C   UNL     1     -12.171  15.117  70.014  0.00  0.00    +0.234 A 
ATOM      6  O   UNL     1     -13.102  15.913  70.687  0.00  0.00    -0.283 OA
ATOM      7  C   UNL     1     -12.100  13.765  70.317  0.00  0.00    +0.045 A 
ATOM      8  C   UNL     1     -11.796  12.866  69.303  0.00  0.00    -0.001 A 
ENDROOT
BRANCH   1   9
ATOM      9  C   UNL     1     -11.772  12.390  66.852  0.00  0.00    +0.047 C 
BRANCH   9  11
ATOM     10  N   UNL     1     -13.033  12.643  64.806  0.00  0.00    -0.131 NA
ATOM     11  C   UNL     1     -11.894  13.162  65.550  0.00  0.00    +0.114 C 
ENDBRANCH   9  11
ENDBRANCH   1   9
TORSDOF 2
ENDMDL
MODEL 7
REMARK VINA RESULT:      -4.5      4.573      5.403
REMARK  Name = 
REMARK  2 active torsions:
REMARK  status: ('A' for Active; 'I' for Inactive)
REMARK    1  A    between atoms: C_2  and  C_3
REMARK    2  A    between atoms: C_3  and  C_4
REMARK                            x       y       z     vdW  Elec       q    Type
REMARK                         _______ _______ _______ _____ _____    ______ ____
ROOT
ATOM      1  C   UNL     1     -12.415  15.019  71.571  0.00  0.00    -0.017 A 
ATOM      2  C   UNL     1     -12.518  13.720  71.106  0.00  0.00    +0.041 A 
ATOM      3  C   UNL     1     -12.009  13.470  69.843  0.00  0.00    +0.234 A 
ATOM      4  O   UNL     1     -11.895  12.170  69.342  0.00  0.00    -0.283 OA
ATOM      5  C   UNL     1     -11.749  14.488  68.933  0.00  0.00    +0.234 A 
ATOM      6  O   UNL     1     -12.125  14.364  67.593  0.00  0.00    -0.283 OA
ATOM      7  C   UNL     1     -11.520  15.754  69.452  0.00  0.00    +0.045 A 
ATOM      8  C   UNL     1     -11.853  16.006  70.776  0.00  0.00    -0.001 A 
ENDROOT
BRANCH   1   9
ATOM      9  C   UNL     1     -13.240  15.370  72.753  0.00  0.00    +0.047 C 
BRANCH   9  11
ATOM     10  N   UNL     1     -12.532  16.539  74.746  0.00  0.00    -0.131 NA
ATOM     11  C   UNL     1     -12.437  15.271  74.038  0.00  0.00    +0.114 C 
ENDBRANCH   9  11
ENDBRANCH   1   9
TORSDOF 2
ENDMDL
MODEL 8
REMARK VINA RESULT:      -4.5      2.832      4.017
REMARK  Name = 
REMARK  2 active torsions:
REMARK  status: ('A' for Active; 'I' for Inactive)
REMARK    1  A    between atoms: C_2  and  C_3
REMARK    2  A    between atoms: C_3  and  C_4
REMARK                            x       y       z     vdW  Elec       q    Type
REMARK                         _______ _______ _______ _____ _____    ______ ____
ROOT
ATOM      1  C   UNL     1     -10.538  15.840  66.135  0.00  0.00    -0.017 A 
ATOM      2  C   UNL     1     -10.965  15.461  64.875  0.00  0.00    +0.041 A 
ATOM      3  C   UNL     1     -11.943  14.482  64.819  0.00  0.00    +0.234 A 
ATOM      4  O   UNL     1     -12.576  14.147  63.619  0.00  0.00    -0.283 OA
ATOM      5  C   UNL     1     -12.228  13.656  65.899  0.00  0.00    +0.234 A 
ATOM      6  O   UNL     1     -12.409  12.282  65.721  0.00  0.00    -0.283 OA
ATOM      7  C   UNL     1     -11.903  14.133  67.161  0.00  0.00    +0.045 A 
ATOM      8  C   UNL     1     -11.060  15.231  67.266  0.00  0.00    -0.001 A 
ENDROOT
BRANCH   1   9
ATOM      9  C   UNL     1      -9.281  16.625  66.204  0.00  0.00    +0.047 C 
BRANCH   9  11
ATOM     10  N   UNL     1     -10.169  18.852  65.903  0.00  0.00    -0.131 NA
ATOM     11  C   UNL     1      -9.506  17.976  66.858  0.00  0.00    +0.114 C 
ENDBRANCH   9  11
ENDBRANCH   1   9
TORSDOF 2
ENDMDL
MODEL 9
REMARK VINA RESULT:      -4.5      1.981      2.966
REMARK  Name = 
REMARK  2 active torsions:
REMARK  status: ('A' for Active; 'I' for Inactive)
REMARK    1  A    between atoms: C_2  and  C_3
REMARK    2  A    between atoms: C_3  and  C_4
REMARK                            x       y       z     vdW  Elec       q    Type
REMARK                         _______ _______ _______ _____ _____    ______ ____
ROOT
ATOM      1  C   UNL     1     -10.022  14.611  66.494  0.00  0.00    -0.017 A 
ATOM      2  C   UNL     1     -10.142  15.583  65.518  0.00  0.00    +0.041 A 
ATOM      3  C   UNL     1     -11.302  15.564  64.762  0.00  0.00    +0.234 A 
ATOM      4  O   UNL     1     -11.616  16.596  63.873  0.00  0.00    -0.283 OA
ATOM      5  C   UNL     1     -12.130  14.449  64.703  0.00  0.00    +0.234 A 
ATOM      6  O   UNL     1     -12.650  14.006  63.483  0.00  0.00    -0.283 OA
ATOM      7  C   UNL     1     -12.074  13.564  65.770  0.00  0.00    +0.045 A 
ATOM      8  C   UNL     1     -11.015  13.658  66.663  0.00  0.00    -0.001 A 
ENDROOT
BRANCH   1   9
ATOM      9  C   UNL     1      -8.669  14.412  67.072  0.00  0.00    +0.047 C 
BRANCH   9  11
ATOM     10  N   UNL     1      -8.939  15.807  69.026  0.00  0.00    -0.131 NA
ATOM     11  C   UNL     1      -8.706  14.439  68.589  0.00  0.00    +0.114 C 
ENDBRANCH   9  11
ENDBRANCH   1   9
TORSDOF 2
ENDMDL
