MODEL 1
REMARK VINA RESULT:      -6.7      0.000      0.000
REMARK  Name = 
REMARK  7 active torsions:
REMARK  status: ('A' for Active; 'I' for Inactive)
REMARK    1  A    between atoms: C_10  and  C_11
REMARK    2  A    between atoms: C_11  and  C_12
REMARK    3  A    between atoms: C_12  and  N_13
REMARK    4  A    between atoms: N_13  and  C_14
REMARK    5  A    between atoms: C_14  and  C_15
REMARK    6  A    between atoms: C_18  and  C_19
REMARK    7  A    between atoms: C_20  and  C_21
REMARK                            x       y       z     vdW  Elec       q    Type
REMARK                         _______ _______ _______ _____ _____    ______ ____
ROOT
ATOM      1  N   UNL     1     -10.581  16.096  68.599  0.00  0.00    -0.213 NA
ENDROOT
BRANCH   1   2
ATOM      2  C   UNL     1     -11.788  15.854  69.382  0.00  0.00    +0.094 C 
BRANCH   2   3
ATOM      3  C   UNL     1     -11.325  15.354  70.743  0.00  0.00    +0.046 C 
BRANCH   3   6
ATOM      4  C   UNL     1     -13.335  15.782  73.124  0.00  0.00    +0.052 C 
ATOM      5  C   UNL     1     -12.979  14.498  72.477  0.00  0.00    +0.055 A 
ATOM      6  C   UNL     1     -12.382  14.417  71.235  0.00  0.00    -0.006 A 
ATOM      7  C   UNL     1     -12.428  13.093  70.876  0.00  0.00    +0.015 A 
ATOM      8  C   UNL     1     -13.287  12.435  71.736  0.00  0.00    +0.081 A 
ATOM      9  C   UNL     1     -13.249  11.049  71.827  0.00  0.00    +0.019 A 
ATOM     10  C   UNL     1     -12.322  10.331  71.120  0.00  0.00    +0.002 A 
ATOM     11  C   UNL     1     -11.737  10.930  70.014  0.00  0.00    +0.000 A 
ATOM     12  C   UNL     1     -11.749  12.318  69.956  0.00  0.00    +0.001 A 
ATOM     13  N   UNL     1     -13.727  13.379  72.585  0.00  0.00    -0.250 NA
ENDBRANCH   3   6
ENDBRANCH   2   3
ENDBRANCH   1   2
BRANCH   1  14
ATOM     14  C   UNL     1     -10.949  16.034  67.191  0.00  0.00    +0.115 C 
BRANCH  14  15
ATOM     15  C   UNL     1     -10.692  14.684  66.622  0.00  0.00    -0.005 A 
ATOM     16  C   UNL     1     -11.729  13.801  66.392  0.00  0.00    -0.003 A 
ATOM     17  C   UNL     1     -11.573  12.425  66.481  0.00  0.00    -0.000 A 
ATOM     18  C   UNL     1     -10.319  11.892  66.616  0.00  0.00    +0.000 A 
ATOM     19  C   UNL     1      -9.259  12.759  66.847  0.00  0.00    -0.000 A 
ATOM     20  C   UNL     1      -9.455  14.119  66.888  0.00  0.00    -0.003 A 
BRANCH  18  21
ATOM     21  C   UNL     1      -9.989  10.496  66.424  0.00  0.00    +0.002 C 
ATOM     22  C   UNL     1     -10.174   9.923  65.258  0.00  0.00    +0.025 C 
BRANCH  22  23
ATOM     23  C   UNL     1      -9.977  10.727  64.047  0.00  0.00    +0.110 C 
ATOM     24  N   UNL     1      -8.859  10.497  63.179  0.00  0.00    -0.198 NA
ATOM     25  O   UNL     1      -8.532  11.507  62.329  0.00  0.00    -0.402 OA
ATOM     26  O   UNL     1     -11.044  11.080  63.459  0.00  0.00    -0.536 OA
ENDBRANCH  22  23
ENDBRANCH  18  21
ENDBRANCH  14  15
ENDBRANCH   1  14
TORSDOF 7
ENDMDL
MODEL 2
REMARK VINA RESULT:      -6.5      3.145      5.405
REMARK  Name = 
REMARK  7 active torsions:
REMARK  status: ('A' for Active; 'I' for Inactive)
REMARK    1  A    between atoms: C_10  and  C_11
REMARK    2  A    between atoms: C_11  and  C_12
REMARK    3  A    between atoms: C_12  and  N_13
REMARK    4  A    between atoms: N_13  and  C_14
REMARK    5  A    between atoms: C_14  and  C_15
REMARK    6  A    between atoms: C_18  and  C_19
REMARK    7  A    between atoms: C_20  and  C_21
REMARK                            x       y       z     vdW  Elec       q    Type
REMARK                         _______ _______ _______ _____ _____    ______ ____
ROOT
ATOM      1  N   UNL     1      -9.540  11.817  67.731  0.00  0.00    -0.213 NA
ENDROOT
BRANCH   1   2
ATOM      2  C   UNL     1     -10.206  11.093  68.809  0.00  0.00    +0.094 C 
BRANCH   2   3
ATOM      3  C   UNL     1     -11.674  11.494  68.755  0.00  0.00    +0.046 C 
BRANCH   3   6
ATOM      4  C   UNL     1     -12.737   9.516  70.956  0.00  0.00    +0.052 C 
ATOM      5  C   UNL     1     -12.861  10.991  70.948  0.00  0.00    +0.055 A 
ATOM      6  C   UNL     1     -12.081  11.811  70.158  0.00  0.00    -0.006 A 
ATOM      7  C   UNL     1     -12.312  13.092  70.594  0.00  0.00    +0.015 A 
ATOM      8  C   UNL     1     -12.984  13.031  71.800  0.00  0.00    +0.081 A 
ATOM      9  C   UNL     1     -13.648  14.152  72.282  0.00  0.00    +0.019 A 
ATOM     10  C   UNL     1     -13.698  15.302  71.541  0.00  0.00    +0.002 A 
ATOM     11  C   UNL     1     -12.744  15.482  70.549  0.00  0.00    +0.000 A 
ATOM     12  C   UNL     1     -12.118  14.347  70.050  0.00  0.00    +0.001 A 
ATOM     13  N   UNL     1     -13.138  11.719  72.051  0.00  0.00    -0.250 NA
ENDBRANCH   3   6
ENDBRANCH   2   3
ENDBRANCH   1   2
BRANCH   1  14
ATOM     14  C   UNL     1      -8.500  12.641  68.331  0.00  0.00    +0.115 C 
BRANCH  14  15
ATOM     15  C   UNL     1      -8.716  14.084  68.038  0.00  0.00    -0.005 A 
ATOM     16  C   UNL     1      -8.476  15.047  69.000  0.00  0.00    -0.003 A 
ATOM     17  C   UNL     1      -9.192  16.233  69.063  0.00  0.00    -0.000 A 
ATOM     18  C   UNL     1     -10.041  16.569  68.042  0.00  0.00    +0.000 A 
ATOM     19  C   UNL     1     -10.297  15.619  67.062  0.00  0.00    -0.000 A 
ATOM     20  C   UNL     1      -9.676  14.393  67.088  0.00  0.00    -0.003 A 
BRANCH  18  21
ATOM     21  C   UNL     1     -10.610  17.884  67.838  0.00  0.00    +0.002 C 
ATOM     22  C   UNL     1      -9.839  18.945  67.809  0.00  0.00    +0.025 C 
BRANCH  22  23
ATOM     23  C   UNL     1      -8.492  18.813  67.242  0.00  0.00    +0.110 C 
ATOM     24  N   UNL     1      -8.285  18.781  65.824  0.00  0.00    -0.198 NA
ATOM     25  O   UNL     1      -7.101  18.268  65.394  0.00  0.00    -0.402 OA
ATOM     26  O   UNL     1      -7.575  19.391  67.900  0.00  0.00    -0.536 OA
ENDBRANCH  22  23
ENDBRANCH  18  21
ENDBRANCH  14  15
ENDBRANCH   1  14
TORSDOF 7
ENDMDL
MODEL 3
REMARK VINA RESULT:      -6.5      5.208      7.284
REMARK  Name = 
REMARK  7 active torsions:
REMARK  status: ('A' for Active; 'I' for Inactive)
REMARK    1  A    between atoms: C_10  and  C_11
REMARK    2  A    between atoms: C_11  and  C_12
REMARK    3  A    between atoms: C_12  and  N_13
REMARK    4  A    between atoms: N_13  and  C_14
REMARK    5  A    between atoms: C_14  and  C_15
REMARK    6  A    between atoms: C_18  and  C_19
REMARK    7  A    between atoms: C_20  and  C_21
REMARK                            x       y       z     vdW  Elec       q    Type
REMARK                         _______ _______ _______ _____ _____    ______ ____
ROOT
ATOM      1  N   UNL     1     -10.626  17.671  68.341  0.00  0.00    -0.213 NA
ENDROOT
BRANCH   1   2
ATOM      2  C   UNL     1     -11.238  16.348  68.410  0.00  0.00    +0.094 C 
BRANCH   2   3
ATOM      3  C   UNL     1     -10.237  15.447  69.120  0.00  0.00    +0.046 C 
BRANCH   3   6
ATOM      4  C   UNL     1     -11.218  12.619  68.155  0.00  0.00    +0.052 C 
ATOM      5  C   UNL     1     -11.731  13.395  69.307  0.00  0.00    +0.055 A 
ATOM      6  C   UNL     1     -11.037  14.440  69.884  0.00  0.00    -0.006 A 
ATOM      7  C   UNL     1     -11.702  14.745  71.045  0.00  0.00    +0.015 A 
ATOM      8  C   UNL     1     -12.600  13.729  71.315  0.00  0.00    +0.081 A 
ATOM      9  C   UNL     1     -13.636  13.942  72.215  0.00  0.00    +0.019 A 
ATOM     10  C   UNL     1     -13.818  15.171  72.789  0.00  0.00    +0.002 A 
ATOM     11  C   UNL     1     -12.740  16.046  72.813  0.00  0.00    +0.000 A 
ATOM     12  C   UNL     1     -11.731  15.844  71.881  0.00  0.00    +0.001 A 
ATOM     13  N   UNL     1     -12.449  12.848  70.312  0.00  0.00    -0.250 NA
ENDBRANCH   3   6
ENDBRANCH   2   3
ENDBRANCH   1   2
BRANCH   1  14
ATOM     14  C   UNL     1     -10.164  17.871  66.974  0.00  0.00    +0.115 C 
BRANCH  14  15
ATOM     15  C   UNL     1      -8.821  18.512  66.945  0.00  0.00    -0.005 A 
ATOM     16  C   UNL     1      -7.687  17.797  67.281  0.00  0.00    -0.003 A 
ATOM     17  C   UNL     1      -6.580  18.388  67.873  0.00  0.00    -0.000 A 
ATOM     18  C   UNL     1      -6.508  19.753  67.968  0.00  0.00    +0.000 A 
ATOM     19  C   UNL     1      -7.635  20.494  67.634  0.00  0.00    -0.000 A 
ATOM     20  C   UNL     1      -8.774  19.878  67.173  0.00  0.00    -0.003 A 
BRANCH  18  21
ATOM     21  C   UNL     1      -5.308  20.498  68.281  0.00  0.00    +0.002 C 
ATOM     22  C   UNL     1      -5.080  20.906  69.507  0.00  0.00    +0.025 C 
BRANCH  22  23
ATOM     23  C   UNL     1      -5.533  20.062  70.619  0.00  0.00    +0.110 C 
ATOM     24  N   UNL     1      -4.634  19.163  71.280  0.00  0.00    -0.198 NA
ATOM     25  O   UNL     1      -5.200  18.160  72.003  0.00  0.00    -0.402 OA
ATOM     26  O   UNL     1      -6.406  20.591  71.371  0.00  0.00    -0.536 OA
ENDBRANCH  22  23
ENDBRANCH  18  21
ENDBRANCH  14  15
ENDBRANCH   1  14
TORSDOF 7
ENDMDL
MODEL 4
REMARK VINA RESULT:      -6.5      5.074      7.447
REMARK  Name = 
REMARK  7 active torsions:
REMARK  status: ('A' for Active; 'I' for Inactive)
REMARK    1  A    between atoms: C_10  and  C_11
REMARK    2  A    between atoms: C_11  and  C_12
REMARK    3  A    between atoms: C_12  and  N_13
REMARK    4  A    between atoms: N_13  and  C_14
REMARK    5  A    between atoms: C_14  and  C_15
REMARK    6  A    between atoms: C_18  and  C_19
REMARK    7  A    between atoms: C_20  and  C_21
REMARK                            x       y       z     vdW  Elec       q    Type
REMARK                         _______ _______ _______ _____ _____    ______ ____
ROOT
ATOM      1  N   UNL     1     -10.853  17.011  69.267  0.00  0.00    -0.213 NA
ENDROOT
BRANCH   1   2
ATOM      2  C   UNL     1     -11.603  15.767  69.407  0.00  0.00    +0.094 C 
BRANCH   2   3
ATOM      3  C   UNL     1     -10.607  14.637  69.184  0.00  0.00    +0.046 C 
BRANCH   3   6
ATOM      4  C   UNL     1     -11.952  11.953  70.122  0.00  0.00    +0.052 C 
ATOM      5  C   UNL     1     -11.553  12.316  68.743  0.00  0.00    +0.055 A 
ATOM      6  C   UNL     1     -11.304  13.614  68.345  0.00  0.00    -0.006 A 
ATOM      7  C   UNL     1     -11.201  13.579  66.976  0.00  0.00    +0.015 A 
ATOM      8  C   UNL     1     -11.663  12.354  66.533  0.00  0.00    +0.081 A 
ATOM      9  C   UNL     1     -11.348  11.917  65.252  0.00  0.00    +0.019 A 
ATOM     10  C   UNL     1     -10.528  12.660  64.446  0.00  0.00    +0.002 A 
ATOM     11  C   UNL     1     -10.380  14.010  64.732  0.00  0.00    +0.000 A 
ATOM     12  C   UNL     1     -10.660  14.425  66.027  0.00  0.00    +0.001 A 
ATOM     13  N   UNL     1     -12.026  11.691  67.644  0.00  0.00    -0.250 NA
ENDBRANCH   3   6
ENDBRANCH   2   3
ENDBRANCH   1   2
BRANCH   1  14
ATOM     14  C   UNL     1     -10.682  17.264  67.843  0.00  0.00    +0.115 C 
BRANCH  14  15
ATOM     15  C   UNL     1      -9.388  17.945  67.566  0.00  0.00    -0.005 A 
ATOM     16  C   UNL     1      -8.186  17.303  67.794  0.00  0.00    -0.003 A 
ATOM     17  C   UNL     1      -7.035  17.983  68.167  0.00  0.00    -0.000 A 
ATOM     18  C   UNL     1      -7.015  19.352  68.134  0.00  0.00    +0.000 A 
ATOM     19  C   UNL     1      -8.211  20.021  67.905  0.00  0.00    -0.000 A 
ATOM     20  C   UNL     1      -9.374  19.326  67.667  0.00  0.00    -0.003 A 
BRANCH  18  21
ATOM     21  C   UNL     1      -5.819  20.164  68.207  0.00  0.00    +0.002 C 
ATOM     22  C   UNL     1      -5.448  20.701  69.345  0.00  0.00    +0.025 C 
BRANCH  22  23
ATOM     23  C   UNL     1      -5.709  19.959  70.584  0.00  0.00    +0.110 C 
ATOM     24  N   UNL     1      -4.721  19.085  71.146  0.00  0.00    -0.198 NA
ATOM     25  O   UNL     1      -5.166  18.158  72.036  0.00  0.00    -0.402 OA
ATOM     26  O   UNL     1      -6.423  20.572  71.434  0.00  0.00    -0.536 OA
ENDBRANCH  22  23
ENDBRANCH  18  21
ENDBRANCH  14  15
ENDBRANCH   1  14
TORSDOF 7
ENDMDL
MODEL 5
REMARK VINA RESULT:      -6.4      3.937      6.959
REMARK  Name = 
REMARK  7 active torsions:
REMARK  status: ('A' for Active; 'I' for Inactive)
REMARK    1  A    between atoms: C_10  and  C_11
REMARK    2  A    between atoms: C_11  and  C_12
REMARK    3  A    between atoms: C_12  and  N_13
REMARK    4  A    between atoms: N_13  and  C_14
REMARK    5  A    between atoms: C_14  and  C_15
REMARK    6  A    between atoms: C_18  and  C_19
REMARK    7  A    between atoms: C_20  and  C_21
REMARK                            x       y       z     vdW  Elec       q    Type
REMARK                         _______ _______ _______ _____ _____    ______ ____
ROOT
ATOM      1  N   UNL     1      -5.722  16.373  69.074  0.00  0.00    -0.213 NA
ENDROOT
BRANCH   1   2
ATOM      2  C   UNL     1      -5.869  17.655  69.757  0.00  0.00    +0.094 C 
BRANCH   2   3
ATOM      3  C   UNL     1      -5.672  18.731  68.697  0.00  0.00    +0.046 C 
BRANCH   3   6
ATOM      4  C   UNL     1      -5.016  17.933  65.727  0.00  0.00    +0.052 C 
ATOM      5  C   UNL     1      -6.308  18.431  66.252  0.00  0.00    +0.055 A 
ATOM      6  C   UNL     1      -6.633  18.423  67.594  0.00  0.00    -0.006 A 
ATOM      7  C   UNL     1      -7.969  18.728  67.664  0.00  0.00    +0.015 A 
ATOM      8  C   UNL     1      -8.507  18.636  66.395  0.00  0.00    +0.081 A 
ATOM      9  C   UNL     1      -9.734  19.226  66.118  0.00  0.00    +0.019 A 
ATOM     10  C   UNL     1     -10.387  19.956  67.075  0.00  0.00    +0.002 A 
ATOM     11  C   UNL     1     -10.050  19.740  68.404  0.00  0.00    +0.000 A 
ATOM     12  C   UNL     1      -8.804  19.185  68.666  0.00  0.00    +0.001 A 
ATOM     13  N   UNL     1      -7.482  18.282  65.601  0.00  0.00    -0.250 NA
ENDBRANCH   3   6
ENDBRANCH   2   3
ENDBRANCH   1   2
BRANCH   1  14
ATOM     14  C   UNL     1      -6.619  15.425  69.720  0.00  0.00    +0.115 C 
BRANCH  14  15
ATOM     15  C   UNL     1      -7.740  15.042  68.819  0.00  0.00    -0.005 A 
ATOM     16  C   UNL     1      -7.526  14.826  67.472  0.00  0.00    -0.003 A 
ATOM     17  C   UNL     1      -8.492  15.087  66.510  0.00  0.00    -0.000 A 
ATOM     18  C   UNL     1      -9.769  15.393  66.897  0.00  0.00    +0.000 A 
ATOM     19  C   UNL     1     -10.011  15.614  68.248  0.00  0.00    -0.000 A 
ATOM     20  C   UNL     1      -9.006  15.479  69.176  0.00  0.00    -0.003 A 
BRANCH  18  21
ATOM     21  C   UNL     1     -10.922  15.394  66.021  0.00  0.00    +0.002 C 
ATOM     22  C   UNL     1     -11.259  14.309  65.365  0.00  0.00    +0.025 C 
BRANCH  22  23
ATOM     23  C   UNL     1     -11.029  13.008  66.003  0.00  0.00    +0.110 C 
ATOM     24  N   UNL     1     -12.095  12.304  66.653  0.00  0.00    -0.198 NA
ATOM     25  O   UNL     1     -11.734  11.336  67.538  0.00  0.00    -0.402 OA
ATOM     26  O   UNL     1     -10.180  12.268  65.419  0.00  0.00    -0.536 OA
ENDBRANCH  22  23
ENDBRANCH  18  21
ENDBRANCH  14  15
ENDBRANCH   1  14
TORSDOF 7
ENDMDL
MODEL 6
REMARK VINA RESULT:      -6.4      4.560      6.343
REMARK  Name = 
REMARK  7 active torsions:
REMARK  status: ('A' for Active; 'I' for Inactive)
REMARK    1  A    between atoms: C_10  and  C_11
REMARK    2  A    between atoms: C_11  and  C_12
REMARK    3  A    between atoms: C_12  and  N_13
REMARK    4  A    between atoms: N_13  and  C_14
REMARK    5  A    between atoms: C_14  and  C_15
REMARK    6  A    between atoms: C_18  and  C_19
REMARK    7  A    between atoms: C_20  and  C_21
REMARK                            x       y       z     vdW  Elec       q    Type
REMARK                         _______ _______ _______ _____ _____    ______ ____
ROOT
ATOM      1  N   UNL     1     -10.524  16.434  68.691  0.00  0.00    -0.213 NA
ENDROOT
BRANCH   1   2
ATOM      2  C   UNL     1     -11.727  15.954  69.364  0.00  0.00    +0.094 C 
BRANCH   2   3
ATOM      3  C   UNL     1     -11.302  15.555  70.771  0.00  0.00    +0.046 C 
BRANCH   3   6
ATOM      4  C   UNL     1     -13.191  15.925  73.259  0.00  0.00    +0.052 C 
ATOM      5  C   UNL     1     -12.884  14.660  72.552  0.00  0.00    +0.055 A 
ATOM      6  C   UNL     1     -12.348  14.615  71.282  0.00  0.00    -0.006 A 
ATOM      7  C   UNL     1     -12.430  13.305  70.880  0.00  0.00    +0.015 A 
ATOM      8  C   UNL     1     -13.255  12.628  71.757  0.00  0.00    +0.081 A 
ATOM      9  C   UNL     1     -13.232  11.240  71.800  0.00  0.00    +0.019 A 
ATOM     10  C   UNL     1     -12.350  10.535  71.025  0.00  0.00    +0.002 A 
ATOM     11  C   UNL     1     -11.810  11.165  69.912  0.00  0.00    +0.000 A 
ATOM     12  C   UNL     1     -11.805  12.554  69.903  0.00  0.00    +0.001 A 
ATOM     13  N   UNL     1     -13.641  13.547  72.659  0.00  0.00    -0.250 NA
ENDBRANCH   3   6
ENDBRANCH   2   3
ENDBRANCH   1   2
BRANCH   1  14
ATOM     14  C   UNL     1     -10.933  17.017  67.422  0.00  0.00    +0.115 C 
BRANCH  14  15
ATOM     15  C   UNL     1      -9.924  17.990  66.922  0.00  0.00    -0.005 A 
ATOM     16  C   UNL     1      -8.654  17.575  66.567  0.00  0.00    -0.003 A 
ATOM     17  C   UNL     1      -7.537  18.387  66.705  0.00  0.00    -0.000 A 
ATOM     18  C   UNL     1      -7.695  19.709  67.026  0.00  0.00    +0.000 A 
ATOM     19  C   UNL     1      -8.962  20.151  67.385  0.00  0.00    -0.000 A 
ATOM     20  C   UNL     1     -10.038  19.296  67.370  0.00  0.00    -0.003 A 
BRANCH  18  21
ATOM     21  C   UNL     1      -6.662  20.717  66.911  0.00  0.00    +0.002 C 
ATOM     22  C   UNL     1      -6.042  21.158  67.979  0.00  0.00    +0.025 C 
BRANCH  22  23
ATOM     23  C   UNL     1      -5.803  20.222  69.084  0.00  0.00    +0.110 C 
ATOM     24  N   UNL     1      -4.732  19.272  69.031  0.00  0.00    -0.198 NA
ATOM     25  O   UNL     1      -4.819  18.210  69.876  0.00  0.00    -0.402 OA
ATOM     26  O   UNL     1      -6.049  20.685  70.239  0.00  0.00    -0.536 OA
ENDBRANCH  22  23
ENDBRANCH  18  21
ENDBRANCH  14  15
ENDBRANCH   1  14
TORSDOF 7
ENDMDL
MODEL 7
REMARK VINA RESULT:      -6.4      4.420      7.386
REMARK  Name = 
REMARK  7 active torsions:
REMARK  status: ('A' for Active; 'I' for Inactive)
REMARK    1  A    between atoms: C_10  and  C_11
REMARK    2  A    between atoms: C_11  and  C_12
REMARK    3  A    between atoms: C_12  and  N_13
REMARK    4  A    between atoms: N_13  and  C_14
REMARK    5  A    between atoms: C_14  and  C_15
REMARK    6  A    between atoms: C_18  and  C_19
REMARK    7  A    between atoms: C_20  and  C_21
REMARK                            x       y       z     vdW  Elec       q    Type
REMARK                         _______ _______ _______ _____ _____    ______ ____
ROOT
ATOM      1  N   UNL     1      -9.193  12.108  68.315  0.00  0.00    -0.213 NA
ENDROOT
BRANCH   1   2
ATOM      2  C   UNL     1      -8.808  11.365  67.120  0.00  0.00    +0.094 C 
BRANCH   2   3
ATOM      3  C   UNL     1      -9.963  10.422  66.809  0.00  0.00    +0.046 C 
BRANCH   3   6
ATOM      4  C   UNL     1      -9.011   9.556  63.939  0.00  0.00    +0.052 C 
ATOM      5  C   UNL     1      -9.850  10.726  64.285  0.00  0.00    +0.055 A 
ATOM      6  C   UNL     1     -10.517  10.849  65.487  0.00  0.00    -0.006 A 
ATOM      7  C   UNL     1     -11.361  11.923  65.346  0.00  0.00    +0.015 A 
ATOM      8  C   UNL     1     -11.421  12.261  64.008  0.00  0.00    +0.081 A 
ATOM      9  C   UNL     1     -11.907  13.506  63.628  0.00  0.00    +0.019 A 
ATOM     10  C   UNL     1     -12.267  14.429  64.573  0.00  0.00    +0.002 A 
ATOM     11  C   UNL     1     -12.557  13.975  65.852  0.00  0.00    +0.000 A 
ATOM     12  C   UNL     1     -12.031  12.747  66.230  0.00  0.00    +0.001 A 
ATOM     13  N   UNL     1     -10.613  11.385  63.386  0.00  0.00    -0.250 NA
ENDBRANCH   3   6
ENDBRANCH   2   3
ENDBRANCH   1   2
BRANCH   1  14
ATOM     14  C   UNL     1      -8.476  13.375  68.296  0.00  0.00    +0.115 C 
BRANCH  14  15
ATOM     15  C   UNL     1      -9.237  14.416  67.552  0.00  0.00    -0.005 A 
ATOM     16  C   UNL     1      -8.700  15.024  66.434  0.00  0.00    -0.003 A 
ATOM     17  C   UNL     1      -8.993  16.334  66.082  0.00  0.00    -0.000 A 
ATOM     18  C   UNL     1      -9.987  17.007  66.740  0.00  0.00    +0.000 A 
ATOM     19  C   UNL     1     -10.545  16.416  67.867  0.00  0.00    -0.000 A 
ATOM     20  C   UNL     1     -10.145  15.167  68.280  0.00  0.00    -0.003 A 
BRANCH  18  21
ATOM     21  C   UNL     1     -10.589  18.243  66.289  0.00  0.00    +0.002 C 
ATOM     22  C   UNL     1     -10.507  19.329  67.022  0.00  0.00    +0.025 C 
BRANCH  22  23
ATOM     23  C   UNL     1      -9.293  19.543  67.818  0.00  0.00    +0.110 C 
ATOM     24  N   UNL     1      -8.237  20.389  67.345  0.00  0.00    -0.198 NA
ATOM     25  O   UNL     1      -7.019  20.224  67.928  0.00  0.00    -0.402 OA
ATOM     26  O   UNL     1      -9.474  19.567  69.073  0.00  0.00    -0.536 OA
ENDBRANCH  22  23
ENDBRANCH  18  21
ENDBRANCH  14  15
ENDBRANCH   1  14
TORSDOF 7
ENDMDL
MODEL 8
REMARK VINA RESULT:      -6.3      4.043      6.062
REMARK  Name = 
REMARK  7 active torsions:
REMARK  status: ('A' for Active; 'I' for Inactive)
REMARK    1  A    between atoms: C_10  and  C_11
REMARK    2  A    between atoms: C_11  and  C_12
REMARK    3  A    between atoms: C_12  and  N_13
REMARK    4  A    between atoms: N_13  and  C_14
REMARK    5  A    between atoms: C_14  and  C_15
REMARK    6  A    between atoms: C_18  and  C_19
REMARK    7  A    between atoms: C_20  and  C_21
REMARK                            x       y       z     vdW  Elec       q    Type
REMARK                         _______ _______ _______ _____ _____    ______ ____
ROOT
ATOM      1  N   UNL     1     -12.038  11.320  67.909  0.00  0.00    -0.213 NA
ENDROOT
BRANCH   1   2
ATOM      2  C   UNL     1     -11.597  12.633  67.450  0.00  0.00    +0.094 C 
BRANCH   2   3
ATOM      3  C   UNL     1     -10.745  13.216  68.569  0.00  0.00    +0.046 C 
BRANCH   3   6
ATOM      4  C   UNL     1     -10.425  16.301  68.049  0.00  0.00    +0.052 C 
ATOM      5  C   UNL     1     -11.129  15.656  69.181  0.00  0.00    +0.055 A 
ATOM      6  C   UNL     1     -11.535  14.337  69.166  0.00  0.00    -0.006 A 
ATOM      7  C   UNL     1     -12.345  14.175  70.263  0.00  0.00    +0.015 A 
ATOM      8  C   UNL     1     -12.658  15.424  70.764  0.00  0.00    +0.081 A 
ATOM      9  C   UNL     1     -13.158  15.547  72.055  0.00  0.00    +0.019 A 
ATOM     10  C   UNL     1     -13.283  14.447  72.860  0.00  0.00    +0.002 A 
ATOM     11  C   UNL     1     -13.328  13.198  72.257  0.00  0.00    +0.000 A 
ATOM     12  C   UNL     1     -12.789  13.083  70.983  0.00  0.00    +0.001 A 
ATOM     13  N   UNL     1     -12.028  16.296  69.959  0.00  0.00    -0.250 NA
ENDBRANCH   3   6
ENDBRANCH   2   3
ENDBRANCH   1   2
BRANCH   1  14
ATOM     14  C   UNL     1     -10.909  10.409  67.789  0.00  0.00    +0.115 C 
BRANCH  14  15
ATOM     15  C   UNL     1     -10.777   9.548  68.995  0.00  0.00    -0.005 A 
ATOM     16  C   UNL     1     -11.609   9.720  70.084  0.00  0.00    -0.003 A 
ATOM     17  C   UNL     1     -11.201   9.458  71.385  0.00  0.00    -0.000 A 
ATOM     18  C   UNL     1     -10.005   8.830  71.607  0.00  0.00    +0.000 A 
ATOM     19  C   UNL     1      -9.151   8.643  70.527  0.00  0.00    -0.000 A 
ATOM     20  C   UNL     1      -9.519   9.031  69.261  0.00  0.00    -0.003 A 
BRANCH  18  21
ATOM     21  C   UNL     1      -9.602   8.238  72.865  0.00  0.00    +0.002 C 
ATOM     22  C   UNL     1     -10.209   7.169  73.322  0.00  0.00    +0.025 C 
BRANCH  22  23
ATOM     23  C   UNL     1     -10.695   6.177  72.356  0.00  0.00    +0.110 C 
ATOM     24  N   UNL     1      -9.790   5.292  71.684  0.00  0.00    -0.198 NA
ATOM     25  O   UNL     1     -10.250   4.700  70.548  0.00  0.00    -0.402 OA
ATOM     26  O   UNL     1     -11.827   5.674  72.629  0.00  0.00    -0.536 OA
ENDBRANCH  22  23
ENDBRANCH  18  21
ENDBRANCH  14  15
ENDBRANCH   1  14
TORSDOF 7
ENDMDL
MODEL 9
REMARK VINA RESULT:      -6.3      3.566      7.354
REMARK  Name = 
REMARK  7 active torsions:
REMARK  status: ('A' for Active; 'I' for Inactive)
REMARK    1  A    between atoms: C_10  and  C_11
REMARK    2  A    between atoms: C_11  and  C_12
REMARK    3  A    between atoms: C_12  and  N_13
REMARK    4  A    between atoms: N_13  and  C_14
REMARK    5  A    between atoms: C_14  and  C_15
REMARK    6  A    between atoms: C_18  and  C_19
REMARK    7  A    between atoms: C_20  and  C_21
REMARK                            x       y       z     vdW  Elec       q    Type
REMARK                         _______ _______ _______ _____ _____    ______ ____
ROOT
ATOM      1  N   UNL     1     -12.409  12.990  66.326  0.00  0.00    -0.213 NA
ENDROOT
BRANCH   1   2
ATOM      2  C   UNL     1     -11.827  12.487  65.086  0.00  0.00    +0.094 C 
BRANCH   2   3
ATOM      3  C   UNL     1     -10.320  12.665  65.216  0.00  0.00    +0.046 C 
BRANCH   3   6
ATOM      4  C   UNL     1      -9.312  11.136  62.659  0.00  0.00    +0.052 C 
ATOM      5  C   UNL     1      -9.631  10.549  63.981  0.00  0.00    +0.055 A 
ATOM      6  C   UNL     1      -9.721  11.296  65.138  0.00  0.00    -0.006 A 
ATOM      7  C   UNL     1      -9.791  10.394  66.169  0.00  0.00    +0.015 A 
ATOM      8  C   UNL     1      -9.459   9.144  65.682  0.00  0.00    +0.081 A 
ATOM      9  C   UNL     1      -9.787   8.007  66.409  0.00  0.00    +0.019 A 
ATOM     10  C   UNL     1     -10.496   8.108  67.576  0.00  0.00    +0.002 A 
ATOM     11  C   UNL     1     -10.498   9.330  68.235  0.00  0.00    +0.000 A 
ATOM     12  C   UNL     1     -10.207  10.462  67.485  0.00  0.00    +0.001 A 
ATOM     13  N   UNL     1      -9.203   9.331  64.376  0.00  0.00    -0.250 NA
ENDBRANCH   3   6
ENDBRANCH   2   3
ENDBRANCH   1   2
BRANCH   1  14
ATOM     14  C   UNL     1     -11.839  14.307  66.577  0.00  0.00    +0.115 C 
BRANCH  14  15
ATOM     15  C   UNL     1     -11.449  14.464  68.004  0.00  0.00    -0.005 A 
ATOM     16  C   UNL     1     -11.611  13.427  68.903  0.00  0.00    -0.003 A 
ATOM     17  C   UNL     1     -11.880  13.639  70.248  0.00  0.00    -0.000 A 
ATOM     18  C   UNL     1     -11.801  14.905  70.764  0.00  0.00    +0.000 A 
ATOM     19  C   UNL     1     -11.636  15.965  69.881  0.00  0.00    -0.000 A 
ATOM     20  C   UNL     1     -11.504  15.745  68.530  0.00  0.00    -0.003 A 
BRANCH  18  21
ATOM     21  C   UNL     1     -11.761  15.222  72.175  0.00  0.00    +0.002 C 
ATOM     22  C   UNL     1     -12.859  15.553  72.813  0.00  0.00    +0.025 C 
BRANCH  22  23
ATOM     23  C   UNL     1     -14.120  14.922  72.406  0.00  0.00    +0.110 C 
ATOM     24  N   UNL     1     -14.853  15.399  71.271  0.00  0.00    -0.198 NA
ATOM     25  O   UNL     1     -16.163  15.041  71.199  0.00  0.00    -0.402 OA
ATOM     26  O   UNL     1     -14.172  13.668  72.585  0.00  0.00    -0.536 OA
ENDBRANCH  22  23
ENDBRANCH  18  21
ENDBRANCH  14  15
ENDBRANCH   1  14
TORSDOF 7
ENDMDL
