MODEL 1
REMARK VINA RESULT:      -5.0      0.000      0.000
REMARK  Name = 
REMARK  3 active torsions:
REMARK  status: ('A' for Active; 'I' for Inactive)
REMARK    1  A    between atoms: N_2  and  N_4
REMARK    2  A    between atoms: N_5  and  C_6
REMARK    3  A    between atoms: C_10  and  C_11
REMARK                            x       y       z     vdW  Elec       q    Type
REMARK                         _______ _______ _______ _____ _____    ______ ____
ROOT
ATOM      1  C   UNL     1     -10.575  18.042  67.559  0.00  0.00    +0.209 A 
ATOM      2  C   UNL     1     -10.400  17.967  66.183  0.00  0.00    +0.177 A 
ATOM      3  N   UNL     1     -10.483  19.238  65.760  0.00  0.00    -0.216 NA
ATOM      4  C   UNL     1     -10.011  19.959  66.806  0.00  0.00    +0.201 A 
ATOM      5  N   UNL     1     -10.514  19.339  67.898  0.00  0.00    -0.202 NA
ENDROOT
BRANCH   2   6
ATOM      6  C   UNL     1     -10.582  16.727  65.424  0.00  0.00    +0.305 C 
ATOM      7  O   UNL     1     -11.213  16.834  64.331  0.00  0.00    -0.265 OA
ATOM      8  N   UNL     1      -9.489  15.815  65.442  0.00  0.00    -0.082 NA
ENDBRANCH   2   6
BRANCH   1  10
ATOM      9  N   UNL     1     -11.751  16.453  68.835  0.00  0.00    -0.076 NA
ATOM     10  N   UNL     1     -10.651  16.941  68.446  0.00  0.00    -0.111 NA
BRANCH   9  12
ATOM     11  C   UNL     1     -11.813  14.131  68.166  0.00  0.00    +0.136 C 
ATOM     12  N   UNL     1     -11.702  15.106  69.248  0.00  0.00    -0.211 N 
ATOM     13  C   UNL     1     -12.472  14.801  70.450  0.00  0.00    +0.136 C 
ENDBRANCH   9  12
ENDBRANCH   1  10
TORSDOF 3
ENDMDL
MODEL 2
REMARK VINA RESULT:      -5.0      2.380      4.243
REMARK  Name = 
REMARK  3 active torsions:
REMARK  status: ('A' for Active; 'I' for Inactive)
REMARK    1  A    between atoms: N_2  and  N_4
REMARK    2  A    between atoms: N_5  and  C_6
REMARK    3  A    between atoms: C_10  and  C_11
REMARK                            x       y       z     vdW  Elec       q    Type
REMARK                         _______ _______ _______ _____ _____    ______ ____
ROOT
ATOM      1  C   UNL     1     -11.875  13.818  66.347  0.00  0.00    +0.209 A 
ATOM      2  C   UNL     1     -11.577  14.422  65.133  0.00  0.00    +0.177 A 
ATOM      3  N   UNL     1     -11.507  13.408  64.257  0.00  0.00    -0.216 NA
ATOM      4  C   UNL     1     -12.379  12.494  64.749  0.00  0.00    +0.201 A 
ATOM      5  N   UNL     1     -12.195  12.540  66.089  0.00  0.00    -0.202 NA
ENDROOT
BRANCH   2   6
ATOM      6  C   UNL     1     -11.012  15.771  65.033  0.00  0.00    +0.305 C 
ATOM      7  O   UNL     1      -9.771  15.870  65.269  0.00  0.00    -0.265 OA
ATOM      8  N   UNL     1     -11.530  16.591  63.992  0.00  0.00    -0.082 NA
ENDBRANCH   2   6
BRANCH   1  10
ATOM      9  N   UNL     1     -11.004  14.521  68.417  0.00  0.00    -0.076 NA
ATOM     10  N   UNL     1     -11.967  14.473  67.600  0.00  0.00    -0.111 NA
BRANCH   9  12
ATOM     11  C   UNL     1     -12.215  15.638  70.185  0.00  0.00    +0.136 C 
ATOM     12  N   UNL     1     -11.035  15.599  69.325  0.00  0.00    -0.211 N 
ATOM     13  C   UNL     1     -10.617  16.884  68.774  0.00  0.00    +0.136 C 
ENDBRANCH   9  12
ENDBRANCH   1  10
TORSDOF 3
ENDMDL
MODEL 3
REMARK VINA RESULT:      -4.7      3.026      5.281
REMARK  Name = 
REMARK  3 active torsions:
REMARK  status: ('A' for Active; 'I' for Inactive)
REMARK    1  A    between atoms: N_2  and  N_4
REMARK    2  A    between atoms: N_5  and  C_6
REMARK    3  A    between atoms: C_10  and  C_11
REMARK                            x       y       z     vdW  Elec       q    Type
REMARK                         _______ _______ _______ _____ _____    ______ ____
ROOT
ATOM      1  C   UNL     1     -11.662  14.436  65.211  0.00  0.00    +0.209 A 
ATOM      2  C   UNL     1     -11.986  13.188  65.725  0.00  0.00    +0.177 A 
ATOM      3  N   UNL     1     -12.905  12.699  64.878  0.00  0.00    -0.216 NA
ATOM      4  C   UNL     1     -12.571  13.251  63.686  0.00  0.00    +0.201 A 
ATOM      5  N   UNL     1     -12.211  14.519  63.989  0.00  0.00    -0.202 NA
ENDROOT
BRANCH   2   6
ATOM      6  C   UNL     1     -11.710  12.803  67.112  0.00  0.00    +0.305 C 
ATOM      7  O   UNL     1     -12.143  13.593  68.003  0.00  0.00    -0.265 OA
ATOM      8  N   UNL     1     -11.787  11.412  67.403  0.00  0.00    -0.082 NA
ENDBRANCH   2   6
BRANCH   1  10
ATOM      9  N   UNL     1     -10.613  16.539  65.338  0.00  0.00    -0.076 NA
ATOM     10  N   UNL     1     -10.790  15.379  65.809  0.00  0.00    -0.111 NA
BRANCH   9  12
ATOM     11  C   UNL     1     -10.366  17.139  67.666  0.00  0.00    +0.136 C 
ATOM     12  N   UNL     1     -10.179  17.508  66.265  0.00  0.00    -0.211 N 
ATOM     13  C   UNL     1     -10.523  18.886  65.927  0.00  0.00    +0.136 C 
ENDBRANCH   9  12
ENDBRANCH   1  10
TORSDOF 3
ENDMDL
MODEL 4
REMARK VINA RESULT:      -4.6      2.342      4.141
REMARK  Name = 
REMARK  3 active torsions:
REMARK  status: ('A' for Active; 'I' for Inactive)
REMARK    1  A    between atoms: N_2  and  N_4
REMARK    2  A    between atoms: N_5  and  C_6
REMARK    3  A    between atoms: C_10  and  C_11
REMARK                            x       y       z     vdW  Elec       q    Type
REMARK                         _______ _______ _______ _____ _____    ______ ____
ROOT
ATOM      1  C   UNL     1      -9.854  15.970  66.102  0.00  0.00    +0.209 A 
ATOM      2  C   UNL     1     -10.686  15.089  65.424  0.00  0.00    +0.177 A 
ATOM      3  N   UNL     1     -10.003  13.933  65.392  0.00  0.00    -0.216 NA
ATOM      4  C   UNL     1      -9.266  13.962  66.529  0.00  0.00    +0.201 A 
ATOM      5  N   UNL     1      -8.856  15.247  66.633  0.00  0.00    -0.202 NA
ENDROOT
BRANCH   2   6
ATOM      6  C   UNL     1     -11.788  15.534  64.567  0.00  0.00    +0.305 C 
ATOM      7  O   UNL     1     -11.554  16.553  63.849  0.00  0.00    -0.265 OA
ATOM      8  N   UNL     1     -12.577  14.508  63.978  0.00  0.00    -0.082 NA
ENDBRANCH   2   6
BRANCH   1  10
ATOM      9  N   UNL     1     -10.648  17.788  67.368  0.00  0.00    -0.076 NA
ATOM     10  N   UNL     1     -10.103  17.348  66.315  0.00  0.00    -0.111 NA
BRANCH   9  12
ATOM     11  C   UNL     1     -10.226  20.013  66.526  0.00  0.00    +0.136 C 
ATOM     12  N   UNL     1     -10.359  19.131  67.682  0.00  0.00    -0.211 N 
ATOM     13  C   UNL     1      -9.365  19.320  68.734  0.00  0.00    +0.136 C 
ENDBRANCH   9  12
ENDBRANCH   1  10
TORSDOF 3
ENDMDL
MODEL 5
REMARK VINA RESULT:      -4.5      2.145      3.521
REMARK  Name = 
REMARK  3 active torsions:
REMARK  status: ('A' for Active; 'I' for Inactive)
REMARK    1  A    between atoms: N_2  and  N_4
REMARK    2  A    between atoms: N_5  and  C_6
REMARK    3  A    between atoms: C_10  and  C_11
REMARK                            x       y       z     vdW  Elec       q    Type
REMARK                         _______ _______ _______ _____ _____    ______ ____
ROOT
ATOM      1  C   UNL     1     -11.210  15.902  68.646  0.00  0.00    +0.209 A 
ATOM      2  C   UNL     1     -10.664  16.788  67.726  0.00  0.00    +0.177 A 
ATOM      3  N   UNL     1     -10.255  16.012  66.709  0.00  0.00    -0.216 NA
ATOM      4  C   UNL     1     -11.125  14.973  66.725  0.00  0.00    +0.201 A 
ATOM      5  N   UNL     1     -11.313  14.710  68.039  0.00  0.00    -0.202 NA
ENDROOT
BRANCH   2   6
ATOM      6  C   UNL     1     -10.238  18.144  68.083  0.00  0.00    +0.305 C 
ATOM      7  O   UNL     1      -8.993  18.305  68.257  0.00  0.00    -0.265 OA
ATOM      8  N   UNL     1     -10.936  19.207  67.445  0.00  0.00    -0.082 NA
ENDBRANCH   2   6
BRANCH   1  10
ATOM      9  N   UNL     1     -12.840  15.871  70.343  0.00  0.00    -0.076 NA
ATOM     10  N   UNL     1     -11.704  16.240  69.930  0.00  0.00    -0.111 NA
BRANCH   9  12
ATOM     11  C   UNL     1     -11.788  15.357  72.457  0.00  0.00    +0.136 C 
ATOM     12  N   UNL     1     -12.982  15.803  71.743  0.00  0.00    -0.211 N 
ATOM     13  C   UNL     1     -14.243  15.235  72.211  0.00  0.00    +0.136 C 
ENDBRANCH   9  12
ENDBRANCH   1  10
TORSDOF 3
ENDMDL
MODEL 6
REMARK VINA RESULT:      -4.5      3.862      5.775
REMARK  Name = 
REMARK  3 active torsions:
REMARK  status: ('A' for Active; 'I' for Inactive)
REMARK    1  A    between atoms: N_2  and  N_4
REMARK    2  A    between atoms: N_5  and  C_6
REMARK    3  A    between atoms: C_10  and  C_11
REMARK                            x       y       z     vdW  Elec       q    Type
REMARK                         _______ _______ _______ _____ _____    ______ ____
ROOT
ATOM      1  C   UNL     1     -11.971  14.149  70.056  0.00  0.00    +0.209 A 
ATOM      2  C   UNL     1     -12.371  15.387  70.539  0.00  0.00    +0.177 A 
ATOM      3  N   UNL     1     -11.773  16.277  69.731  0.00  0.00    -0.216 NA
ATOM      4  C   UNL     1     -11.689  15.629  68.543  0.00  0.00    +0.201 A 
ATOM      5  N   UNL     1     -11.370  14.357  68.875  0.00  0.00    -0.202 NA
ENDROOT
BRANCH   2   6
ATOM      6  C   UNL     1     -12.906  15.580  71.890  0.00  0.00    +0.305 C 
ATOM      7  O   UNL     1     -12.214  16.311  72.660  0.00  0.00    -0.265 OA
ATOM      8  N   UNL     1     -14.320  15.706  71.992  0.00  0.00    -0.082 NA
ENDBRANCH   2   6
BRANCH   1  10
ATOM      9  N   UNL     1     -11.987  11.796  70.080  0.00  0.00    -0.076 NA
ATOM     10  N   UNL     1     -12.279  12.893  70.636  0.00  0.00    -0.111 NA
BRANCH   9  12
ATOM     11  C   UNL     1     -11.026   9.607  70.436  0.00  0.00    +0.136 C 
ATOM     12  N   UNL     1     -11.855  10.694  70.950  0.00  0.00    -0.211 N 
ATOM     13  C   UNL     1     -13.086  10.283  71.618  0.00  0.00    +0.136 C 
ENDBRANCH   9  12
ENDBRANCH   1  10
TORSDOF 3
ENDMDL
MODEL 7
REMARK VINA RESULT:      -4.5      2.237      3.412
REMARK  Name = 
REMARK  3 active torsions:
REMARK  status: ('A' for Active; 'I' for Inactive)
REMARK    1  A    between atoms: N_2  and  N_4
REMARK    2  A    between atoms: N_5  and  C_6
REMARK    3  A    between atoms: C_10  and  C_11
REMARK                            x       y       z     vdW  Elec       q    Type
REMARK                         _______ _______ _______ _____ _____    ______ ____
ROOT
ATOM      1  C   UNL     1     -11.533  16.006  69.008  0.00  0.00    +0.209 A 
ATOM      2  C   UNL     1     -11.266  15.309  67.837  0.00  0.00    +0.177 A 
ATOM      3  N   UNL     1     -10.604  16.184  67.063  0.00  0.00    -0.216 NA
ATOM      4  C   UNL     1      -9.946  16.968  67.952  0.00  0.00    +0.201 A 
ATOM      5  N   UNL     1     -10.826  17.146  68.963  0.00  0.00    -0.202 NA
ENDROOT
BRANCH   2   6
ATOM      6  C   UNL     1     -11.994  14.098  67.448  0.00  0.00    +0.305 C 
ATOM      7  O   UNL     1     -12.489  14.100  66.281  0.00  0.00    -0.265 OA
ATOM      8  N   UNL     1     -11.451  12.866  67.908  0.00  0.00    -0.082 NA
ENDBRANCH   2   6
BRANCH   1  10
ATOM      9  N   UNL     1     -12.095  15.916  71.291  0.00  0.00    -0.076 NA
ATOM     10  N   UNL     1     -12.292  15.527  70.104  0.00  0.00    -0.111 NA
BRANCH   9  12
ATOM     11  C   UNL     1     -12.858  15.480  73.542  0.00  0.00    +0.136 C 
ATOM     12  N   UNL     1     -13.201  15.794  72.157  0.00  0.00    -0.211 N 
ATOM     13  C   UNL     1     -14.338  15.062  71.610  0.00  0.00    +0.136 C 
ENDBRANCH   9  12
ENDBRANCH   1  10
TORSDOF 3
ENDMDL
MODEL 8
REMARK VINA RESULT:      -4.5      2.128      3.252
REMARK  Name = 
REMARK  3 active torsions:
REMARK  status: ('A' for Active; 'I' for Inactive)
REMARK    1  A    between atoms: N_2  and  N_4
REMARK    2  A    between atoms: N_5  and  C_6
REMARK    3  A    between atoms: C_10  and  C_11
REMARK                            x       y       z     vdW  Elec       q    Type
REMARK                         _______ _______ _______ _____ _____    ______ ____
ROOT
ATOM      1  C   UNL     1     -10.124  18.088  66.466  0.00  0.00    +0.209 A 
ATOM      2  C   UNL     1     -10.271  18.241  67.838  0.00  0.00    +0.177 A 
ATOM      3  N   UNL     1      -9.746  19.448  68.104  0.00  0.00    -0.216 NA
ATOM      4  C   UNL     1      -9.978  20.158  66.972  0.00  0.00    +0.201 A 
ATOM      5  N   UNL     1      -9.752  19.278  65.970  0.00  0.00    -0.202 NA
ENDROOT
BRANCH   2   6
ATOM      6  C   UNL     1     -10.497  17.113  68.746  0.00  0.00    +0.305 C 
ATOM      7  O   UNL     1     -11.647  16.583  68.694  0.00  0.00    -0.265 OA
ATOM      8  N   UNL     1      -9.397  16.230  68.934  0.00  0.00    -0.082 NA
ENDBRANCH   2   6
BRANCH   1  10
ATOM      9  N   UNL     1      -9.623  16.008  65.488  0.00  0.00    -0.076 NA
ATOM     10  N   UNL     1     -10.456  16.930  65.721  0.00  0.00    -0.111 NA
BRANCH   9  12
ATOM     11  C   UNL     1     -11.578  14.765  64.800  0.00  0.00    +0.136 C 
ATOM     12  N   UNL     1     -10.182  14.740  65.230  0.00  0.00    -0.211 N 
ATOM     13  C   UNL     1      -9.842  13.704  66.201  0.00  0.00    +0.136 C 
ENDBRANCH   9  12
ENDBRANCH   1  10
TORSDOF 3
ENDMDL
MODEL 9
REMARK VINA RESULT:      -4.5      2.129      4.675
REMARK  Name = 
REMARK  3 active torsions:
REMARK  status: ('A' for Active; 'I' for Inactive)
REMARK    1  A    between atoms: N_2  and  N_4
REMARK    2  A    between atoms: N_5  and  C_6
REMARK    3  A    between atoms: C_10  and  C_11
REMARK                            x       y       z     vdW  Elec       q    Type
REMARK                         _______ _______ _______ _____ _____    ______ ____
ROOT
ATOM      1  C   UNL     1     -10.496  16.295  65.776  0.00  0.00    +0.209 A 
ATOM      2  C   UNL     1     -10.816  15.445  66.827  0.00  0.00    +0.177 A 
ATOM      3  N   UNL     1     -11.596  14.501  66.276  0.00  0.00    -0.216 NA
ATOM      4  C   UNL     1     -11.146  14.414  65.001  0.00  0.00    +0.201 A 
ATOM      5  N   UNL     1     -10.893  15.694  64.643  0.00  0.00    -0.202 NA
ENDROOT
BRANCH   2   6
ATOM      6  C   UNL     1     -10.694  15.838  68.234  0.00  0.00    +0.305 C 
ATOM      7  O   UNL     1     -11.566  16.655  68.657  0.00  0.00    -0.265 OA
ATOM      8  N   UNL     1     -10.286  14.817  69.136  0.00  0.00    -0.082 NA
ENDBRANCH   2   6
BRANCH   1  10
ATOM      9  N   UNL     1     -10.295  18.639  65.812  0.00  0.00    -0.076 NA
ATOM     10  N   UNL     1      -9.755  17.497  65.878  0.00  0.00    -0.111 NA
BRANCH   9  12
ATOM     11  C   UNL     1      -8.140  19.658  66.208  0.00  0.00    +0.136 C 
ATOM     12  N   UNL     1      -9.582  19.682  66.438  0.00  0.00    -0.211 N 
ATOM     13  C   UNL     1      -9.995  19.979  67.806  0.00  0.00    +0.136 C 
ENDBRANCH   9  12
ENDBRANCH   1  10
TORSDOF 3
ENDMDL
