MODEL 1
REMARK VINA RESULT:      -5.4      0.000      0.000
REMARK  Name = 
REMARK  4 active torsions:
REMARK  status: ('A' for Active; 'I' for Inactive)
REMARK    1  A    between atoms: C_2  and  N_3
REMARK    2  A    between atoms: C_2  and  C_8
REMARK    3  A    between atoms: N_3  and  C_4
REMARK    4  A    between atoms: C_8  and  C_10
REMARK                            x       y       z     vdW  Elec       q    Type
REMARK                         _______ _______ _______ _____ _____    ______ ____
ROOT
ATOM      1  C   UNL     1     -11.526  15.491  69.321  0.00  0.00    +0.189 C 
ATOM      2  O   UNL     1     -11.788  16.594  68.863  0.00  0.00    -0.290 OA
ENDROOT
BRANCH   1   3
ATOM      3  C   UNL     1     -11.842  14.981  70.637  0.00  0.00    +0.037 A 
ATOM      4  C   UNL     1     -12.133  13.631  70.780  0.00  0.00    +0.014 A 
ATOM      5  C   UNL     1     -13.140  13.142  71.571  0.00  0.00    +0.058 A 
ATOM      6 CL   UNL     1     -13.222  11.429  71.874  0.00  0.00    -0.082 Cl
ATOM      7  C   UNL     1     -13.820  14.001  72.393  0.00  0.00    +0.011 A 
ATOM      8  C   UNL     1     -13.430  15.315  72.444  0.00  0.00    +0.001 A 
ATOM      9  C   UNL     1     -12.483  15.788  71.573  0.00  0.00    +0.003 A 
ENDBRANCH   1   3
BRANCH   1  11
ATOM     10  C   UNL     1      -9.356  15.673  68.318  0.00  0.00    +0.027 C 
ATOM     11  C   UNL     1     -10.568  14.522  68.417  0.00  0.00    +0.134 C 
BRANCH  11  12
ATOM     12  N   UNL     1     -11.236  15.034  67.053  0.00  0.00    -0.214 NA
BRANCH  12  13
ATOM     13  C   UNL     1     -11.476  13.845  66.280  0.00  0.00    +0.060 C 
ATOM     14  C   UNL     1     -12.732  14.036  65.438  0.00  0.00    +0.017 C 
ATOM     15  C   UNL     1     -11.648  12.608  67.116  0.00  0.00    +0.017 C 
ATOM     16  C   UNL     1     -10.303  13.676  65.319  0.00  0.00    +0.017 C 
ENDBRANCH  12  13
ENDBRANCH  11  12
ENDBRANCH   1  11
TORSDOF 4
ENDMDL
MODEL 2
REMARK VINA RESULT:      -5.4      4.001      6.030
REMARK  Name = 
REMARK  4 active torsions:
REMARK  status: ('A' for Active; 'I' for Inactive)
REMARK    1  A    between atoms: C_2  and  N_3
REMARK    2  A    between atoms: C_2  and  C_8
REMARK    3  A    between atoms: N_3  and  C_4
REMARK    4  A    between atoms: C_8  and  C_10
REMARK                            x       y       z     vdW  Elec       q    Type
REMARK                         _______ _______ _______ _____ _____    ______ ____
ROOT
ATOM      1  C   UNL     1     -10.777  16.089  65.075  0.00  0.00    +0.189 C 
ATOM      2  O   UNL     1     -11.412  16.608  64.168  0.00  0.00    -0.290 OA
ENDROOT
BRANCH   1   3
ATOM      3  C   UNL     1      -9.923  16.740  66.043  0.00  0.00    +0.037 A 
ATOM      4  C   UNL     1     -10.222  18.038  66.435  0.00  0.00    +0.014 A 
ATOM      5  C   UNL     1      -9.286  19.025  66.606  0.00  0.00    +0.058 A 
ATOM      6 CL   UNL     1      -9.761  20.521  67.359  0.00  0.00    -0.082 Cl
ATOM      7  C   UNL     1      -7.956  18.702  66.536  0.00  0.00    +0.011 A 
ATOM      8  C   UNL     1      -7.604  17.389  66.358  0.00  0.00    +0.001 A 
ATOM      9  C   UNL     1      -8.564  16.446  66.098  0.00  0.00    +0.003 A 
ENDBRANCH   1   3
BRANCH   1  11
ATOM     10  C   UNL     1     -12.233  14.328  64.350  0.00  0.00    +0.027 C 
ATOM     11  C   UNL     1     -10.750  14.455  65.119  0.00  0.00    +0.134 C 
BRANCH  11  12
ATOM     12  N   UNL     1     -11.439  14.423  66.565  0.00  0.00    -0.214 NA
BRANCH  12  13
ATOM     13  C   UNL     1     -10.710  13.431  67.309  0.00  0.00    +0.060 C 
ATOM     14  C   UNL     1     -10.197  14.049  68.606  0.00  0.00    +0.017 C 
ATOM     15  C   UNL     1      -9.539  12.857  66.561  0.00  0.00    +0.017 C 
ATOM     16  C   UNL     1     -11.691  12.326  67.687  0.00  0.00    +0.017 C 
ENDBRANCH  12  13
ENDBRANCH  11  12
ENDBRANCH   1  11
TORSDOF 4
ENDMDL
MODEL 3
REMARK VINA RESULT:      -5.4      1.638      1.929
REMARK  Name = 
REMARK  4 active torsions:
REMARK  status: ('A' for Active; 'I' for Inactive)
REMARK    1  A    between atoms: C_2  and  N_3
REMARK    2  A    between atoms: C_2  and  C_8
REMARK    3  A    between atoms: N_3  and  C_4
REMARK    4  A    between atoms: C_8  and  C_10
REMARK                            x       y       z     vdW  Elec       q    Type
REMARK                         _______ _______ _______ _____ _____    ______ ____
ROOT
ATOM      1  C   UNL     1     -11.338  15.986  69.741  0.00  0.00    +0.189 C 
ATOM      2  O   UNL     1     -10.899  17.067  69.376  0.00  0.00    -0.290 OA
ENDROOT
BRANCH   1   3
ATOM      3  C   UNL     1     -12.356  15.733  70.737  0.00  0.00    +0.037 A 
ATOM      4  C   UNL     1     -12.125  16.131  72.047  0.00  0.00    +0.014 A 
ATOM      5  C   UNL     1     -12.442  15.376  73.146  0.00  0.00    +0.058 A 
ATOM      6 CL   UNL     1     -12.352  16.103  74.726  0.00  0.00    -0.082 Cl
ATOM      7  C   UNL     1     -13.163  14.223  72.979  0.00  0.00    +0.011 A 
ATOM      8  C   UNL     1     -13.598  13.893  71.721  0.00  0.00    +0.001 A 
ATOM      9  C   UNL     1     -13.184  14.619  70.635  0.00  0.00    +0.003 A 
ENDBRANCH   1   3
BRANCH   1  11
ATOM     10  C   UNL     1      -9.096  15.405  69.124  0.00  0.00    +0.027 C 
ATOM     11  C   UNL     1     -10.591  14.651  69.164  0.00  0.00    +0.134 C 
BRANCH  11  12
ATOM     12  N   UNL     1     -10.896  15.063  67.646  0.00  0.00    -0.214 NA
BRANCH  12  13
ATOM     13  C   UNL     1     -11.223  13.831  66.978  0.00  0.00    +0.060 C 
ATOM     14  C   UNL     1     -12.400  14.065  66.037  0.00  0.00    +0.017 C 
ATOM     15  C   UNL     1     -11.580  12.714  67.918  0.00  0.00    +0.017 C 
ATOM     16  C   UNL     1     -10.024  13.441  66.120  0.00  0.00    +0.017 C 
ENDBRANCH  12  13
ENDBRANCH  11  12
ENDBRANCH   1  11
TORSDOF 4
ENDMDL
MODEL 4
REMARK VINA RESULT:      -5.4      3.558      5.535
REMARK  Name = 
REMARK  4 active torsions:
REMARK  status: ('A' for Active; 'I' for Inactive)
REMARK    1  A    between atoms: C_2  and  N_3
REMARK    2  A    between atoms: C_2  and  C_8
REMARK    3  A    between atoms: N_3  and  C_4
REMARK    4  A    between atoms: C_8  and  C_10
REMARK                            x       y       z     vdW  Elec       q    Type
REMARK                         _______ _______ _______ _____ _____    ______ ____
ROOT
ATOM      1  C   UNL     1     -10.308  16.747  65.610  0.00  0.00    +0.189 C 
ATOM      2  O   UNL     1     -10.954  16.714  64.572  0.00  0.00    -0.290 OA
ENDROOT
BRANCH   1   3
ATOM      3  C   UNL     1      -9.732  17.905  66.258  0.00  0.00    +0.037 A 
ATOM      4  C   UNL     1      -8.602  17.737  67.047  0.00  0.00    +0.014 A 
ATOM      5  C   UNL     1      -8.411  18.355  68.256  0.00  0.00    +0.058 A 
ATOM      6 CL   UNL     1      -6.843  18.274  69.009  0.00  0.00    -0.082 Cl
ATOM      7  C   UNL     1      -9.302  19.311  68.666  0.00  0.00    +0.011 A 
ATOM      8  C   UNL     1     -10.325  19.664  67.824  0.00  0.00    +0.001 A 
ATOM      9  C   UNL     1     -10.540  18.962  66.666  0.00  0.00    +0.003 A 
ENDBRANCH   1   3
BRANCH   1  11
ATOM     10  C   UNL     1     -10.458  14.447  64.951  0.00  0.00    +0.027 C 
ATOM     11  C   UNL     1      -9.901  15.310  66.274  0.00  0.00    +0.134 C 
BRANCH  11  12
ATOM     12  N   UNL     1     -11.315  15.184  67.016  0.00  0.00    -0.214 NA
BRANCH  12  13
ATOM     13  C   UNL     1     -10.997  14.932  68.396  0.00  0.00    +0.060 C 
ATOM     14  C   UNL     1     -11.330  16.168  69.225  0.00  0.00    +0.017 C 
ATOM     15  C   UNL     1      -9.554  14.580  68.626  0.00  0.00    +0.017 C 
ATOM     16  C   UNL     1     -11.902  13.802  68.878  0.00  0.00    +0.017 C 
ENDBRANCH  12  13
ENDBRANCH  11  12
ENDBRANCH   1  11
TORSDOF 4
ENDMDL
MODEL 5
REMARK VINA RESULT:      -5.3      4.075      5.636
REMARK  Name = 
REMARK  4 active torsions:
REMARK  status: ('A' for Active; 'I' for Inactive)
REMARK    1  A    between atoms: C_2  and  N_3
REMARK    2  A    between atoms: C_2  and  C_8
REMARK    3  A    between atoms: N_3  and  C_4
REMARK    4  A    between atoms: C_8  and  C_10
REMARK                            x       y       z     vdW  Elec       q    Type
REMARK                         _______ _______ _______ _____ _____    ______ ____
ROOT
ATOM      1  C   UNL     1     -10.632  16.541  65.480  0.00  0.00    +0.189 C 
ATOM      2  O   UNL     1     -11.129  17.112  64.520  0.00  0.00    -0.290 OA
ENDROOT
BRANCH   1   3
ATOM      3  C   UNL     1     -10.577  15.118  65.732  0.00  0.00    +0.037 A 
ATOM      4  C   UNL     1     -10.851  14.242  64.691  0.00  0.00    +0.014 A 
ATOM      5  C   UNL     1     -11.606  13.105  64.821  0.00  0.00    +0.058 A 
ATOM      6 CL   UNL     1     -11.645  11.959  63.511  0.00  0.00    -0.082 Cl
ATOM      7  C   UNL     1     -12.004  12.708  66.071  0.00  0.00    +0.011 A 
ATOM      8  C   UNL     1     -11.581  13.428  67.159  0.00  0.00    +0.001 A 
ATOM      9  C   UNL     1     -10.906  14.608  66.985  0.00  0.00    +0.003 A 
ENDBRANCH   1   3
BRANCH   1  11
ATOM     10  C   UNL     1     -10.528  18.895  65.919  0.00  0.00    +0.027 C 
ATOM     11  C   UNL     1     -10.104  17.481  66.710  0.00  0.00    +0.134 C 
BRANCH  11  12
ATOM     12  N   UNL     1      -8.618  17.532  66.112  0.00  0.00    -0.214 NA
BRANCH  12  13
ATOM     13  C   UNL     1      -7.752  17.272  67.231  0.00  0.00    +0.060 C 
ATOM     14  C   UNL     1      -8.580  17.230  68.510  0.00  0.00    +0.017 C 
ATOM     15  C   UNL     1      -6.666  18.297  67.401  0.00  0.00    +0.017 C 
ATOM     16  C   UNL     1      -7.147  15.886  67.033  0.00  0.00    +0.017 C 
ENDBRANCH  12  13
ENDBRANCH  11  12
ENDBRANCH   1  11
TORSDOF 4
ENDMDL
MODEL 6
REMARK VINA RESULT:      -5.2      1.985      3.115
REMARK  Name = 
REMARK  4 active torsions:
REMARK  status: ('A' for Active; 'I' for Inactive)
REMARK    1  A    between atoms: C_2  and  N_3
REMARK    2  A    between atoms: C_2  and  C_8
REMARK    3  A    between atoms: N_3  and  C_4
REMARK    4  A    between atoms: C_8  and  C_10
REMARK                            x       y       z     vdW  Elec       q    Type
REMARK                         _______ _______ _______ _____ _____    ______ ____
ROOT
ATOM      1  C   UNL     1     -11.780  12.556  67.900  0.00  0.00    +0.189 C 
ATOM      2  O   UNL     1     -11.898  11.625  67.117  0.00  0.00    -0.290 OA
ENDROOT
BRANCH   1   3
ATOM      3  C   UNL     1     -11.722  12.497  69.344  0.00  0.00    +0.037 A 
ATOM      4  C   UNL     1     -11.963  11.283  69.975  0.00  0.00    +0.014 A 
ATOM      5  C   UNL     1     -12.714  11.145  71.113  0.00  0.00    +0.058 A 
ATOM      6 CL   UNL     1     -12.711   9.618  71.949  0.00  0.00    -0.082 Cl
ATOM      7  C   UNL     1     -13.141  12.269  71.772  0.00  0.00    +0.011 A 
ATOM      8  C   UNL     1     -12.751  13.497  71.303  0.00  0.00    +0.001 A 
ATOM      9  C   UNL     1     -12.080  13.600  70.113  0.00  0.00    +0.003 A 
ENDBRANCH   1   3
BRANCH   1  11
ATOM     10  C   UNL     1     -12.384  13.509  65.785  0.00  0.00    +0.027 C 
ATOM     11  C   UNL     1     -11.857  14.065  67.274  0.00  0.00    +0.134 C 
BRANCH  11  12
ATOM     12  N   UNL     1     -10.324  14.013  66.808  0.00  0.00    -0.214 NA
BRANCH  12  13
ATOM     13  C   UNL     1      -9.725  15.205  67.347  0.00  0.00    +0.060 C 
ATOM     14  C   UNL     1      -8.839  14.833  68.530  0.00  0.00    +0.017 C 
ATOM     15  C   UNL     1     -10.727  16.227  67.806  0.00  0.00    +0.017 C 
ATOM     16  C   UNL     1      -8.823  15.795  66.268  0.00  0.00    +0.017 C 
ENDBRANCH  12  13
ENDBRANCH  11  12
ENDBRANCH   1  11
TORSDOF 4
ENDMDL
MODEL 7
REMARK VINA RESULT:      -5.2      4.212      6.283
REMARK  Name = 
REMARK  4 active torsions:
REMARK  status: ('A' for Active; 'I' for Inactive)
REMARK    1  A    between atoms: C_2  and  N_3
REMARK    2  A    between atoms: C_2  and  C_8
REMARK    3  A    between atoms: N_3  and  C_4
REMARK    4  A    between atoms: C_8  and  C_10
REMARK                            x       y       z     vdW  Elec       q    Type
REMARK                         _______ _______ _______ _____ _____    ______ ____
ROOT
ATOM      1  C   UNL     1     -10.785  15.791  65.070  0.00  0.00    +0.189 C 
ATOM      2  O   UNL     1     -11.287  16.639  64.347  0.00  0.00    -0.290 OA
ENDROOT
BRANCH   1   3
ATOM      3  C   UNL     1     -11.100  14.381  65.132  0.00  0.00    +0.037 A 
ATOM      4  C   UNL     1     -10.264  13.479  64.486  0.00  0.00    +0.014 A 
ATOM      5  C   UNL     1     -10.708  12.406  63.758  0.00  0.00    +0.058 A 
ATOM      6 CL   UNL     1      -9.561  11.206  63.232  0.00  0.00    -0.082 Cl
ATOM      7  C   UNL     1     -12.043  12.096  63.772  0.00  0.00    +0.011 A 
ATOM      8  C   UNL     1     -12.884  12.833  64.566  0.00  0.00    +0.001 A 
ATOM      9  C   UNL     1     -12.423  13.954  65.206  0.00  0.00    +0.003 A 
ENDBRANCH   1   3
BRANCH   1  11
ATOM     10  C   UNL     1     -10.564  15.512  67.441  0.00  0.00    +0.027 C 
ATOM     11  C   UNL     1      -9.748  16.317  66.220  0.00  0.00    +0.134 C 
BRANCH  11  12
ATOM     12  N   UNL     1     -10.599  17.653  66.461  0.00  0.00    -0.214 NA
BRANCH  12  13
ATOM     13  C   UNL     1      -9.642  18.642  66.878  0.00  0.00    +0.060 C 
ATOM     14  C   UNL     1      -8.250  18.222  66.416  0.00  0.00    +0.017 C 
ATOM     15  C   UNL     1      -9.605  18.854  68.366  0.00  0.00    +0.017 C 
ATOM     16  C   UNL     1      -9.985  19.946  66.164  0.00  0.00    +0.017 C 
ENDBRANCH  12  13
ENDBRANCH  11  12
ENDBRANCH   1  11
TORSDOF 4
ENDMDL
MODEL 8
REMARK VINA RESULT:      -5.1      2.544      3.796
REMARK  Name = 
REMARK  4 active torsions:
REMARK  status: ('A' for Active; 'I' for Inactive)
REMARK    1  A    between atoms: C_2  and  N_3
REMARK    2  A    between atoms: C_2  and  C_8
REMARK    3  A    between atoms: N_3  and  C_4
REMARK    4  A    between atoms: C_8  and  C_10
REMARK                            x       y       z     vdW  Elec       q    Type
REMARK                         _______ _______ _______ _____ _____    ______ ____
ROOT
ATOM      1  C   UNL     1     -10.753  15.894  69.866  0.00  0.00    +0.189 C 
ATOM      2  O   UNL     1      -9.692  15.296  69.970  0.00  0.00    -0.290 OA
ENDROOT
BRANCH   1   3
ATOM      3  C   UNL     1     -11.921  15.780  70.712  0.00  0.00    +0.037 A 
ATOM      4  C   UNL     1     -11.816  16.135  72.050  0.00  0.00    +0.014 A 
ATOM      5  C   UNL     1     -12.378  15.426  73.080  0.00  0.00    +0.058 A 
ATOM      6 CL   UNL     1     -12.402  16.126  74.675  0.00  0.00    -0.082 Cl
ATOM      7  C   UNL     1     -13.220  14.385  72.792  0.00  0.00    +0.011 A 
ATOM      8  C   UNL     1     -13.523  14.124  71.480  0.00  0.00    +0.001 A 
ATOM      9  C   UNL     1     -12.872  14.791  70.476  0.00  0.00    +0.003 A 
ENDBRANCH   1   3
BRANCH   1  11
ATOM     10  C   UNL     1     -10.911  15.491  67.508  0.00  0.00    +0.027 C 
ATOM     11  C   UNL     1     -10.956  16.816  68.531  0.00  0.00    +0.134 C 
BRANCH  11  12
ATOM     12  N   UNL     1      -9.378  17.051  68.381  0.00  0.00    -0.214 NA
BRANCH  12  13
ATOM     13  C   UNL     1      -9.244  18.352  67.782  0.00  0.00    +0.060 C 
ATOM     14  C   UNL     1      -8.377  19.231  68.677  0.00  0.00    +0.017 C 
ATOM     15  C   UNL     1     -10.557  19.049  67.559  0.00  0.00    +0.017 C 
ATOM     16  C   UNL     1      -8.505  18.177  66.460  0.00  0.00    +0.017 C 
ENDBRANCH  12  13
ENDBRANCH  11  12
ENDBRANCH   1  11
TORSDOF 4
ENDMDL
MODEL 9
REMARK VINA RESULT:      -5.0      3.576      5.184
REMARK  Name = 
REMARK  4 active torsions:
REMARK  status: ('A' for Active; 'I' for Inactive)
REMARK    1  A    between atoms: C_2  and  N_3
REMARK    2  A    between atoms: C_2  and  C_8
REMARK    3  A    between atoms: N_3  and  C_4
REMARK    4  A    between atoms: C_8  and  C_10
REMARK                            x       y       z     vdW  Elec       q    Type
REMARK                         _______ _______ _______ _____ _____    ______ ____
ROOT
ATOM      1  C   UNL     1     -10.930  16.171  65.280  0.00  0.00    +0.189 C 
ATOM      2  O   UNL     1     -11.189  16.868  64.309  0.00  0.00    -0.290 OA
ENDROOT
BRANCH   1   3
ATOM      3  C   UNL     1     -11.218  14.766  65.464  0.00  0.00    +0.037 A 
ATOM      4  C   UNL     1     -11.569  14.314  66.728  0.00  0.00    +0.014 A 
ATOM      5  C   UNL     1     -11.109  13.147  67.282  0.00  0.00    +0.058 A 
ATOM      6 CL   UNL     1     -11.836  12.564  68.754  0.00  0.00    -0.082 Cl
ATOM      7  C   UNL     1     -10.377  12.285  66.509  0.00  0.00    +0.011 A 
ATOM      8  C   UNL     1     -10.179  12.588  65.187  0.00  0.00    +0.001 A 
ATOM      9  C   UNL     1     -10.572  13.805  64.692  0.00  0.00    +0.003 A 
ENDBRANCH   1   3
BRANCH   1  11
ATOM     10  C   UNL     1     -10.434  18.439  65.877  0.00  0.00    +0.027 C 
ATOM     11  C   UNL     1     -10.331  16.931  66.599  0.00  0.00    +0.134 C 
BRANCH  11  12
ATOM     12  N   UNL     1      -8.821  16.737  66.099  0.00  0.00    -0.214 NA
BRANCH  12  13
ATOM     13  C   UNL     1      -8.084  16.342  67.268  0.00  0.00    +0.060 C 
ATOM     14  C   UNL     1      -8.981  16.464  68.495  0.00  0.00    +0.017 C 
ATOM     15  C   UNL     1      -6.844  17.159  67.503  0.00  0.00    +0.017 C 
ATOM     16  C   UNL     1      -7.725  14.868  67.110  0.00  0.00    +0.017 C 
ENDBRANCH  12  13
ENDBRANCH  11  12
ENDBRANCH   1  11
TORSDOF 4
ENDMDL
