MODEL 1
REMARK VINA RESULT:      -7.1      0.000      0.000
REMARK  Name = 
REMARK  8 active torsions:
REMARK  status: ('A' for Active; 'I' for Inactive)
REMARK    1  A    between atoms: C_2  and  C_4
REMARK    2  A    between atoms: C_4  and  O_5
REMARK    3  A    between atoms: O_5  and  C_6
REMARK    4  A    between atoms: C_6  and  C_7
REMARK    5  A    between atoms: C_7  and  N_8
REMARK    6  A    between atoms: N_11  and  C_12
REMARK    7  A    between atoms: C_12  and  C_13
REMARK    8  A    between atoms: C_12  and  C_19
REMARK                            x       y       z     vdW  Elec       q    Type
REMARK                         _______ _______ _______ _____ _____    ______ ____
ROOT
ATOM      1  C   UNL     1     -11.400  13.826  70.200  0.00  0.00    +0.103 C 
ENDROOT
BRANCH   1   2
ATOM      2  C   UNL     1     -12.133  12.381  70.261  0.00  0.00    -0.004 A 
ATOM      3  C   UNL     1     -12.809  12.143  71.454  0.00  0.00    -0.002 A 
ATOM      4  C   UNL     1     -13.257  10.917  71.848  0.00  0.00    +0.011 A 
ATOM      5  C   UNL     1     -12.711   9.820  71.205  0.00  0.00    +0.058 A 
ATOM      6 CL   UNL     1     -12.889   8.298  72.069  0.00  0.00    -0.082 Cl
ATOM      7  C   UNL     1     -11.777  10.023  70.212  0.00  0.00    +0.011 A 
ATOM      8  C   UNL     1     -11.310  11.300  69.922  0.00  0.00    -0.002 A 
ENDBRANCH   1   2
BRANCH   1   9
ATOM      9  C   UNL     1     -12.330  14.402  71.386  0.00  0.00    -0.004 A 
ATOM     10  C   UNL     1     -11.551  15.230  72.197  0.00  0.00    -0.003 A 
ATOM     11  C   UNL     1     -12.157  15.538  73.412  0.00  0.00    -0.000 A 
ATOM     12  C   UNL     1     -13.524  15.785  73.341  0.00  0.00    -0.000 A 
ATOM     13  C   UNL     1     -14.204  15.556  72.151  0.00  0.00    -0.000 A 
ATOM     14  C   UNL     1     -13.577  14.792  71.194  0.00  0.00    -0.003 A 
ENDBRANCH   1   9
BRANCH   1  18
ATOM     15  N   UNL     1      -9.949  15.173  67.515  0.00  0.00    -0.268 NA
ATOM     16  C   UNL     1     -10.285  13.796  67.760  0.00  0.00    +0.090 C 
ATOM     17  C   UNL     1     -11.758  13.541  67.928  0.00  0.00    +0.090 C 
ATOM     18  N   UNL     1     -12.335  14.324  69.029  0.00  0.00    -0.264 NA
ATOM     19  C   UNL     1     -11.941  15.657  68.682  0.00  0.00    +0.090 C 
ATOM     20  C   UNL     1     -10.477  15.915  68.659  0.00  0.00    +0.090 C 
BRANCH  15  21
ATOM     21  C   UNL     1     -10.583  15.723  66.341  0.00  0.00    +0.105 C 
BRANCH  21  22
ATOM     22  C   UNL     1     -10.080  14.920  65.148  0.00  0.00    +0.160 C 
BRANCH  22  23
ATOM     23  O   UNL     1     -11.230  14.405  64.527  0.00  0.00    -0.341 OA
BRANCH  23  24
ATOM     24  C   UNL     1     -11.071  13.040  64.247  0.00  0.00    +0.257 C 
BRANCH  24  26
ATOM     25  O   UNL     1     -13.096  12.789  64.971  0.00  0.00    -0.243 OA
ATOM     26  C   UNL     1     -12.457  12.477  64.272  0.00  0.00    +0.394 C 
ATOM     27  O   UNL     1     -12.877  11.810  63.114  0.00  0.00    -0.243 OA
ENDBRANCH  24  26
ENDBRANCH  23  24
ENDBRANCH  22  23
ENDBRANCH  21  22
ENDBRANCH  15  21
ENDBRANCH   1  18
TORSDOF 8
ENDMDL
MODEL 2
REMARK VINA RESULT:      -7.0      2.253      3.223
REMARK  Name = 
REMARK  8 active torsions:
REMARK  status: ('A' for Active; 'I' for Inactive)
REMARK    1  A    between atoms: C_2  and  C_4
REMARK    2  A    between atoms: C_4  and  O_5
REMARK    3  A    between atoms: O_5  and  C_6
REMARK    4  A    between atoms: C_6  and  C_7
REMARK    5  A    between atoms: C_7  and  N_8
REMARK    6  A    between atoms: N_11  and  C_12
REMARK    7  A    between atoms: C_12  and  C_13
REMARK    8  A    between atoms: C_12  and  C_19
REMARK                            x       y       z     vdW  Elec       q    Type
REMARK                         _______ _______ _______ _____ _____    ______ ____
ROOT
ATOM      1  C   UNL     1     -11.346  13.748  70.231  0.00  0.00    +0.103 C 
ENDROOT
BRANCH   1   2
ATOM      2  C   UNL     1     -12.120  12.322  70.263  0.00  0.00    -0.004 A 
ATOM      3  C   UNL     1     -12.807  12.082  71.449  0.00  0.00    -0.002 A 
ATOM      4  C   UNL     1     -13.291  10.862  71.818  0.00  0.00    +0.011 A 
ATOM      5  C   UNL     1     -12.773   9.762  71.158  0.00  0.00    +0.058 A 
ATOM      6 CL   UNL     1     -12.997   8.231  71.993  0.00  0.00    -0.082 Cl
ATOM      7  C   UNL     1     -11.828   9.957  70.173  0.00  0.00    +0.011 A 
ATOM      8  C   UNL     1     -11.325  11.225  69.907  0.00  0.00    -0.002 A 
ENDBRANCH   1   2
BRANCH   1   9
ATOM      9  C   UNL     1     -12.334  14.364  71.347  0.00  0.00    -0.004 A 
ATOM     10  C   UNL     1     -11.589  15.188  72.193  0.00  0.00    -0.003 A 
ATOM     11  C   UNL     1     -12.262  15.530  73.362  0.00  0.00    -0.000 A 
ATOM     12  C   UNL     1     -13.616  15.804  73.203  0.00  0.00    -0.000 A 
ATOM     13  C   UNL     1     -14.226  15.571  71.977  0.00  0.00    -0.000 A 
ATOM     14  C   UNL     1     -13.558  14.777  71.073  0.00  0.00    -0.003 A 
ENDBRANCH   1   9
BRANCH   1  18
ATOM     15  N   UNL     1      -9.705  15.169  67.698  0.00  0.00    -0.268 NA
ATOM     16  C   UNL     1     -10.036  13.782  67.891  0.00  0.00    +0.090 C 
ATOM     17  C   UNL     1     -11.513  13.500  67.933  0.00  0.00    +0.090 C 
ATOM     18  N   UNL     1     -12.191  14.253  68.996  0.00  0.00    -0.264 NA
ATOM     19  C   UNL     1     -11.794  15.598  68.707  0.00  0.00    +0.090 C 
ATOM     20  C   UNL     1     -10.338  15.880  68.808  0.00  0.00    +0.090 C 
BRANCH  15  21
ATOM     21  C   UNL     1     -10.251  15.730  66.486  0.00  0.00    +0.105 C 
BRANCH  21  22
ATOM     22  C   UNL     1      -9.235  16.741  65.969  0.00  0.00    +0.160 C 
BRANCH  22  23
ATOM     23  O   UNL     1      -9.954  17.932  65.772  0.00  0.00    -0.341 OA
BRANCH  23  24
ATOM     24  C   UNL     1      -9.314  19.006  66.408  0.00  0.00    +0.257 C 
BRANCH  24  26
ATOM     25  O   UNL     1     -11.171  19.249  67.493  0.00  0.00    -0.243 OA
ATOM     26  C   UNL     1     -10.182  19.331  67.582  0.00  0.00    +0.394 C 
ATOM     27  O   UNL     1      -9.543  19.395  68.828  0.00  0.00    -0.243 OA
ENDBRANCH  24  26
ENDBRANCH  23  24
ENDBRANCH  22  23
ENDBRANCH  21  22
ENDBRANCH  15  21
ENDBRANCH   1  18
TORSDOF 8
ENDMDL
MODEL 3
REMARK VINA RESULT:      -6.7      3.683      6.435
REMARK  Name = 
REMARK  8 active torsions:
REMARK  status: ('A' for Active; 'I' for Inactive)
REMARK    1  A    between atoms: C_2  and  C_4
REMARK    2  A    between atoms: C_4  and  O_5
REMARK    3  A    between atoms: O_5  and  C_6
REMARK    4  A    between atoms: C_6  and  C_7
REMARK    5  A    between atoms: C_7  and  N_8
REMARK    6  A    between atoms: N_11  and  C_12
REMARK    7  A    between atoms: C_12  and  C_13
REMARK    8  A    between atoms: C_12  and  C_19
REMARK                            x       y       z     vdW  Elec       q    Type
REMARK                         _______ _______ _______ _____ _____    ______ ____
ROOT
ATOM      1  C   UNL     1     -11.371  14.757  67.272  0.00  0.00    +0.103 C 
ENDROOT
BRANCH   1   2
ATOM      2  C   UNL     1     -11.268  13.687  68.487  0.00  0.00    -0.004 A 
ATOM      3  C   UNL     1     -11.438  12.365  68.088  0.00  0.00    -0.002 A 
ATOM      4  C   UNL     1     -11.669  11.331  68.945  0.00  0.00    +0.011 A 
ATOM      5  C   UNL     1     -12.099  11.663  70.218  0.00  0.00    +0.058 A 
ATOM      6 CL   UNL     1     -12.883  10.354  71.093  0.00  0.00    -0.082 Cl
ATOM      7  C   UNL     1     -12.251  12.993  70.546  0.00  0.00    +0.011 A 
ATOM      8  C   UNL     1     -12.074  13.989  69.593  0.00  0.00    -0.002 A 
ENDBRANCH   1   2
BRANCH   1   9
ATOM      9  C   UNL     1     -11.354  13.580  66.170  0.00  0.00    -0.004 A 
ATOM     10  C   UNL     1     -12.478  13.719  65.354  0.00  0.00    -0.003 A 
ATOM     11  C   UNL     1     -12.732  12.598  64.569  0.00  0.00    -0.000 A 
ATOM     12  C   UNL     1     -11.603  11.989  64.032  0.00  0.00    -0.000 A 
ATOM     13  C   UNL     1     -10.339  12.412  64.426  0.00  0.00    -0.000 A 
ATOM     14  C   UNL     1     -10.250  13.181  65.564  0.00  0.00    -0.003 A 
ENDBRANCH   1   9
BRANCH   1  18
ATOM     15  N   UNL     1     -10.268  17.905  67.239  0.00  0.00    -0.268 NA
ATOM     16  C   UNL     1     -10.554  17.064  68.371  0.00  0.00    +0.090 C 
ATOM     17  C   UNL     1      -9.695  15.833  68.458  0.00  0.00    +0.090 C 
ATOM     18  N   UNL     1      -9.809  14.991  67.259  0.00  0.00    -0.264 NA
ATOM     19  C   UNL     1      -9.508  15.921  66.213  0.00  0.00    +0.090 C 
ATOM     20  C   UNL     1     -10.456  17.057  66.063  0.00  0.00    +0.090 C 
BRANCH  15  21
ATOM     21  C   UNL     1      -8.902  18.370  67.195  0.00  0.00    +0.105 C 
BRANCH  21  22
ATOM     22  C   UNL     1      -8.723  19.330  68.365  0.00  0.00    +0.160 C 
BRANCH  22  23
ATOM     23  O   UNL     1      -7.451  19.052  68.891  0.00  0.00    -0.341 OA
BRANCH  23  24
ATOM     24  C   UNL     1      -6.452  19.354  67.953  0.00  0.00    +0.257 C 
BRANCH  24  26
ATOM     25  O   UNL     1      -5.576  21.062  68.953  0.00  0.00    -0.243 OA
ATOM     26  C   UNL     1      -6.140  20.800  68.175  0.00  0.00    +0.394 C 
ATOM     27  O   UNL     1      -6.369  21.658  67.091  0.00  0.00    -0.243 OA
ENDBRANCH  24  26
ENDBRANCH  23  24
ENDBRANCH  22  23
ENDBRANCH  21  22
ENDBRANCH  15  21
ENDBRANCH   1  18
TORSDOF 8
ENDMDL
MODEL 4
REMARK VINA RESULT:      -6.7      4.096      6.718
REMARK  Name = 
REMARK  8 active torsions:
REMARK  status: ('A' for Active; 'I' for Inactive)
REMARK    1  A    between atoms: C_2  and  C_4
REMARK    2  A    between atoms: C_4  and  O_5
REMARK    3  A    between atoms: O_5  and  C_6
REMARK    4  A    between atoms: C_6  and  C_7
REMARK    5  A    between atoms: C_7  and  N_8
REMARK    6  A    between atoms: N_11  and  C_12
REMARK    7  A    between atoms: C_12  and  C_13
REMARK    8  A    between atoms: C_12  and  C_19
REMARK                            x       y       z     vdW  Elec       q    Type
REMARK                         _______ _______ _______ _____ _____    ______ ____
ROOT
ATOM      1  C   UNL     1     -10.949  15.059  67.509  0.00  0.00    +0.103 C 
ENDROOT
BRANCH   1   2
ATOM      2  C   UNL     1     -11.026  14.006  68.740  0.00  0.00    -0.004 A 
ATOM      3  C   UNL     1     -11.009  12.672  68.341  0.00  0.00    -0.002 A 
ATOM      4  C   UNL     1     -11.339  11.627  69.151  0.00  0.00    +0.011 A 
ATOM      5  C   UNL     1     -12.051  11.931  70.298  0.00  0.00    +0.058 A 
ATOM      6 CL   UNL     1     -12.903  10.570  71.016  0.00  0.00    -0.082 Cl
ATOM      7  C   UNL     1     -12.367  13.247  70.560  0.00  0.00    +0.011 A 
ATOM      8  C   UNL     1     -12.067  14.250  69.645  0.00  0.00    -0.002 A 
ENDBRANCH   1   2
BRANCH   1   9
ATOM      9  C   UNL     1     -11.118  13.878  66.424  0.00  0.00    -0.004 A 
ATOM     10  C   UNL     1     -12.344  14.042  65.777  0.00  0.00    -0.003 A 
ATOM     11  C   UNL     1     -12.734  12.925  65.044  0.00  0.00    -0.000 A 
ATOM     12  C   UNL     1     -11.709  12.286  64.356  0.00  0.00    -0.000 A 
ATOM     13  C   UNL     1     -10.392  12.679  64.562  0.00  0.00    -0.000 A 
ATOM     14  C   UNL     1     -10.122  13.449  65.669  0.00  0.00    -0.003 A 
ENDBRANCH   1   9
BRANCH   1  18
ATOM     15  N   UNL     1      -9.349  17.982  67.661  0.00  0.00    -0.268 NA
ATOM     16  C   UNL     1      -9.774  17.132  68.741  0.00  0.00    +0.090 C 
ATOM     17  C   UNL     1      -9.127  15.774  68.750  0.00  0.00    +0.090 C 
ATOM     18  N   UNL     1      -9.370  15.037  67.503  0.00  0.00    -0.264 NA
ATOM     19  C   UNL     1      -8.916  15.967  66.513  0.00  0.00    +0.090 C 
ATOM     20  C   UNL     1      -9.666  17.249  66.437  0.00  0.00    +0.090 C 
BRANCH  15  21
ATOM     21  C   UNL     1      -7.926  18.221  67.640  0.00  0.00    +0.105 C 
BRANCH  21  22
ATOM     22  C   UNL     1      -7.641  19.301  68.676  0.00  0.00    +0.160 C 
BRANCH  22  23
ATOM     23  O   UNL     1      -6.644  18.771  69.511  0.00  0.00    -0.341 OA
BRANCH  23  24
ATOM     24  C   UNL     1      -5.652  19.729  69.765  0.00  0.00    +0.257 C 
BRANCH  24  26
ATOM     25  O   UNL     1      -6.067  20.595  71.706  0.00  0.00    -0.243 OA
ATOM     26  C   UNL     1      -5.596  19.839  71.256  0.00  0.00    +0.394 C 
ATOM     27  O   UNL     1      -5.183  18.694  71.949  0.00  0.00    -0.243 OA
ENDBRANCH  24  26
ENDBRANCH  23  24
ENDBRANCH  22  23
ENDBRANCH  21  22
ENDBRANCH  15  21
ENDBRANCH   1  18
TORSDOF 8
ENDMDL
MODEL 5
REMARK VINA RESULT:      -6.4      4.609      6.735
REMARK  Name = 
REMARK  8 active torsions:
REMARK  status: ('A' for Active; 'I' for Inactive)
REMARK    1  A    between atoms: C_2  and  C_4
REMARK    2  A    between atoms: C_4  and  O_5
REMARK    3  A    between atoms: O_5  and  C_6
REMARK    4  A    between atoms: C_6  and  C_7
REMARK    5  A    between atoms: C_7  and  N_8
REMARK    6  A    between atoms: N_11  and  C_12
REMARK    7  A    between atoms: C_12  and  C_13
REMARK    8  A    between atoms: C_12  and  C_19
REMARK                            x       y       z     vdW  Elec       q    Type
REMARK                         _______ _______ _______ _____ _____    ______ ____
ROOT
ATOM      1  C   UNL     1      -9.865  15.392  67.458  0.00  0.00    +0.103 C 
ENDROOT
BRANCH   1   2
ATOM      2  C   UNL     1     -10.602  14.891  66.102  0.00  0.00    -0.004 A 
ATOM      3  C   UNL     1     -11.925  14.503  66.292  0.00  0.00    -0.002 A 
ATOM      4  C   UNL     1     -12.653  13.797  65.382  0.00  0.00    +0.011 A 
ATOM      5  C   UNL     1     -11.942  13.141  64.392  0.00  0.00    +0.058 A 
ATOM      6 CL   UNL     1     -12.822  11.846  63.591  0.00  0.00    -0.082 Cl
ATOM      7  C   UNL     1     -10.569  13.250  64.371  0.00  0.00    +0.011 A 
ATOM      8  C   UNL     1      -9.890  13.923  65.381  0.00  0.00    -0.002 A 
ENDBRANCH   1   2
BRANCH   1   9
ATOM      9  C   UNL     1     -10.977  14.679  68.384  0.00  0.00    -0.004 A 
ATOM     10  C   UNL     1     -10.468  13.457  68.827  0.00  0.00    -0.003 A 
ATOM     11  C   UNL     1     -11.437  12.622  69.375  0.00  0.00    -0.000 A 
ATOM     12  C   UNL     1     -12.386  13.263  70.164  0.00  0.00    -0.000 A 
ATOM     13  C   UNL     1     -12.411  14.652  70.220  0.00  0.00    -0.000 A 
ATOM     14  C   UNL     1     -11.720  15.342  69.252  0.00  0.00    -0.003 A 
ENDBRANCH   1   9
BRANCH   1  18
ATOM     15  N   UNL     1      -7.962  18.131  67.381  0.00  0.00    -0.268 NA
ATOM     16  C   UNL     1      -8.474  17.359  66.280  0.00  0.00    +0.090 C 
ATOM     17  C   UNL     1      -9.975  17.330  66.192  0.00  0.00    +0.090 C 
ATOM     18  N   UNL     1     -10.592  16.793  67.412  0.00  0.00    -0.264 NA
ATOM     19  C   UNL     1     -10.016  17.625  68.426  0.00  0.00    +0.090 C 
ATOM     20  C   UNL     1      -8.540  17.529  68.582  0.00  0.00    +0.090 C 
BRANCH  15  21
ATOM     21  C   UNL     1      -8.386  19.510  67.368  0.00  0.00    +0.105 C 
BRANCH  21  22
ATOM     22  C   UNL     1      -7.249  20.318  66.754  0.00  0.00    +0.160 C 
BRANCH  22  23
ATOM     23  O   UNL     1      -6.846  21.221  67.751  0.00  0.00    -0.341 OA
BRANCH  23  24
ATOM     24  C   UNL     1      -5.554  20.913  68.203  0.00  0.00    +0.257 C 
BRANCH  24  26
ATOM     25  O   UNL     1      -6.178  19.901  70.013  0.00  0.00    -0.243 OA
ATOM     26  C   UNL     1      -5.701  20.710  69.678  0.00  0.00    +0.394 C 
ATOM     27  O   UNL     1      -4.866  21.481  70.497  0.00  0.00    -0.243 OA
ENDBRANCH  24  26
ENDBRANCH  23  24
ENDBRANCH  22  23
ENDBRANCH  21  22
ENDBRANCH  15  21
ENDBRANCH   1  18
TORSDOF 8
ENDMDL
MODEL 6
REMARK VINA RESULT:      -6.2      3.783      6.372
REMARK  Name = 
REMARK  8 active torsions:
REMARK  status: ('A' for Active; 'I' for Inactive)
REMARK    1  A    between atoms: C_2  and  C_4
REMARK    2  A    between atoms: C_4  and  O_5
REMARK    3  A    between atoms: O_5  and  C_6
REMARK    4  A    between atoms: C_6  and  C_7
REMARK    5  A    between atoms: C_7  and  N_8
REMARK    6  A    between atoms: N_11  and  C_12
REMARK    7  A    between atoms: C_12  and  C_13
REMARK    8  A    between atoms: C_12  and  C_19
REMARK                            x       y       z     vdW  Elec       q    Type
REMARK                         _______ _______ _______ _____ _____    ______ ____
ROOT
ATOM      1  C   UNL     1     -10.846  12.639  68.685  0.00  0.00    +0.103 C 
ENDROOT
BRANCH   1   2
ATOM      2  C   UNL     1     -12.042  13.365  69.506  0.00  0.00    -0.004 A 
ATOM      3  C   UNL     1     -11.889  14.744  69.620  0.00  0.00    -0.002 A 
ATOM      4  C   UNL     1     -12.599  15.523  70.483  0.00  0.00    +0.011 A 
ATOM      5  C   UNL     1     -13.238  14.874  71.525  0.00  0.00    +0.058 A 
ATOM      6 CL   UNL     1     -13.673  15.908  72.879  0.00  0.00    -0.082 Cl
ATOM      7  C   UNL     1     -13.136  13.503  71.621  0.00  0.00    +0.011 A 
ATOM      8  C   UNL     1     -12.327  12.784  70.748  0.00  0.00    -0.002 A 
ENDBRANCH   1   2
BRANCH   1   9
ATOM      9  C   UNL     1     -11.055  13.616  67.419  0.00  0.00    -0.004 A 
ATOM     10  C   UNL     1      -9.802  13.928  66.888  0.00  0.00    -0.003 A 
ATOM     11  C   UNL     1      -9.833  14.994  65.994  0.00  0.00    -0.000 A 
ATOM     12  C   UNL     1     -10.931  15.014  65.141  0.00  0.00    -0.000 A 
ATOM     13  C   UNL     1     -11.968  14.110  65.333  0.00  0.00    -0.000 A 
ATOM     14  C   UNL     1     -12.028  13.455  66.541  0.00  0.00    -0.003 A 
ENDBRANCH   1   9
BRANCH   1  18
ATOM     15  N   UNL     1      -9.704   9.504  68.664  0.00  0.00    -0.268 NA
ATOM     16  C   UNL     1     -10.410  10.198  69.709  0.00  0.00    +0.090 C 
ATOM     17  C   UNL     1     -11.801  10.629  69.332  0.00  0.00    +0.090 C 
ATOM     18  N   UNL     1     -11.810  11.506  68.154  0.00  0.00    -0.264 NA
ATOM     19  C   UNL     1     -11.090  10.723  67.195  0.00  0.00    +0.090 C 
ATOM     20  C   UNL     1      -9.672  10.429  67.532  0.00  0.00    +0.090 C 
BRANCH  15  21
ATOM     21  C   UNL     1     -10.377   8.314  68.203  0.00  0.00    +0.105 C 
BRANCH  21  22
ATOM     22  C   UNL     1     -10.109   7.225  69.235  0.00  0.00    +0.160 C 
BRANCH  22  23
ATOM     23  O   UNL     1     -11.354   6.624  69.481  0.00  0.00    -0.341 OA
BRANCH  23  24
ATOM     24  C   UNL     1     -11.479   6.285  70.837  0.00  0.00    +0.257 C 
BRANCH  24  26
ATOM     25  O   UNL     1     -13.374   7.213  71.325  0.00  0.00    -0.243 OA
ATOM     26  C   UNL     1     -12.387   7.327  71.412  0.00  0.00    +0.394 C 
ATOM     27  O   UNL     1     -11.812   8.214  72.330  0.00  0.00    -0.243 OA
ENDBRANCH  24  26
ENDBRANCH  23  24
ENDBRANCH  22  23
ENDBRANCH  21  22
ENDBRANCH  15  21
ENDBRANCH   1  18
TORSDOF 8
ENDMDL
MODEL 7
REMARK VINA RESULT:      -6.2      3.733      5.723
REMARK  Name = 
REMARK  8 active torsions:
REMARK  status: ('A' for Active; 'I' for Inactive)
REMARK    1  A    between atoms: C_2  and  C_4
REMARK    2  A    between atoms: C_4  and  O_5
REMARK    3  A    between atoms: O_5  and  C_6
REMARK    4  A    between atoms: C_6  and  C_7
REMARK    5  A    between atoms: C_7  and  N_8
REMARK    6  A    between atoms: N_11  and  C_12
REMARK    7  A    between atoms: C_12  and  C_13
REMARK    8  A    between atoms: C_12  and  C_19
REMARK                            x       y       z     vdW  Elec       q    Type
REMARK                         _______ _______ _______ _____ _____    ______ ____
ROOT
ATOM      1  C   UNL     1      -9.430  13.910  67.514  0.00  0.00    +0.103 C 
ENDROOT
BRANCH   1   2
ATOM      2  C   UNL     1     -10.221  13.784  66.104  0.00  0.00    -0.004 A 
ATOM      3  C   UNL     1     -11.602  13.687  66.241  0.00  0.00    -0.002 A 
ATOM      4  C   UNL     1     -12.444  13.299  65.241  0.00  0.00    +0.011 A 
ATOM      5  C   UNL     1     -11.871  12.643  64.166  0.00  0.00    +0.058 A 
ATOM      6 CL   UNL     1     -12.998  11.708  63.191  0.00  0.00    -0.082 Cl
ATOM      7  C   UNL     1     -10.509  12.437  64.157  0.00  0.00    +0.011 A 
ATOM      8  C   UNL     1      -9.726  12.790  65.250  0.00  0.00    -0.002 A 
ENDBRANCH   1   2
BRANCH   1   9
ATOM      9  C   UNL     1     -10.562  13.054  68.281  0.00  0.00    -0.004 A 
ATOM     10  C   UNL     1     -10.061  11.774  68.524  0.00  0.00    -0.003 A 
ATOM     11  C   UNL     1     -11.042  10.861  68.902  0.00  0.00    -0.000 A 
ATOM     12  C   UNL     1     -12.010  11.362  69.764  0.00  0.00    -0.000 A 
ATOM     13  C   UNL     1     -12.038  12.722  70.053  0.00  0.00    -0.000 A 
ATOM     14  C   UNL     1     -11.326  13.563  69.230  0.00  0.00    -0.003 A 
ENDBRANCH   1   9
BRANCH   1  18
ATOM     15  N   UNL     1      -7.376  16.463  68.141  0.00  0.00    -0.268 NA
ATOM     16  C   UNL     1      -7.911  16.028  66.879  0.00  0.00    +0.090 C 
ATOM     17  C   UNL     1      -9.410  16.109  66.783  0.00  0.00    +0.090 C 
ATOM     18  N   UNL     1     -10.076  15.316  67.826  0.00  0.00    -0.264 NA
ATOM     19  C   UNL     1      -9.471  15.828  69.020  0.00  0.00    +0.090 C 
ATOM     20  C   UNL     1      -8.006  15.611  69.148  0.00  0.00    +0.090 C 
BRANCH  15  21
ATOM     21  C   UNL     1      -7.722  17.822  68.478  0.00  0.00    +0.105 C 
BRANCH  21  22
ATOM     22  C   UNL     1      -7.071  18.719  67.432  0.00  0.00    +0.160 C 
BRANCH  22  23
ATOM     23  O   UNL     1      -8.035  19.689  67.113  0.00  0.00    -0.341 OA
BRANCH  23  24
ATOM     24  C   UNL     1      -9.118  19.619  68.002  0.00  0.00    +0.257 C 
BRANCH  24  26
ATOM     25  O   UNL     1     -11.210  19.299  67.544  0.00  0.00    -0.243 OA
ATOM     26  C   UNL     1     -10.326  19.501  67.128  0.00  0.00    +0.394 C 
ATOM     27  O   UNL     1     -10.208  20.017  65.831  0.00  0.00    -0.243 OA
ENDBRANCH  24  26
ENDBRANCH  23  24
ENDBRANCH  22  23
ENDBRANCH  21  22
ENDBRANCH  15  21
ENDBRANCH   1  18
TORSDOF 8
ENDMDL
MODEL 8
REMARK VINA RESULT:      -6.1      2.792      4.591
REMARK  Name = 
REMARK  8 active torsions:
REMARK  status: ('A' for Active; 'I' for Inactive)
REMARK    1  A    between atoms: C_2  and  C_4
REMARK    2  A    between atoms: C_4  and  O_5
REMARK    3  A    between atoms: O_5  and  C_6
REMARK    4  A    between atoms: C_6  and  C_7
REMARK    5  A    between atoms: C_7  and  N_8
REMARK    6  A    between atoms: N_11  and  C_12
REMARK    7  A    between atoms: C_12  and  C_13
REMARK    8  A    between atoms: C_12  and  C_19
REMARK                            x       y       z     vdW  Elec       q    Type
REMARK                         _______ _______ _______ _____ _____    ______ ____
ROOT
ATOM      1  C   UNL     1     -10.402  15.050  68.085  0.00  0.00    +0.103 C 
ENDROOT
BRANCH   1   2
ATOM      2  C   UNL     1     -11.483  15.113  69.292  0.00  0.00    -0.004 A 
ATOM      3  C   UNL     1     -11.200  16.082  70.251  0.00  0.00    -0.002 A 
ATOM      4  C   UNL     1     -11.792  16.140  71.478  0.00  0.00    +0.011 A 
ATOM      5  C   UNL     1     -12.432  14.993  71.913  0.00  0.00    +0.058 A 
ATOM      6 CL   UNL     1     -12.701  14.917  73.650  0.00  0.00    -0.082 Cl
ATOM      7  C   UNL     1     -12.450  13.885  71.094  0.00  0.00    +0.011 A 
ATOM      8  C   UNL     1     -11.755  13.876  69.890  0.00  0.00    -0.002 A 
ENDBRANCH   1   2
BRANCH   1   9
ATOM      9  C   UNL     1     -10.023  16.606  68.279  0.00  0.00    -0.004 A 
ATOM     10  C   UNL     1      -8.637  16.740  68.180  0.00  0.00    -0.003 A 
ATOM     11  C   UNL     1      -8.169  17.972  68.628  0.00  0.00    -0.000 A 
ATOM     12  C   UNL     1      -8.960  19.062  68.283  0.00  0.00    -0.000 A 
ATOM     13  C   UNL     1     -10.198  18.853  67.686  0.00  0.00    -0.000 A 
ATOM     14  C   UNL     1     -10.735  17.589  67.756  0.00  0.00    -0.003 A 
ENDBRANCH   1   9
BRANCH   1  18
ATOM     15  N   UNL     1     -10.372  13.132  65.356  0.00  0.00    -0.268 NA
ATOM     16  C   UNL     1     -11.057  12.913  66.602  0.00  0.00    +0.090 C 
ATOM     17  C   UNL     1     -12.089  13.958  66.931  0.00  0.00    +0.090 C 
ATOM     18  N   UNL     1     -11.512  15.307  66.991  0.00  0.00    -0.264 NA
ATOM     19  C   UNL     1     -10.864  15.410  65.717  0.00  0.00    +0.090 C 
ATOM     20  C   UNL     1      -9.754  14.452  65.475  0.00  0.00    +0.090 C 
BRANCH  15  21
ATOM     21  C   UNL     1     -11.253  13.192  64.215  0.00  0.00    +0.105 C 
BRANCH  21  22
ATOM     22  C   UNL     1     -11.147  11.850  63.501  0.00  0.00    +0.160 C 
BRANCH  22  23
ATOM     23  O   UNL     1      -9.772  11.602  63.366  0.00  0.00    -0.341 OA
BRANCH  23  24
ATOM     24  C   UNL     1      -9.530  10.228  63.217  0.00  0.00    +0.257 C 
BRANCH  24  26
ATOM     25  O   UNL     1      -7.457   9.675  63.512  0.00  0.00    -0.243 OA
ATOM     26  C   UNL     1      -8.278   9.971  63.995  0.00  0.00    +0.394 C 
ATOM     27  O   UNL     1      -8.238  10.489  65.296  0.00  0.00    -0.243 OA
ENDBRANCH  24  26
ENDBRANCH  23  24
ENDBRANCH  22  23
ENDBRANCH  21  22
ENDBRANCH  15  21
ENDBRANCH   1  18
TORSDOF 8
ENDMDL
MODEL 9
REMARK VINA RESULT:      -6.1      3.175      5.704
REMARK  Name = 
REMARK  8 active torsions:
REMARK  status: ('A' for Active; 'I' for Inactive)
REMARK    1  A    between atoms: C_2  and  C_4
REMARK    2  A    between atoms: C_4  and  O_5
REMARK    3  A    between atoms: O_5  and  C_6
REMARK    4  A    between atoms: C_6  and  C_7
REMARK    5  A    between atoms: C_7  and  N_8
REMARK    6  A    between atoms: N_11  and  C_12
REMARK    7  A    between atoms: C_12  and  C_13
REMARK    8  A    between atoms: C_12  and  C_19
REMARK                            x       y       z     vdW  Elec       q    Type
REMARK                         _______ _______ _______ _____ _____    ______ ____
ROOT
ATOM      1  C   UNL     1     -10.888  11.108  67.800  0.00  0.00    +0.103 C 
ENDROOT
BRANCH   1   2
ATOM      2  C   UNL     1     -10.837  10.744  69.380  0.00  0.00    -0.004 A 
ATOM      3  C   UNL     1      -9.900   9.767  69.702  0.00  0.00    -0.002 A 
ATOM      4  C   UNL     1      -9.863   9.106  70.893  0.00  0.00    +0.011 A 
ATOM      5  C   UNL     1     -11.009   9.157  71.668  0.00  0.00    +0.058 A 
ATOM      6 CL   UNL     1     -11.127   7.898  72.890  0.00  0.00    -0.082 Cl
ATOM      7  C   UNL     1     -12.095   9.872  71.209  0.00  0.00    +0.011 A 
ATOM      8  C   UNL     1     -12.085  10.454  69.947  0.00  0.00    -0.002 A 
ENDBRANCH   1   2
BRANCH   1   9
ATOM      9  C   UNL     1      -9.809   9.960  67.452  0.00  0.00    -0.004 A 
ATOM     10  C   UNL     1     -10.403   9.042  66.584  0.00  0.00    -0.003 A 
ATOM     11  C   UNL     1      -9.681   7.859  66.456  0.00  0.00    -0.000 A 
ATOM     12  C   UNL     1      -8.301   8.015  66.402  0.00  0.00    -0.000 A 
ATOM     13  C   UNL     1      -7.740   9.265  66.636  0.00  0.00    -0.000 A 
ATOM     14  C   UNL     1      -8.533  10.219  67.230  0.00  0.00    -0.003 A 
ENDBRANCH   1   9
BRANCH   1  18
ATOM     15  N   UNL     1     -11.568  14.064  66.412  0.00  0.00    -0.268 NA
ATOM     16  C   UNL     1     -11.886  13.597  67.735  0.00  0.00    +0.090 C 
ATOM     17  C   UNL     1     -10.684  13.280  68.582  0.00  0.00    +0.090 C 
ATOM     18  N   UNL     1      -9.823  12.262  67.964  0.00  0.00    -0.264 NA
ATOM     19  C   UNL     1      -9.576  12.827  66.671  0.00  0.00    +0.090 C 
ATOM     20  C   UNL     1     -10.770  13.001  65.802  0.00  0.00    +0.090 C 
BRANCH  15  21
ATOM     21  C   UNL     1     -10.749  15.252  66.399  0.00  0.00    +0.105 C 
BRANCH  21  22
ATOM     22  C   UNL     1     -10.908  15.886  65.023  0.00  0.00    +0.160 C 
BRANCH  22  23
ATOM     23  O   UNL     1     -10.430  17.199  65.154  0.00  0.00    -0.341 OA
BRANCH  23  24
ATOM     24  C   UNL     1     -10.224  17.517  66.505  0.00  0.00    +0.257 C 
BRANCH  24  26
ATOM     25  O   UNL     1     -10.700  19.497  65.770  0.00  0.00    -0.243 OA
ATOM     26  C   UNL     1     -10.486  18.987  66.599  0.00  0.00    +0.394 C 
ATOM     27  O   UNL     1     -10.755  19.489  67.880  0.00  0.00    -0.243 OA
ENDBRANCH  24  26
ENDBRANCH  23  24
ENDBRANCH  22  23
ENDBRANCH  21  22
ENDBRANCH  15  21
ENDBRANCH   1  18
TORSDOF 8
ENDMDL
