MODEL 1
REMARK VINA RESULT:      -7.7      0.000      0.000
REMARK  Name = 
REMARK  5 active torsions:
REMARK  status: ('A' for Active; 'I' for Inactive)
REMARK    1  A    between atoms: C_8  and  N_9
REMARK    2  A    between atoms: C_10  and  C_12
REMARK    3  A    between atoms: N_16  and  C_17
REMARK    4  A    between atoms: N_23  and  C_24
REMARK    5  A    between atoms: C_24  and  C_25
REMARK                            x       y       z     vdW  Elec       q    Type
REMARK                         _______ _______ _______ _____ _____    ______ ____
ROOT
ATOM      1  C   UNL     1     -10.573  12.121  68.192  0.00  0.00    +0.107 A 
ATOM      2  S   UNL     1      -9.107  13.003  68.006  0.00  0.00    -0.045 S 
ATOM      3  C   UNL     1      -9.751  14.425  67.288  0.00  0.00    +0.185 A 
ATOM      4  N   UNL     1      -9.147  15.413  66.446  0.00  0.00    -0.170 NA
ATOM      5  N   UNL     1     -11.067  14.222  67.539  0.00  0.00    -0.221 NA
ATOM      6  C   UNL     1     -11.403  12.939  67.433  0.00  0.00    +0.112 A 
ENDROOT
BRANCH   4   7
ATOM      7  C   UNL     1      -8.905  16.742  66.852  0.00  0.00    +0.158 A 
ATOM      8  N   UNL     1      -9.881  17.674  66.732  0.00  0.00    -0.214 NA
ATOM      9  C   UNL     1      -9.462  18.959  66.821  0.00  0.00    +0.142 A 
ATOM     10  C   UNL     1     -10.250  20.044  66.159  0.00  0.00    +0.074 C 
ATOM     11  N   UNL     1      -8.435  19.210  67.644  0.00  0.00    -0.216 NA
ATOM     12  C   UNL     1      -7.653  18.237  68.164  0.00  0.00    +0.136 A 
ATOM     13  N   UNL     1      -6.384  18.615  68.654  0.00  0.00    -0.290 N 
ATOM     14  C   UNL     1      -5.486  19.433  67.844  0.00  0.00    +0.109 C 
ATOM     15  C   UNL     1      -5.484  20.877  68.289  0.00  0.00    +0.094 C 
ATOM     16  N   UNL     1      -5.353  21.015  69.717  0.00  0.00    -0.268 NA
ATOM     17  C   UNL     1      -6.296  20.214  70.454  0.00  0.00    +0.094 C 
ATOM     18  C   UNL     1      -6.223  18.746  70.099  0.00  0.00    +0.109 C 
ATOM     19  C   UNL     1      -8.038  16.936  67.922  0.00  0.00    +0.070 A 
BRANCH  16  20
ATOM     20  C   UNL     1      -3.997  20.883  70.187  0.00  0.00    +0.108 C 
BRANCH  20  21
ATOM     21  C   UNL     1      -3.840  21.261  71.635  0.00  0.00    +0.199 C 
ATOM     22  O   UNL     1      -3.490  20.175  72.431  0.00  0.00    -0.219 OA
ENDBRANCH  20  21
ENDBRANCH  16  20
ENDBRANCH   4   7
BRANCH   1  24
ATOM     23  N   UNL     1     -10.250  10.048  69.617  0.00  0.00    -0.174 NA
ATOM     24  C   UNL     1     -10.715  10.680  68.444  0.00  0.00    +0.277 C 
ATOM     25  O   UNL     1     -11.277   9.933  67.586  0.00  0.00    -0.267 OA
BRANCH  23  28
ATOM     26  C   UNL     1     -12.601  10.747  71.145  0.00  0.00    +0.032 C 
ATOM     27  C   UNL     1     -12.028   9.368  71.186  0.00  0.00    -0.006 A 
ATOM     28  C   UNL     1     -11.097   9.052  70.207  0.00  0.00    +0.080 A 
ATOM     29  C   UNL     1     -10.669   7.730  70.205  0.00  0.00    +0.073 A 
ATOM     30 CL   UNL     1      -9.804   7.185  68.773  0.00  0.00    -0.081 Cl
ATOM     31  C   UNL     1     -10.850   6.905  71.309  0.00  0.00    +0.013 A 
ATOM     32  C   UNL     1     -11.502   7.378  72.438  0.00  0.00    +0.001 A 
ATOM     33  C   UNL     1     -12.274   8.519  72.258  0.00  0.00    -0.003 A 
ENDBRANCH  23  28
ENDBRANCH   1  24
TORSDOF 5
ENDMDL
MODEL 2
REMARK VINA RESULT:      -7.6      3.198      5.408
REMARK  Name = 
REMARK  5 active torsions:
REMARK  status: ('A' for Active; 'I' for Inactive)
REMARK    1  A    between atoms: C_8  and  N_9
REMARK    2  A    between atoms: C_10  and  C_12
REMARK    3  A    between atoms: N_16  and  C_17
REMARK    4  A    between atoms: N_23  and  C_24
REMARK    5  A    between atoms: C_24  and  C_25
REMARK                            x       y       z     vdW  Elec       q    Type
REMARK                         _______ _______ _______ _____ _____    ______ ____
ROOT
ATOM      1  C   UNL     1     -10.475   9.185  71.401  0.00  0.00    +0.107 A 
ATOM      2  S   UNL     1      -9.906   9.424  69.795  0.00  0.00    -0.045 S 
ATOM      3  C   UNL     1     -11.160  10.452  69.227  0.00  0.00    +0.185 A 
ATOM      4  N   UNL     1     -11.642  10.710  67.904  0.00  0.00    -0.170 NA
ATOM      5  N   UNL     1     -11.738  10.769  70.411  0.00  0.00    -0.221 NA
ATOM      6  C   UNL     1     -11.742   9.742  71.256  0.00  0.00    +0.112 A 
ENDROOT
BRANCH   4   7
ATOM      7  C   UNL     1     -11.480  11.944  67.241  0.00  0.00    +0.158 A 
ATOM      8  N   UNL     1     -12.195  12.209  66.120  0.00  0.00    -0.214 NA
ATOM      9  C   UNL     1     -11.736  13.245  65.379  0.00  0.00    +0.142 A 
ATOM     10  C   UNL     1     -12.021  13.291  63.911  0.00  0.00    +0.074 C 
ATOM     11  N   UNL     1     -11.181  14.269  66.040  0.00  0.00    -0.216 NA
ATOM     12  C   UNL     1     -10.825  14.199  67.342  0.00  0.00    +0.136 A 
ATOM     13  N   UNL     1      -9.891  15.147  67.813  0.00  0.00    -0.290 N 
ATOM     14  C   UNL     1      -8.644  15.387  67.091  0.00  0.00    +0.109 C 
ATOM     15  C   UNL     1      -8.702  16.657  66.276  0.00  0.00    +0.094 C 
ATOM     16  N   UNL     1      -9.225  17.771  67.025  0.00  0.00    -0.268 NA
ATOM     17  C   UNL     1     -10.477  17.479  67.676  0.00  0.00    +0.094 C 
ATOM     18  C   UNL     1     -10.397  16.276  68.588  0.00  0.00    +0.109 C 
ATOM     19  C   UNL     1     -11.185  13.055  68.023  0.00  0.00    +0.070 A 
BRANCH  16  20
ATOM     20  C   UNL     1      -8.256  18.389  67.893  0.00  0.00    +0.108 C 
BRANCH  20  21
ATOM     21  C   UNL     1      -8.016  19.837  67.566  0.00  0.00    +0.199 C 
ATOM     22  O   UNL     1      -7.580  20.020  66.257  0.00  0.00    -0.219 OA
ENDBRANCH  20  21
ENDBRANCH  16  20
ENDBRANCH   4   7
BRANCH   1  24
ATOM     23  N   UNL     1     -10.843   7.010  72.653  0.00  0.00    -0.174 NA
ATOM     24  C   UNL     1     -10.054   8.140  72.345  0.00  0.00    +0.277 C 
ATOM     25  O   UNL     1      -8.935   8.223  72.935  0.00  0.00    -0.267 OA
BRANCH  23  28
ATOM     26  C   UNL     1      -9.963   5.539  70.328  0.00  0.00    +0.032 C 
ATOM     27  C   UNL     1     -10.026   4.898  71.675  0.00  0.00    -0.006 A 
ATOM     28  C   UNL     1     -10.169   5.749  72.762  0.00  0.00    +0.080 A 
ATOM     29  C   UNL     1     -10.112   5.131  74.005  0.00  0.00    +0.073 A 
ATOM     30 CL   UNL     1      -9.898   6.186  75.398  0.00  0.00    -0.081 Cl
ATOM     31  C   UNL     1     -10.289   3.761  74.146  0.00  0.00    +0.013 A 
ATOM     32  C   UNL     1     -10.494   2.962  73.031  0.00  0.00    +0.001 A 
ATOM     33  C   UNL     1     -10.128   3.519  71.812  0.00  0.00    -0.003 A 
ENDBRANCH  23  28
ENDBRANCH   1  24
TORSDOF 5
ENDMDL
MODEL 3
REMARK VINA RESULT:      -7.5      2.996      4.924
REMARK  Name = 
REMARK  5 active torsions:
REMARK  status: ('A' for Active; 'I' for Inactive)
REMARK    1  A    between atoms: C_8  and  N_9
REMARK    2  A    between atoms: C_10  and  C_12
REMARK    3  A    between atoms: N_16  and  C_17
REMARK    4  A    between atoms: N_23  and  C_24
REMARK    5  A    between atoms: C_24  and  C_25
REMARK                            x       y       z     vdW  Elec       q    Type
REMARK                         _______ _______ _______ _____ _____    ______ ____
ROOT
ATOM      1  C   UNL     1     -11.482   8.876  70.983  0.00  0.00    +0.107 A 
ATOM      2  S   UNL     1     -10.658   9.949  69.920  0.00  0.00    -0.045 S 
ATOM      3  C   UNL     1     -11.695  11.310  70.072  0.00  0.00    +0.185 A 
ATOM      4  N   UNL     1     -11.944  12.410  69.190  0.00  0.00    -0.170 NA
ATOM      5  N   UNL     1     -12.405  10.925  71.160  0.00  0.00    -0.221 NA
ATOM      6  C   UNL     1     -12.645   9.617  71.162  0.00  0.00    +0.112 A 
ENDROOT
BRANCH   4   7
ATOM      7  C   UNL     1     -11.554  13.737  69.466  0.00  0.00    +0.158 A 
ATOM      8  N   UNL     1     -11.666  14.226  70.725  0.00  0.00    -0.214 NA
ATOM      9  C   UNL     1     -11.594  15.575  70.824  0.00  0.00    +0.142 A 
ATOM     10  C   UNL     1     -12.252  16.270  71.973  0.00  0.00    +0.074 C 
ATOM     11  N   UNL     1     -10.790  16.208  69.960  0.00  0.00    -0.216 NA
ATOM     12  C   UNL     1     -10.275  15.613  68.861  0.00  0.00    +0.136 A 
ATOM     13  N   UNL     1      -9.809  16.452  67.825  0.00  0.00    -0.290 N 
ATOM     14  C   UNL     1     -10.639  17.538  67.315  0.00  0.00    +0.109 C 
ATOM     15  C   UNL     1     -10.207  18.880  67.856  0.00  0.00    +0.094 C 
ATOM     16  N   UNL     1      -8.782  19.078  67.771  0.00  0.00    -0.268 NA
ATOM     17  C   UNL     1      -8.024  17.989  68.330  0.00  0.00    +0.094 C 
ATOM     18  C   UNL     1      -8.367  16.654  67.709  0.00  0.00    +0.109 C 
ATOM     19  C   UNL     1     -10.500  14.260  68.726  0.00  0.00    +0.070 A 
BRANCH  16  20
ATOM     20  C   UNL     1      -8.333  19.478  66.461  0.00  0.00    +0.108 C 
BRANCH  20  21
ATOM     21  C   UNL     1      -7.058  20.275  66.498  0.00  0.00    +0.199 C 
ATOM     22  O   UNL     1      -7.097  21.295  67.444  0.00  0.00    -0.219 OA
ENDBRANCH  20  21
ENDBRANCH  16  20
ENDBRANCH   4   7
BRANCH   1  24
ATOM     23  N   UNL     1     -10.069   6.769  70.995  0.00  0.00    -0.174 NA
ATOM     24  C   UNL     1     -11.321   7.417  71.071  0.00  0.00    +0.277 C 
ATOM     25  O   UNL     1     -12.335   6.670  71.221  0.00  0.00    -0.267 OA
BRANCH  23  28
ATOM     26  C   UNL     1      -9.714   4.056  70.066  0.00  0.00    +0.032 C 
ATOM     27  C   UNL     1      -9.978   4.357  71.505  0.00  0.00    -0.006 A 
ATOM     28  C   UNL     1      -9.837   5.681  71.899  0.00  0.00    +0.080 A 
ATOM     29  C   UNL     1      -9.980   5.907  73.263  0.00  0.00    +0.073 A 
ATOM     30 CL   UNL     1      -9.436   7.471  73.860  0.00  0.00    -0.081 Cl
ATOM     31  C   UNL     1     -10.589   4.977  74.095  0.00  0.00    +0.013 A 
ATOM     32  C   UNL     1     -11.043   3.770  73.585  0.00  0.00    +0.001 A 
ATOM     33  C   UNL     1     -10.519   3.399  72.353  0.00  0.00    -0.003 A 
ENDBRANCH  23  28
ENDBRANCH   1  24
TORSDOF 5
ENDMDL
MODEL 4
REMARK VINA RESULT:      -7.4      3.901     11.240
REMARK  Name = 
REMARK  5 active torsions:
REMARK  status: ('A' for Active; 'I' for Inactive)
REMARK    1  A    between atoms: C_8  and  N_9
REMARK    2  A    between atoms: C_10  and  C_12
REMARK    3  A    between atoms: N_16  and  C_17
REMARK    4  A    between atoms: N_23  and  C_24
REMARK    5  A    between atoms: C_24  and  C_25
REMARK                            x       y       z     vdW  Elec       q    Type
REMARK                         _______ _______ _______ _____ _____    ______ ____
ROOT
ATOM      1  C   UNL     1     -10.247  14.707  66.431  0.00  0.00    +0.107 A 
ATOM      2  S   UNL     1     -10.481  13.947  67.957  0.00  0.00    -0.045 S 
ATOM      3  C   UNL     1     -11.037  12.419  67.402  0.00  0.00    +0.185 A 
ATOM      4  N   UNL     1     -11.847  11.423  68.036  0.00  0.00    -0.170 NA
ATOM      5  N   UNL     1     -10.700  12.524  66.094  0.00  0.00    -0.221 NA
ATOM      6  C   UNL     1     -10.876  13.759  65.631  0.00  0.00    +0.112 A 
ENDROOT
BRANCH   4   7
ATOM      7  C   UNL     1     -11.364  10.159  68.431  0.00  0.00    +0.158 A 
ATOM      8  N   UNL     1     -10.779   9.343  67.520  0.00  0.00    -0.214 NA
ATOM      9  C   UNL     1     -10.659   8.050  67.902  0.00  0.00    +0.142 A 
ATOM     10  C   UNL     1     -10.593   6.973  66.867  0.00  0.00    +0.074 C 
ATOM     11  N   UNL     1     -10.443   7.815  69.203  0.00  0.00    -0.216 NA
ATOM     12  C   UNL     1     -10.601   8.759  70.158  0.00  0.00    +0.136 A 
ATOM     13  N   UNL     1     -10.761   8.317  71.489  0.00  0.00    -0.290 N 
ATOM     14  C   UNL     1     -11.731   7.276  71.818  0.00  0.00    +0.109 C 
ATOM     15  C   UNL     1     -11.069   5.935  72.028  0.00  0.00    +0.094 C 
ATOM     16  N   UNL     1      -9.913   6.017  72.883  0.00  0.00    -0.268 NA
ATOM     17  C   UNL     1      -8.977   7.034  72.478  0.00  0.00    +0.094 C 
ATOM     18  C   UNL     1      -9.607   8.405  72.380  0.00  0.00    +0.109 C 
ATOM     19  C   UNL     1     -10.870  10.040  69.725  0.00  0.00    +0.070 A 
BRANCH  16  20
ATOM     20  C   UNL     1     -10.235   6.060  74.287  0.00  0.00    +0.108 C 
BRANCH  20  21
ATOM     21  C   UNL     1     -10.247   4.700  74.927  0.00  0.00    +0.199 C 
ATOM     22  O   UNL     1     -10.238   4.767  76.318  0.00  0.00    -0.219 OA
ENDBRANCH  20  21
ENDBRANCH  16  20
ENDBRANCH   4   7
BRANCH   1  24
ATOM     23  N   UNL     1      -9.693  17.074  67.156  0.00  0.00    -0.174 NA
ATOM     24  C   UNL     1     -10.095  16.146  66.171  0.00  0.00    +0.277 C 
ATOM     25  O   UNL     1     -10.329  16.615  65.016  0.00  0.00    -0.267 OA
BRANCH  23  28
ATOM     26  C   UNL     1      -6.887  16.503  66.768  0.00  0.00    +0.032 C 
ATOM     27  C   UNL     1      -7.387  17.906  66.875  0.00  0.00    -0.006 A 
ATOM     28  C   UNL     1      -8.758  18.088  66.760  0.00  0.00    +0.080 A 
ATOM     29  C   UNL     1      -9.179  19.412  66.753  0.00  0.00    +0.073 A 
ATOM     30 CL   UNL     1     -10.832  19.709  66.226  0.00  0.00    -0.081 Cl
ATOM     31  C   UNL     1      -8.360  20.438  67.208  0.00  0.00    +0.013 A 
ATOM     32  C   UNL     1      -7.075  20.165  67.653  0.00  0.00    +0.001 A 
ATOM     33  C   UNL     1      -6.546  18.943  67.260  0.00  0.00    -0.003 A 
ENDBRANCH  23  28
ENDBRANCH   1  24
TORSDOF 5
ENDMDL
MODEL 5
REMARK VINA RESULT:      -7.3      3.105      5.356
REMARK  Name = 
REMARK  5 active torsions:
REMARK  status: ('A' for Active; 'I' for Inactive)
REMARK    1  A    between atoms: C_8  and  N_9
REMARK    2  A    between atoms: C_10  and  C_12
REMARK    3  A    between atoms: N_16  and  C_17
REMARK    4  A    between atoms: N_23  and  C_24
REMARK    5  A    between atoms: C_24  and  C_25
REMARK                            x       y       z     vdW  Elec       q    Type
REMARK                         _______ _______ _______ _____ _____    ______ ____
ROOT
ATOM      1  C   UNL     1     -10.357   9.247  71.418  0.00  0.00    +0.107 A 
ATOM      2  S   UNL     1      -9.709   9.586  69.861  0.00  0.00    -0.045 S 
ATOM      3  C   UNL     1     -11.036  10.467  69.216  0.00  0.00    +0.185 A 
ATOM      4  N   UNL     1     -11.451  10.692  67.864  0.00  0.00    -0.170 NA
ATOM      5  N   UNL     1     -11.730  10.687  70.358  0.00  0.00    -0.221 NA
ATOM      6  C   UNL     1     -11.668   9.649  71.188  0.00  0.00    +0.112 A 
ENDROOT
BRANCH   4   7
ATOM      7  C   UNL     1     -11.395  11.950  67.229  0.00  0.00    +0.158 A 
ATOM      8  N   UNL     1     -12.175  12.198  66.149  0.00  0.00    -0.214 NA
ATOM      9  C   UNL     1     -11.815  13.279  65.418  0.00  0.00    +0.142 A 
ATOM     10  C   UNL     1     -12.169  13.345  63.967  0.00  0.00    +0.074 C 
ATOM     11  N   UNL     1     -11.292  14.319  66.082  0.00  0.00    -0.216 NA
ATOM     12  C   UNL     1     -10.874  14.238  67.365  0.00  0.00    +0.136 A 
ATOM     13  N   UNL     1      -9.977  15.229  67.821  0.00  0.00    -0.290 N 
ATOM     14  C   UNL     1      -8.782  15.564  67.052  0.00  0.00    +0.109 C 
ATOM     15  C   UNL     1      -8.954  16.848  66.276  0.00  0.00    +0.094 C 
ATOM     16  N   UNL     1      -9.509  17.908  67.078  0.00  0.00    -0.268 NA
ATOM     17  C   UNL     1     -10.709  17.524  67.776  0.00  0.00    +0.094 C 
ATOM     18  C   UNL     1     -10.514  16.305  68.649  0.00  0.00    +0.109 C 
ATOM     19  C   UNL     1     -11.132  13.057  68.029  0.00  0.00    +0.070 A 
BRANCH  16  20
ATOM     20  C   UNL     1      -8.540  18.563  67.919  0.00  0.00    +0.108 C 
BRANCH  20  21
ATOM     21  C   UNL     1      -8.328  20.007  67.555  0.00  0.00    +0.199 C 
ATOM     22  O   UNL     1      -9.527  20.687  67.361  0.00  0.00    -0.219 OA
ENDBRANCH  20  21
ENDBRANCH  16  20
ENDBRANCH   4   7
BRANCH   1  24
ATOM     23  N   UNL     1     -10.635   7.109  72.755  0.00  0.00    -0.174 NA
ATOM     24  C   UNL     1      -9.879   8.241  72.378  0.00  0.00    +0.277 C 
ATOM     25  O   UNL     1      -8.738   8.362  72.917  0.00  0.00    -0.267 OA
BRANCH  23  28
ATOM     26  C   UNL     1      -9.866   6.030  75.322  0.00  0.00    +0.032 C 
ATOM     27  C   UNL     1      -9.293   5.495  74.051  0.00  0.00    -0.006 A 
ATOM     28  C   UNL     1      -9.935   5.863  72.877  0.00  0.00    +0.080 A 
ATOM     29  C   UNL     1      -9.446   5.260  71.725  0.00  0.00    +0.073 A 
ATOM     30 CL   UNL     1     -10.451   5.385  70.285  0.00  0.00    -0.081 Cl
ATOM     31  C   UNL     1      -8.196   4.655  71.694  0.00  0.00    +0.013 A 
ATOM     32  C   UNL     1      -7.411   4.608  72.837  0.00  0.00    +0.001 A 
ATOM     33  C   UNL     1      -8.077   4.824  74.037  0.00  0.00    -0.003 A 
ENDBRANCH  23  28
ENDBRANCH   1  24
TORSDOF 5
ENDMDL
MODEL 6
REMARK VINA RESULT:      -7.1      3.637     11.309
REMARK  Name = 
REMARK  5 active torsions:
REMARK  status: ('A' for Active; 'I' for Inactive)
REMARK    1  A    between atoms: C_8  and  N_9
REMARK    2  A    between atoms: C_10  and  C_12
REMARK    3  A    between atoms: N_16  and  C_17
REMARK    4  A    between atoms: N_23  and  C_24
REMARK    5  A    between atoms: C_24  and  C_25
REMARK                            x       y       z     vdW  Elec       q    Type
REMARK                         _______ _______ _______ _____ _____    ______ ____
ROOT
ATOM      1  C   UNL     1      -7.750  15.406  67.595  0.00  0.00    +0.107 A 
ATOM      2  S   UNL     1      -9.428  15.083  67.797  0.00  0.00    -0.045 S 
ATOM      3  C   UNL     1      -9.333  13.391  68.085  0.00  0.00    +0.185 A 
ATOM      4  N   UNL     1     -10.295  12.348  67.898  0.00  0.00    -0.170 NA
ATOM      5  N   UNL     1      -8.001  13.281  68.306  0.00  0.00    -0.221 NA
ATOM      6  C   UNL     1      -7.296  14.093  67.524  0.00  0.00    +0.112 A 
ENDROOT
BRANCH   4   7
ATOM      7  C   UNL     1     -10.896  11.641  68.961  0.00  0.00    +0.158 A 
ATOM      8  N   UNL     1     -12.011  12.132  69.555  0.00  0.00    -0.214 NA
ATOM      9  C   UNL     1     -12.311  11.581  70.755  0.00  0.00    +0.142 A 
ATOM     10  C   UNL     1     -13.103  12.364  71.754  0.00  0.00    +0.074 C 
ATOM     11  N   UNL     1     -12.015  10.286  70.923  0.00  0.00    -0.216 NA
ATOM     12  C   UNL     1     -11.214   9.598  70.079  0.00  0.00    +0.136 A 
ATOM     13  N   UNL     1     -10.637   8.402  70.558  0.00  0.00    -0.290 N 
ATOM     14  C   UNL     1      -9.949   8.370  71.845  0.00  0.00    +0.109 C 
ATOM     15  C   UNL     1     -10.804   7.751  72.926  0.00  0.00    +0.094 C 
ATOM     16  N   UNL     1     -11.418   6.518  72.505  0.00  0.00    -0.268 NA
ATOM     17  C   UNL     1     -12.116   6.630  71.250  0.00  0.00    +0.094 C 
ATOM     18  C   UNL     1     -11.234   7.139  70.132  0.00  0.00    +0.109 C 
ATOM     19  C   UNL     1     -10.810  10.254  68.935  0.00  0.00    +0.070 A 
BRANCH  16  20
ATOM     20  C   UNL     1     -10.536   5.381  72.572  0.00  0.00    +0.108 C 
BRANCH  20  21
ATOM     21  C   UNL     1     -10.925   4.399  73.643  0.00  0.00    +0.199 C 
ATOM     22  O   UNL     1     -10.577   4.838  74.917  0.00  0.00    -0.219 OA
ENDBRANCH  20  21
ENDBRANCH  16  20
ENDBRANCH   4   7
BRANCH   1  24
ATOM     23  N   UNL     1      -7.685  17.267  65.873  0.00  0.00    -0.174 NA
ATOM     24  C   UNL     1      -7.143  16.602  66.995  0.00  0.00    +0.277 C 
ATOM     25  O   UNL     1      -6.077  17.090  67.478  0.00  0.00    -0.267 OA
BRANCH  23  28
ATOM     26  C   UNL     1      -5.745  18.816  64.396  0.00  0.00    +0.032 C 
ATOM     27  C   UNL     1      -6.589  19.438  65.459  0.00  0.00    -0.006 A 
ATOM     28  C   UNL     1      -7.681  18.701  65.896  0.00  0.00    +0.080 A 
ATOM     29  C   UNL     1      -8.508  19.354  66.802  0.00  0.00    +0.073 A 
ATOM     30 CL   UNL     1     -10.087  18.633  67.086  0.00  0.00    -0.081 Cl
ATOM     31  C   UNL     1      -8.079  20.475  67.501  0.00  0.00    +0.013 A 
ATOM     32  C   UNL     1      -6.812  20.996  67.283  0.00  0.00    +0.001 A 
ATOM     33  C   UNL     1      -6.191  20.602  66.104  0.00  0.00    -0.003 A 
ENDBRANCH  23  28
ENDBRANCH   1  24
TORSDOF 5
ENDMDL
MODEL 7
REMARK VINA RESULT:      -7.0      5.032      8.044
REMARK  Name = 
REMARK  5 active torsions:
REMARK  status: ('A' for Active; 'I' for Inactive)
REMARK    1  A    between atoms: C_8  and  N_9
REMARK    2  A    between atoms: C_10  and  C_12
REMARK    3  A    between atoms: N_16  and  C_17
REMARK    4  A    between atoms: N_23  and  C_24
REMARK    5  A    between atoms: C_24  and  C_25
REMARK                            x       y       z     vdW  Elec       q    Type
REMARK                         _______ _______ _______ _____ _____    ______ ____
ROOT
ATOM      1  C   UNL     1     -10.180   6.198  71.687  0.00  0.00    +0.107 A 
ATOM      2  S   UNL     1     -10.945   7.077  70.421  0.00  0.00    -0.045 S 
ATOM      3  C   UNL     1     -11.575   8.377  71.353  0.00  0.00    +0.185 A 
ATOM      4  N   UNL     1     -12.681   9.255  71.120  0.00  0.00    -0.170 NA
ATOM      5  N   UNL     1     -10.879   8.181  72.499  0.00  0.00    -0.221 NA
ATOM      6  C   UNL     1     -10.714   6.889  72.769  0.00  0.00    +0.112 A 
ENDROOT
BRANCH   4   7
ATOM      7  C   UNL     1     -12.542  10.631  70.845  0.00  0.00    +0.158 A 
ATOM      8  N   UNL     1     -12.847  11.546  71.797  0.00  0.00    -0.214 NA
ATOM      9  C   UNL     1     -13.007  12.812  71.345  0.00  0.00    +0.142 A 
ATOM     10  C   UNL     1     -13.873  13.766  72.104  0.00  0.00    +0.074 C 
ATOM     11  N   UNL     1     -12.243  13.193  70.313  0.00  0.00    -0.216 NA
ATOM     12  C   UNL     1     -11.539  12.321  69.557  0.00  0.00    +0.136 A 
ATOM     13  N   UNL     1     -11.124  12.756  68.279  0.00  0.00    -0.290 N 
ATOM     14  C   UNL     1     -12.072  13.378  67.359  0.00  0.00    +0.109 C 
ATOM     15  C   UNL     1     -11.917  14.880  67.321  0.00  0.00    +0.094 C 
ATOM     16  N   UNL     1     -10.543  15.290  67.187  0.00  0.00    -0.268 NA
ATOM     17  C   UNL     1      -9.670  14.672  68.152  0.00  0.00    +0.094 C 
ATOM     18  C   UNL     1      -9.731  13.162  68.116  0.00  0.00    +0.109 C 
ATOM     19  C   UNL     1     -11.525  11.008  69.975  0.00  0.00    +0.070 A 
BRANCH  16  20
ATOM     20  C   UNL     1     -10.048  15.220  65.836  0.00  0.00    +0.108 C 
BRANCH  20  21
ATOM     21  C   UNL     1     -11.113  15.483  64.808  0.00  0.00    +0.199 C 
ATOM     22  O   UNL     1     -11.117  16.806  64.375  0.00  0.00    -0.219 OA
ENDBRANCH  20  21
ENDBRANCH  16  20
ENDBRANCH   4   7
BRANCH   1  24
ATOM     23  N   UNL     1      -8.809   4.258  72.574  0.00  0.00    -0.174 NA
ATOM     24  C   UNL     1      -9.725   4.801  71.647  0.00  0.00    +0.277 C 
ATOM     25  O   UNL     1     -10.152   4.014  70.749  0.00  0.00    -0.267 OA
BRANCH  23  28
ATOM     26  C   UNL     1      -7.489   1.927  71.491  0.00  0.00    +0.032 C 
ATOM     27  C   UNL     1      -8.698   1.803  72.359  0.00  0.00    -0.006 A 
ATOM     28  C   UNL     1      -9.076   2.937  73.064  0.00  0.00    +0.080 A 
ATOM     29  C   UNL     1     -10.135   2.756  73.945  0.00  0.00    +0.073 A 
ATOM     30 CL   UNL     1     -10.399   4.032  75.129  0.00  0.00    -0.081 Cl
ATOM     31  C   UNL     1     -10.985   1.662  73.847  0.00  0.00    +0.013 A 
ATOM     32  C   UNL     1     -10.773   0.694  72.877  0.00  0.00    +0.001 A 
ATOM     33  C   UNL     1      -9.505   0.672  72.311  0.00  0.00    -0.003 A 
ENDBRANCH  23  28
ENDBRANCH   1  24
TORSDOF 5
ENDMDL
MODEL 8
REMARK VINA RESULT:      -7.0      5.433      7.192
REMARK  Name = 
REMARK  5 active torsions:
REMARK  status: ('A' for Active; 'I' for Inactive)
REMARK    1  A    between atoms: C_8  and  N_9
REMARK    2  A    between atoms: C_10  and  C_12
REMARK    3  A    between atoms: N_16  and  C_17
REMARK    4  A    between atoms: N_23  and  C_24
REMARK    5  A    between atoms: C_24  and  C_25
REMARK                            x       y       z     vdW  Elec       q    Type
REMARK                         _______ _______ _______ _____ _____    ______ ____
ROOT
ATOM      1  C   UNL     1      -9.331  10.091  64.028  0.00  0.00    +0.107 A 
ATOM      2  S   UNL     1     -10.071  11.642  63.948  0.00  0.00    -0.045 S 
ATOM      3  C   UNL     1     -10.552  11.784  65.592  0.00  0.00    +0.185 A 
ATOM      4  N   UNL     1     -11.590  12.554  66.208  0.00  0.00    -0.170 NA
ATOM      5  N   UNL     1      -9.829  10.767  66.120  0.00  0.00    -0.221 NA
ATOM      6  C   UNL     1      -9.761   9.723  65.298  0.00  0.00    +0.112 A 
ENDROOT
BRANCH   4   7
ATOM      7  C   UNL     1     -11.348  13.649  67.062  0.00  0.00    +0.158 A 
ATOM      8  N   UNL     1     -11.685  13.572  68.373  0.00  0.00    -0.214 NA
ATOM      9  C   UNL     1     -11.732  14.759  69.023  0.00  0.00    +0.142 A 
ATOM     10  C   UNL     1     -12.606  14.911  70.227  0.00  0.00    +0.074 C 
ATOM     11  N   UNL     1     -10.857  15.698  68.642  0.00  0.00    -0.216 NA
ATOM     12  C   UNL     1     -10.139  15.616  67.500  0.00  0.00    +0.136 A 
ATOM     13  N   UNL     1      -9.586  16.811  66.991  0.00  0.00    -0.290 N 
ATOM     14  C   UNL     1     -10.410  18.006  66.835  0.00  0.00    +0.109 C 
ATOM     15  C   UNL     1     -10.167  19.006  67.942  0.00  0.00    +0.094 C 
ATOM     16  N   UNL     1      -8.765  19.230  68.185  0.00  0.00    -0.268 NA
ATOM     17  C   UNL     1      -8.019  18.012  68.371  0.00  0.00    +0.094 C 
ATOM     18  C   UNL     1      -8.163  17.053  67.212  0.00  0.00    +0.109 C 
ATOM     19  C   UNL     1     -10.237  14.439  66.789  0.00  0.00    +0.070 A 
BRANCH  16  20
ATOM     20  C   UNL     1      -8.156  20.140  67.249  0.00  0.00    +0.108 C 
BRANCH  20  21
ATOM     21  C   UNL     1      -6.742  20.498  67.616  0.00  0.00    +0.199 C 
ATOM     22  O   UNL     1      -6.363  21.742  67.120  0.00  0.00    -0.219 OA
ENDBRANCH  20  21
ENDBRANCH  16  20
ENDBRANCH   4   7
BRANCH   1  24
ATOM     23  N   UNL     1      -9.280   9.528  61.556  0.00  0.00    -0.174 NA
ATOM     24  C   UNL     1      -8.995   9.210  62.901  0.00  0.00    +0.277 C 
ATOM     25  O   UNL     1      -8.421   8.097  63.107  0.00  0.00    -0.267 OA
BRANCH  23  28
ATOM     26  C   UNL     1      -9.621   7.422  59.607  0.00  0.00    +0.032 C 
ATOM     27  C   UNL     1      -8.284   8.038  59.860  0.00  0.00    -0.006 A 
ATOM     28  C   UNL     1      -8.273   9.224  60.581  0.00  0.00    +0.080 A 
ATOM     29  C   UNL     1      -7.027   9.827  60.702  0.00  0.00    +0.073 A 
ATOM     30 CL   UNL     1      -7.013  11.497  61.257  0.00  0.00    -0.081 Cl
ATOM     31  C   UNL     1      -5.852   9.124  60.469  0.00  0.00    +0.013 A 
ATOM     32  C   UNL     1      -5.896   7.796  60.070  0.00  0.00    +0.001 A 
ATOM     33  C   UNL     1      -7.110   7.360  59.556  0.00  0.00    -0.003 A 
ENDBRANCH  23  28
ENDBRANCH   1  24
TORSDOF 5
ENDMDL
MODEL 9
REMARK VINA RESULT:      -7.0      3.083      5.436
REMARK  Name = 
REMARK  5 active torsions:
REMARK  status: ('A' for Active; 'I' for Inactive)
REMARK    1  A    between atoms: C_8  and  N_9
REMARK    2  A    between atoms: C_10  and  C_12
REMARK    3  A    between atoms: N_16  and  C_17
REMARK    4  A    between atoms: N_23  and  C_24
REMARK    5  A    between atoms: C_24  and  C_25
REMARK                            x       y       z     vdW  Elec       q    Type
REMARK                         _______ _______ _______ _____ _____    ______ ____
ROOT
ATOM      1  C   UNL     1      -9.796   8.067  69.773  0.00  0.00    +0.107 A 
ATOM      2  S   UNL     1     -10.419   8.494  68.227  0.00  0.00    -0.045 S 
ATOM      3  C   UNL     1     -10.942  10.090  68.591  0.00  0.00    +0.185 A 
ATOM      4  N   UNL     1     -11.942  10.916  67.984  0.00  0.00    -0.170 NA
ATOM      5  N   UNL     1     -10.313  10.262  69.779  0.00  0.00    -0.221 NA
ATOM      6  C   UNL     1     -10.293   9.144  70.500  0.00  0.00    +0.112 A 
ENDROOT
BRANCH   4   7
ATOM      7  C   UNL     1     -11.649  12.084  67.250  0.00  0.00    +0.158 A 
ATOM      8  N   UNL     1     -12.219  12.281  66.036  0.00  0.00    -0.214 NA
ATOM      9  C   UNL     1     -11.632  13.234  65.275  0.00  0.00    +0.142 A 
ATOM     10  C   UNL     1     -11.747  13.169  63.785  0.00  0.00    +0.074 C 
ATOM     11  N   UNL     1     -11.107  14.288  65.914  0.00  0.00    -0.216 NA
ATOM     12  C   UNL     1     -10.905  14.313  67.250  0.00  0.00    +0.136 A 
ATOM     13  N   UNL     1      -9.986  15.261  67.751  0.00  0.00    -0.290 N 
ATOM     14  C   UNL     1      -8.656  15.393  67.163  0.00  0.00    +0.109 C 
ATOM     15  C   UNL     1      -8.562  16.593  66.250  0.00  0.00    +0.094 C 
ATOM     16  N   UNL     1      -9.114  17.784  66.843  0.00  0.00    -0.268 NA
ATOM     17  C   UNL     1     -10.443  17.594  67.366  0.00  0.00    +0.094 C 
ATOM     18  C   UNL     1     -10.523  16.469  68.372  0.00  0.00    +0.109 C 
ATOM     19  C   UNL     1     -11.392  13.244  67.972  0.00  0.00    +0.070 A 
BRANCH  16  20
ATOM     20  C   UNL     1      -8.221  18.436  67.767  0.00  0.00    +0.108 C 
BRANCH  20  21
ATOM     21  C   UNL     1      -8.063  19.906  67.492  0.00  0.00    +0.199 C 
ATOM     22  O   UNL     1      -7.030  20.171  66.598  0.00  0.00    -0.219 OA
ENDBRANCH  20  21
ENDBRANCH  16  20
ENDBRANCH   4   7
BRANCH   1  24
ATOM     23  N   UNL     1      -8.582   6.462  71.317  0.00  0.00    -0.174 NA
ATOM     24  C   UNL     1      -9.488   6.716  70.264  0.00  0.00    +0.277 C 
ATOM     25  O   UNL     1     -10.041   5.703  69.739  0.00  0.00    -0.267 OA
BRANCH  23  28
ATOM     26  C   UNL     1      -7.347   3.851  71.369  0.00  0.00    +0.032 C 
ATOM     27  C   UNL     1      -8.608   4.129  72.119  0.00  0.00    -0.006 A 
ATOM     28  C   UNL     1      -8.955   5.463  72.277  0.00  0.00    +0.080 A 
ATOM     29  C   UNL     1     -10.071   5.691  73.073  0.00  0.00    +0.073 A 
ATOM     30 CL   UNL     1     -10.323   7.346  73.618  0.00  0.00    -0.081 Cl
ATOM     31  C   UNL     1     -10.978   4.680  73.361  0.00  0.00    +0.013 A 
ATOM     32  C   UNL     1     -10.771   3.394  72.883  0.00  0.00    +0.001 A 
ATOM     33  C   UNL     1      -9.477   3.104  72.471  0.00  0.00    -0.003 A 
ENDBRANCH  23  28
ENDBRANCH   1  24
TORSDOF 5
ENDMDL
