MODEL 1
REMARK VINA RESULT:      -6.4      0.000      0.000
REMARK  Name = 
REMARK  3 active torsions:
REMARK  status: ('A' for Active; 'I' for Inactive)
REMARK    1  A    between atoms: C_5  and  N_6
REMARK    2  A    between atoms: N_6  and  S_7
REMARK    3  A    between atoms: S_7  and  C_10
REMARK                            x       y       z     vdW  Elec       q    Type
REMARK                         _______ _______ _______ _____ _____    ______ ____
ROOT
ATOM      1  S   UNL     1     -10.432  15.997  67.659  0.00  0.00    +0.096 S 
ATOM      2  O   UNL     1     -10.230  17.309  66.932  0.00  0.00    -0.148 OA
ATOM      3  O   UNL     1      -9.120  15.659  68.294  0.00  0.00    -0.148 OA
ENDROOT
BRANCH   1   4
ATOM      4  C   UNL     1     -10.899  14.769  66.488  0.00  0.00    +0.127 A 
ATOM      5  C   UNL     1     -12.215  14.365  66.520  0.00  0.00    +0.022 A 
ATOM      6  C   UNL     1     -12.674  13.531  65.539  0.00  0.00    +0.019 A 
ATOM      7  C   UNL     1     -11.856  13.047  64.526  0.00  0.00    +0.089 A 
ATOM      8  N   UNL     1     -12.487  12.514  63.355  0.00  0.00    -0.128 NA
ATOM      9  C   UNL     1     -10.540  13.481  64.513  0.00  0.00    +0.019 A 
ATOM     10  C   UNL     1     -10.161  14.528  65.345  0.00  0.00    +0.022 A 
ENDBRANCH   1   4
BRANCH   1  11
ATOM     11  N   UNL     1     -11.712  16.143  68.779  0.00  0.00    -0.057 NA
BRANCH  11  16
ATOM     12  C   UNL     1     -13.559  13.511  72.446  0.00  0.00    +0.055 C 
ATOM     13  C   UNL     1     -12.669  14.498  71.757  0.00  0.00    +0.098 A 
ATOM     14  C   UNL     1     -12.120  14.419  70.488  0.00  0.00    +0.050 A 
ATOM     15  C   UNL     1     -11.955  13.152  69.737  0.00  0.00    +0.037 C 
ATOM     16  C   UNL     1     -11.647  15.678  70.133  0.00  0.00    +0.263 A 
ATOM     17  O   UNL     1     -11.781  16.411  71.210  0.00  0.00    -0.336 OA
ATOM     18  N   UNL     1     -12.427  15.777  72.139  0.00  0.00    -0.080 NA
ENDBRANCH  11  16
ENDBRANCH   1  11
TORSDOF 3
ENDMDL
MODEL 2
REMARK VINA RESULT:      -6.3      2.422      2.858
REMARK  Name = 
REMARK  3 active torsions:
REMARK  status: ('A' for Active; 'I' for Inactive)
REMARK    1  A    between atoms: C_5  and  N_6
REMARK    2  A    between atoms: N_6  and  S_7
REMARK    3  A    between atoms: S_7  and  C_10
REMARK                            x       y       z     vdW  Elec       q    Type
REMARK                         _______ _______ _______ _____ _____    ______ ____
ROOT
ATOM      1  S   UNL     1     -11.279  12.265  68.016  0.00  0.00    +0.096 S 
ATOM      2  O   UNL     1      -9.906  12.061  68.620  0.00  0.00    -0.148 OA
ATOM      3  O   UNL     1     -11.718  10.931  67.502  0.00  0.00    -0.148 OA
ENDROOT
BRANCH   1   4
ATOM      4  C   UNL     1     -11.151  13.433  66.706  0.00  0.00    +0.127 A 
ATOM      5  C   UNL     1     -12.170  13.425  65.780  0.00  0.00    +0.022 A 
ATOM      6  C   UNL     1     -12.207  14.407  64.830  0.00  0.00    +0.019 A 
ATOM      7  C   UNL     1     -11.238  15.398  64.740  0.00  0.00    +0.089 A 
ATOM      8  N   UNL     1     -11.554  16.576  63.989  0.00  0.00    -0.128 NA
ATOM      9  C   UNL     1     -10.232  15.387  65.694  0.00  0.00    +0.019 A 
ATOM     10  C   UNL     1     -10.354  14.558  66.802  0.00  0.00    +0.022 A 
ENDBRANCH   1   4
BRANCH   1  11
ATOM     11  N   UNL     1     -12.336  12.926  69.183  0.00  0.00    -0.057 NA
BRANCH  11  16
ATOM     12  C   UNL     1     -13.368  15.863  72.936  0.00  0.00    +0.055 C 
ATOM     13  C   UNL     1     -12.529  15.152  71.921  0.00  0.00    +0.098 A 
ATOM     14  C   UNL     1     -12.683  13.865  71.431  0.00  0.00    +0.050 A 
ATOM     15  C   UNL     1     -13.440  12.800  72.130  0.00  0.00    +0.037 C 
ATOM     16  C   UNL     1     -11.906  13.734  70.285  0.00  0.00    +0.263 A 
ATOM     17  O   UNL     1     -11.220  14.847  70.207  0.00  0.00    -0.336 OA
ATOM     18  N   UNL     1     -11.607  15.707  71.097  0.00  0.00    -0.080 NA
ENDBRANCH  11  16
ENDBRANCH   1  11
TORSDOF 3
ENDMDL
MODEL 3
REMARK VINA RESULT:      -6.2      2.829      5.608
REMARK  Name = 
REMARK  3 active torsions:
REMARK  status: ('A' for Active; 'I' for Inactive)
REMARK    1  A    between atoms: C_5  and  N_6
REMARK    2  A    between atoms: N_6  and  S_7
REMARK    3  A    between atoms: S_7  and  C_10
REMARK                            x       y       z     vdW  Elec       q    Type
REMARK                         _______ _______ _______ _____ _____    ______ ____
ROOT
ATOM      1  S   UNL     1     -11.935  13.408  65.860  0.00  0.00    +0.096 S 
ATOM      2  O   UNL     1     -13.138  14.180  65.365  0.00  0.00    -0.148 OA
ATOM      3  O   UNL     1     -12.175  11.975  65.501  0.00  0.00    -0.148 OA
ENDROOT
BRANCH   1   4
ATOM      4  C   UNL     1     -11.816  13.608  67.605  0.00  0.00    +0.127 A 
ATOM      5  C   UNL     1     -12.021  14.881  68.089  0.00  0.00    +0.022 A 
ATOM      6  C   UNL     1     -12.094  15.070  69.440  0.00  0.00    +0.019 A 
ATOM      7  C   UNL     1     -11.939  14.032  70.350  0.00  0.00    +0.089 A 
ATOM      8  N   UNL     1     -12.407  14.240  71.688  0.00  0.00    -0.128 NA
ATOM      9  C   UNL     1     -11.747  12.760  69.833  0.00  0.00    +0.019 A 
ATOM     10  C   UNL     1     -11.944  12.542  68.475  0.00  0.00    +0.022 A 
ENDBRANCH   1   4
BRANCH   1  11
ATOM     11  N   UNL     1     -10.508  14.050  65.178  0.00  0.00    -0.057 NA
BRANCH  11  16
ATOM     12  C   UNL     1     -10.188  18.564  66.996  0.00  0.00    +0.055 C 
ATOM     13  C   UNL     1     -10.252  17.488  65.958  0.00  0.00    +0.098 A 
ATOM     14  C   UNL     1      -9.691  16.222  65.997  0.00  0.00    +0.050 A 
ATOM     15  C   UNL     1      -8.561  15.848  66.880  0.00  0.00    +0.037 C 
ATOM     16  C   UNL     1     -10.269  15.452  64.995  0.00  0.00    +0.263 A 
ATOM     17  O   UNL     1     -11.019  16.282  64.314  0.00  0.00    -0.336 OA
ATOM     18  N   UNL     1     -11.080  17.445  64.885  0.00  0.00    -0.080 NA
ENDBRANCH  11  16
ENDBRANCH   1  11
TORSDOF 3
ENDMDL
MODEL 4
REMARK VINA RESULT:      -6.2      4.175      6.776
REMARK  Name = 
REMARK  3 active torsions:
REMARK  status: ('A' for Active; 'I' for Inactive)
REMARK    1  A    between atoms: C_5  and  N_6
REMARK    2  A    between atoms: N_6  and  S_7
REMARK    3  A    between atoms: S_7  and  C_10
REMARK                            x       y       z     vdW  Elec       q    Type
REMARK                         _______ _______ _______ _____ _____    ______ ____
ROOT
ATOM      1  S   UNL     1      -9.229  18.608  67.261  0.00  0.00    +0.096 S 
ATOM      2  O   UNL     1      -9.069  19.962  66.604  0.00  0.00    -0.148 OA
ATOM      3  O   UNL     1     -10.450  18.696  68.120  0.00  0.00    -0.148 OA
ENDROOT
BRANCH   1   4
ATOM      4  C   UNL     1      -7.799  18.280  68.233  0.00  0.00    +0.127 A 
ATOM      5  C   UNL     1      -7.189  19.373  68.808  0.00  0.00    +0.022 A 
ATOM      6  C   UNL     1      -6.169  19.169  69.696  0.00  0.00    +0.019 A 
ATOM      7  C   UNL     1      -5.702  17.901  70.020  0.00  0.00    +0.089 A 
ATOM      8  N   UNL     1      -4.924  17.761  71.215  0.00  0.00    -0.128 NA
ATOM      9  C   UNL     1      -6.345  16.821  69.435  0.00  0.00    +0.019 A 
ATOM     10  C   UNL     1      -7.538  17.027  68.755  0.00  0.00    +0.022 A 
ENDBRANCH   1   4
BRANCH   1  11
ATOM     11  N   UNL     1      -9.322  17.389  66.069  0.00  0.00    -0.057 NA
BRANCH  11  16
ATOM     12  C   UNL     1     -11.855  13.635  64.261  0.00  0.00    +0.055 C 
ATOM     13  C   UNL     1     -11.565  15.046  64.668  0.00  0.00    +0.098 A 
ATOM     14  C   UNL     1     -10.863  15.493  65.774  0.00  0.00    +0.050 A 
ATOM     15  C   UNL     1     -10.637  14.681  66.993  0.00  0.00    +0.037 C 
ATOM     16  C   UNL     1     -10.553  16.835  65.586  0.00  0.00    +0.263 A 
ATOM     17  O   UNL     1     -11.179  17.182  64.490  0.00  0.00    -0.336 OA
ATOM     18  N   UNL     1     -11.716  16.156  63.905  0.00  0.00    -0.080 NA
ENDBRANCH  11  16
ENDBRANCH   1  11
TORSDOF 3
ENDMDL
MODEL 5
REMARK VINA RESULT:      -6.1      1.619      5.704
REMARK  Name = 
REMARK  3 active torsions:
REMARK  status: ('A' for Active; 'I' for Inactive)
REMARK    1  A    between atoms: C_5  and  N_6
REMARK    2  A    between atoms: N_6  and  S_7
REMARK    3  A    between atoms: S_7  and  C_10
REMARK                            x       y       z     vdW  Elec       q    Type
REMARK                         _______ _______ _______ _____ _____    ______ ____
ROOT
ATOM      1  S   UNL     1     -10.531  15.825  68.430  0.00  0.00    +0.096 S 
ATOM      2  O   UNL     1      -9.146  16.202  68.909  0.00  0.00    -0.148 OA
ATOM      3  O   UNL     1     -11.198  17.099  68.017  0.00  0.00    -0.148 OA
ENDROOT
BRANCH   1   4
ATOM      4  C   UNL     1     -11.400  15.062  69.757  0.00  0.00    +0.127 A 
ATOM      5  C   UNL     1     -12.030  15.910  70.641  0.00  0.00    +0.022 A 
ATOM      6  C   UNL     1     -12.845  15.378  71.600  0.00  0.00    +0.019 A 
ATOM      7  C   UNL     1     -13.040  14.010  71.740  0.00  0.00    +0.089 A 
ATOM      8  N   UNL     1     -14.179  13.571  72.490  0.00  0.00    -0.128 NA
ATOM      9  C   UNL     1     -12.404  13.183  70.828  0.00  0.00    +0.019 A 
ATOM     10  C   UNL     1     -11.804  13.742  69.706  0.00  0.00    +0.022 A 
ENDBRANCH   1   4
BRANCH   1  11
ATOM     11  N   UNL     1     -10.420  14.677  67.171  0.00  0.00    -0.057 NA
BRANCH  11  16
ATOM     12  C   UNL     1     -12.251  11.989  63.538  0.00  0.00    +0.055 C 
ATOM     13  C   UNL     1     -12.189  13.077  64.563  0.00  0.00    +0.098 A 
ATOM     14  C   UNL     1     -11.666  13.020  65.844  0.00  0.00    +0.050 A 
ATOM     15  C   UNL     1     -11.461  11.760  66.598  0.00  0.00    +0.037 C 
ATOM     16  C   UNL     1     -11.514  14.319  66.316  0.00  0.00    +0.263 A 
ATOM     17  O   UNL     1     -12.066  15.082  65.406  0.00  0.00    -0.336 OA
ATOM     18  N   UNL     1     -12.404  14.400  64.356  0.00  0.00    -0.080 NA
ENDBRANCH  11  16
ENDBRANCH   1  11
TORSDOF 3
ENDMDL
MODEL 6
REMARK VINA RESULT:      -6.1      3.480      5.283
REMARK  Name = 
REMARK  3 active torsions:
REMARK  status: ('A' for Active; 'I' for Inactive)
REMARK    1  A    between atoms: C_5  and  N_6
REMARK    2  A    between atoms: N_6  and  S_7
REMARK    3  A    between atoms: S_7  and  C_10
REMARK                            x       y       z     vdW  Elec       q    Type
REMARK                         _______ _______ _______ _____ _____    ______ ____
ROOT
ATOM      1  S   UNL     1     -12.148  13.133  65.099  0.00  0.00    +0.096 S 
ATOM      2  O   UNL     1     -13.104  14.224  65.527  0.00  0.00    -0.148 OA
ATOM      3  O   UNL     1     -12.866  12.322  64.066  0.00  0.00    -0.148 OA
ENDROOT
BRANCH   1   4
ATOM      4  C   UNL     1     -11.748  12.150  66.503  0.00  0.00    +0.127 A 
ATOM      5  C   UNL     1     -10.909  11.081  66.280  0.00  0.00    +0.022 A 
ATOM      6  C   UNL     1     -10.441  10.374  67.353  0.00  0.00    +0.019 A 
ATOM      7  C   UNL     1     -10.802  10.673  68.660  0.00  0.00    +0.089 A 
ATOM      8  N   UNL     1      -9.984  10.152  69.715  0.00  0.00    -0.128 NA
ATOM      9  C   UNL     1     -11.637  11.762  68.854  0.00  0.00    +0.019 A 
ATOM     10  C   UNL     1     -11.884  12.625  67.793  0.00  0.00    +0.022 A 
ENDBRANCH   1   4
BRANCH   1  11
ATOM     11  N   UNL     1     -10.692  13.822  64.532  0.00  0.00    -0.057 NA
BRANCH  11  16
ATOM     12  C   UNL     1      -9.872  17.061  68.083  0.00  0.00    +0.055 C 
ATOM     13  C   UNL     1      -9.961  16.523  66.689  0.00  0.00    +0.098 A 
ATOM     14  C   UNL     1      -9.644  15.253  66.238  0.00  0.00    +0.050 A 
ATOM     15  C   UNL     1      -8.752  14.317  66.962  0.00  0.00    +0.037 C 
ATOM     16  C   UNL     1     -10.184  15.089  64.967  0.00  0.00    +0.263 A 
ATOM     17  O   UNL     1     -10.658  16.266  64.642  0.00  0.00    -0.336 OA
ATOM     18  N   UNL     1     -10.603  17.092  65.639  0.00  0.00    -0.080 NA
ENDBRANCH  11  16
ENDBRANCH   1  11
TORSDOF 3
ENDMDL
MODEL 7
REMARK VINA RESULT:      -6.0      3.133      5.790
REMARK  Name = 
REMARK  3 active torsions:
REMARK  status: ('A' for Active; 'I' for Inactive)
REMARK    1  A    between atoms: C_5  and  N_6
REMARK    2  A    between atoms: N_6  and  S_7
REMARK    3  A    between atoms: S_7  and  C_10
REMARK                            x       y       z     vdW  Elec       q    Type
REMARK                         _______ _______ _______ _____ _____    ______ ____
ROOT
ATOM      1  S   UNL     1     -10.316  15.021  67.400  0.00  0.00    +0.096 S 
ATOM      2  O   UNL     1      -9.726  14.574  68.719  0.00  0.00    -0.148 OA
ATOM      3  O   UNL     1      -9.408  14.500  66.332  0.00  0.00    -0.148 OA
ENDROOT
BRANCH   1   4
ATOM      4  C   UNL     1     -10.372  16.780  67.374  0.00  0.00    +0.127 A 
ATOM      5  C   UNL     1     -10.049  17.418  68.551  0.00  0.00    +0.022 A 
ATOM      6  C   UNL     1      -9.925  18.779  68.553  0.00  0.00    +0.019 A 
ATOM      7  C   UNL     1     -10.142  19.551  67.419  0.00  0.00    +0.089 A 
ATOM      8  N   UNL     1      -9.623  20.886  67.409  0.00  0.00    -0.128 NA
ATOM      9  C   UNL     1     -10.453  18.880  66.246  0.00  0.00    +0.019 A 
ATOM     10  C   UNL     1     -10.311  17.499  66.196  0.00  0.00    +0.022 A 
ENDBRANCH   1   4
BRANCH   1  11
ATOM     11  N   UNL     1     -11.922  14.461  67.260  0.00  0.00    -0.057 NA
BRANCH  11  16
ATOM     12  C   UNL     1     -11.078  11.427  63.536  0.00  0.00    +0.055 C 
ATOM     13  C   UNL     1     -11.847  12.357  64.421  0.00  0.00    +0.098 A 
ATOM     14  C   UNL     1     -11.777  12.486  65.798  0.00  0.00    +0.050 A 
ATOM     15  C   UNL     1     -11.248  11.435  66.700  0.00  0.00    +0.037 C 
ATOM     16  C   UNL     1     -12.402  13.673  66.162  0.00  0.00    +0.263 A 
ATOM     17  O   UNL     1     -12.939  14.130  65.059  0.00  0.00    -0.336 OA
ATOM     18  N   UNL     1     -12.581  13.428  64.030  0.00  0.00    -0.080 NA
ENDBRANCH  11  16
ENDBRANCH   1  11
TORSDOF 3
ENDMDL
MODEL 8
REMARK VINA RESULT:      -6.0      3.343      4.923
REMARK  Name = 
REMARK  3 active torsions:
REMARK  status: ('A' for Active; 'I' for Inactive)
REMARK    1  A    between atoms: C_5  and  N_6
REMARK    2  A    between atoms: N_6  and  S_7
REMARK    3  A    between atoms: S_7  and  C_10
REMARK                            x       y       z     vdW  Elec       q    Type
REMARK                         _______ _______ _______ _____ _____    ______ ____
ROOT
ATOM      1  S   UNL     1     -10.075  16.319  68.820  0.00  0.00    +0.096 S 
ATOM      2  O   UNL     1      -8.573  16.177  68.944  0.00  0.00    -0.148 OA
ATOM      3  O   UNL     1     -10.663  15.657  70.026  0.00  0.00    -0.148 OA
ENDROOT
BRANCH   1   4
ATOM      4  C   UNL     1     -10.598  15.515  67.344  0.00  0.00    +0.127 A 
ATOM      5  C   UNL     1     -11.685  14.677  67.458  0.00  0.00    +0.022 A 
ATOM      6  C   UNL     1     -12.232  14.146  66.323  0.00  0.00    +0.019 A 
ATOM      7  C   UNL     1     -11.716  14.394  65.058  0.00  0.00    +0.089 A 
ATOM      8  N   UNL     1     -12.557  14.128  63.929  0.00  0.00    -0.128 NA
ATOM      9  C   UNL     1     -10.630  15.252  64.974  0.00  0.00    +0.019 A 
ATOM     10  C   UNL     1     -10.258  15.989  66.091  0.00  0.00    +0.022 A 
ENDBRANCH   1   4
BRANCH   1  11
ATOM     11  N   UNL     1     -10.494  17.967  68.676  0.00  0.00    -0.057 NA
BRANCH  11  16
ATOM     12  C   UNL     1      -7.256  19.973  65.631  0.00  0.00    +0.055 C 
ATOM     13  C   UNL     1      -8.020  19.761  66.900  0.00  0.00    +0.098 A 
ATOM     14  C   UNL     1      -9.355  19.425  67.052  0.00  0.00    +0.050 A 
ATOM     15  C   UNL     1     -10.384  19.636  66.006  0.00  0.00    +0.037 C 
ATOM     16  C   UNL     1      -9.558  19.006  68.362  0.00  0.00    +0.263 A 
ATOM     17  O   UNL     1      -8.424  19.236  68.975  0.00  0.00    -0.336 OA
ATOM     18  N   UNL     1      -7.501  19.608  68.143  0.00  0.00    -0.080 NA
ENDBRANCH  11  16
ENDBRANCH   1  11
TORSDOF 3
ENDMDL
MODEL 9
REMARK VINA RESULT:      -6.0      4.908      7.028
REMARK  Name = 
REMARK  3 active torsions:
REMARK  status: ('A' for Active; 'I' for Inactive)
REMARK    1  A    between atoms: C_5  and  N_6
REMARK    2  A    between atoms: N_6  and  S_7
REMARK    3  A    between atoms: S_7  and  C_10
REMARK                            x       y       z     vdW  Elec       q    Type
REMARK                         _______ _______ _______ _____ _____    ______ ____
ROOT
ATOM      1  S   UNL     1      -9.068  18.216  67.287  0.00  0.00    +0.096 S 
ATOM      2  O   UNL     1     -10.357  18.931  67.630  0.00  0.00    -0.148 OA
ATOM      3  O   UNL     1      -8.687  17.427  68.500  0.00  0.00    -0.148 OA
ENDROOT
BRANCH   1   4
ATOM      4  C   UNL     1      -7.840  19.417  66.907  0.00  0.00    +0.127 A 
ATOM      5  C   UNL     1      -7.262  20.059  67.980  0.00  0.00    +0.022 A 
ATOM      6  C   UNL     1      -6.198  20.888  67.759  0.00  0.00    +0.019 A 
ATOM      7  C   UNL     1      -5.693  21.133  66.489  0.00  0.00    +0.089 A 
ATOM      8  N   UNL     1      -4.374  21.684  66.389  0.00  0.00    -0.128 NA
ATOM      9  C   UNL     1      -6.286  20.463  65.431  0.00  0.00    +0.019 A 
ATOM     10  C   UNL     1      -7.177  19.430  65.695  0.00  0.00    +0.022 A 
ENDBRANCH   1   4
BRANCH   1  11
ATOM     11  N   UNL     1      -9.287  17.255  65.893  0.00  0.00    -0.057 NA
BRANCH  11  16
ATOM     12  C   UNL     1     -12.014  13.594  64.179  0.00  0.00    +0.055 C 
ATOM     13  C   UNL     1     -11.664  14.991  64.583  0.00  0.00    +0.098 A 
ATOM     14  C   UNL     1     -10.896  15.408  65.658  0.00  0.00    +0.050 A 
ATOM     15  C   UNL     1     -10.635  14.577  66.857  0.00  0.00    +0.037 C 
ATOM     16  C   UNL     1     -10.555  16.742  65.466  0.00  0.00    +0.263 A 
ATOM     17  O   UNL     1     -11.224  17.118  64.405  0.00  0.00    -0.336 OA
ATOM     18  N   UNL     1     -11.818  16.114  63.838  0.00  0.00    -0.080 NA
ENDBRANCH  11  16
ENDBRANCH   1  11
TORSDOF 3
ENDMDL
