MODEL 1
REMARK VINA RESULT:      -6.1      0.000      0.000
REMARK  Name = 
REMARK  14 active torsions:
REMARK  status: ('A' for Active; 'I' for Inactive)
REMARK    1  A    between atoms: C_2  and  C_3
REMARK    2  A    between atoms: C_3  and  C_4
REMARK    3  A    between atoms: C_4  and  C_5
REMARK    4  A    between atoms: C_5  and  C_6
REMARK    5  A    between atoms: C_6  and  C_7
REMARK    6  A    between atoms: C_7  and  N_8
REMARK    7  A    between atoms: N_8  and  C_9
REMARK    8  A    between atoms: N_8  and  C_11
REMARK    9  A    between atoms: C_11  and  C_12
REMARK   10  A    between atoms: C_12  and  C_13
REMARK   11  A    between atoms: C_13  and  C_14
REMARK   12  A    between atoms: C_14  and  C_16
REMARK   13  A    between atoms: C_19  and  N_20
REMARK   14  A    between atoms: N_20  and  S_21
REMARK                            x       y       z     vdW  Elec       q    Type
REMARK                         _______ _______ _______ _____ _____    ______ ____
ROOT
ATOM      1  C   UNL     1      -8.459  16.547  67.047  0.00  0.00    +0.039 C 
ENDROOT
BRANCH   1   2
ATOM      2  C   UNL     1      -8.899  18.092  67.423  0.00  0.00    +0.174 C 
ATOM      3  O   UNL     1      -8.819  18.528  65.968  0.00  0.00    -0.218 OA
BRANCH   2   4
ATOM      4  C   UNL     1      -7.356  18.515  67.687  0.00  0.00    +0.008 A 
ATOM      5  C   UNL     1      -6.720  17.782  68.672  0.00  0.00    -0.000 A 
ATOM      6  C   UNL     1      -5.829  18.428  69.518  0.00  0.00    +0.018 A 
ATOM      7  C   UNL     1      -5.833  19.815  69.624  0.00  0.00    +0.091 A 
ATOM      8  C   UNL     1      -6.301  20.477  68.495  0.00  0.00    +0.018 A 
ATOM      9  C   UNL     1      -7.087  19.842  67.543  0.00  0.00    -0.000 A 
BRANCH   7  10
ATOM     10  N   UNL     1      -5.750  20.467  70.897  0.00  0.00    -0.101 NA
BRANCH  10  11
ATOM     11  S   UNL     1      -4.244  21.010  71.552  0.00  0.00    +0.075 S 
ATOM     12  O   UNL     1      -4.548  22.292  72.295  0.00  0.00    -0.153 OA
ATOM     13  O   UNL     1      -3.668  20.040  72.528  0.00  0.00    -0.153 OA
ATOM     14  C   UNL     1      -3.132  21.289  70.203  0.00  0.00    +0.202 C 
ENDBRANCH  10  11
ENDBRANCH   7  10
ENDBRANCH   2   4
ENDBRANCH   1   2
BRANCH   1  15
ATOM     15  C   UNL     1      -9.474  16.035  66.079  0.00  0.00    +0.020 C 
BRANCH  15  16
ATOM     16  C   UNL     1     -10.762  15.818  66.823  0.00  0.00    +0.072 C 
BRANCH  16  17
ATOM     17  N   UNL     1     -11.035  14.471  67.174  0.00  0.00    -0.273 NA
BRANCH  17  18
ATOM     18  C   UNL     1     -10.503  13.457  66.346  0.00  0.00    +0.072 C 
ATOM     19  C   UNL     1     -11.457  12.401  65.901  0.00  0.00    +0.019 C 
ENDBRANCH  17  18
BRANCH  17  20
ATOM     20  C   UNL     1     -11.154  14.187  68.561  0.00  0.00    +0.072 C 
BRANCH  20  21
ATOM     21  C   UNL     1     -11.666  15.312  69.406  0.00  0.00    +0.017 C 
BRANCH  21  22
ATOM     22  C   UNL     1     -11.910  14.760  70.804  0.00  0.00    +0.001 C 
BRANCH  22  23
ATOM     23  C   UNL     1     -12.169  15.971  71.693  0.00  0.00    +0.000 C 
BRANCH  23  24
ATOM     24  C   UNL     1     -13.151  15.514  72.748  0.00  0.00    +0.000 C 
BRANCH  24  26
ATOM     25  C   UNL     1     -12.440  15.611  74.547  0.00  0.00    +0.000 C 
ATOM     26  C   UNL     1     -12.489  15.492  74.122  0.00  0.00    +0.000 C 
ENDBRANCH  24  26
ENDBRANCH  23  24
ENDBRANCH  22  23
ENDBRANCH  21  22
ENDBRANCH  20  21
ENDBRANCH  17  20
ENDBRANCH  16  17
ENDBRANCH  15  16
ENDBRANCH   1  15
TORSDOF 14
ENDMDL
MODEL 2
REMARK VINA RESULT:      -6.0      3.563      5.919
REMARK  Name = 
REMARK  14 active torsions:
REMARK  status: ('A' for Active; 'I' for Inactive)
REMARK    1  A    between atoms: C_2  and  C_3
REMARK    2  A    between atoms: C_3  and  C_4
REMARK    3  A    between atoms: C_4  and  C_5
REMARK    4  A    between atoms: C_5  and  C_6
REMARK    5  A    between atoms: C_6  and  C_7
REMARK    6  A    between atoms: C_7  and  N_8
REMARK    7  A    between atoms: N_8  and  C_9
REMARK    8  A    between atoms: N_8  and  C_11
REMARK    9  A    between atoms: C_11  and  C_12
REMARK   10  A    between atoms: C_12  and  C_13
REMARK   11  A    between atoms: C_13  and  C_14
REMARK   12  A    between atoms: C_14  and  C_16
REMARK   13  A    between atoms: C_19  and  N_20
REMARK   14  A    between atoms: N_20  and  S_21
REMARK                            x       y       z     vdW  Elec       q    Type
REMARK                         _______ _______ _______ _____ _____    ______ ____
ROOT
ATOM      1  C   UNL     1     -10.160  12.272  67.788  0.00  0.00    +0.039 C 
ENDROOT
BRANCH   1   2
ATOM      2  C   UNL     1     -11.444  11.954  66.803  0.00  0.00    +0.174 C 
ATOM      3  O   UNL     1     -10.579  12.035  65.555  0.00  0.00    -0.218 OA
BRANCH   2   4
ATOM      4  C   UNL     1     -11.819  13.528  66.708  0.00  0.00    +0.008 A 
ATOM      5  C   UNL     1     -11.231  14.196  65.649  0.00  0.00    -0.000 A 
ATOM      6  C   UNL     1     -10.794  15.500  65.839  0.00  0.00    +0.018 A 
ATOM      7  C   UNL     1     -10.615  16.007  67.121  0.00  0.00    +0.091 A 
ATOM      8  C   UNL     1     -11.408  15.407  68.093  0.00  0.00    +0.018 A 
ATOM      9  C   UNL     1     -11.984  14.158  67.904  0.00  0.00    -0.000 A 
BRANCH   7  10
ATOM     10  N   UNL     1      -9.454  16.774  67.466  0.00  0.00    -0.101 NA
BRANCH  10  11
ATOM     11  S   UNL     1      -9.451  18.503  67.414  0.00  0.00    +0.075 S 
ATOM     12  O   UNL     1      -9.073  18.878  65.998  0.00  0.00    -0.153 OA
ATOM     13  O   UNL     1     -10.796  19.081  67.697  0.00  0.00    -0.153 OA
ATOM     14  C   UNL     1      -8.252  19.081  68.582  0.00  0.00    +0.202 C 
ENDBRANCH  10  11
ENDBRANCH   7  10
ENDBRANCH   2   4
ENDBRANCH   1   2
BRANCH   1  15
ATOM     15  C   UNL     1     -10.094  11.158  68.781  0.00  0.00    +0.020 C 
BRANCH  15  16
ATOM     16  C   UNL     1     -11.487  10.630  68.983  0.00  0.00    +0.072 C 
BRANCH  16  17
ATOM     17  N   UNL     1     -11.751  10.106  70.275  0.00  0.00    -0.273 NA
BRANCH  17  18
ATOM     18  C   UNL     1     -10.684   9.481  70.959  0.00  0.00    +0.072 C 
ATOM     19  C   UNL     1     -11.060   8.598  72.101  0.00  0.00    +0.019 C 
ENDBRANCH  17  18
BRANCH  17  20
ATOM     20  C   UNL     1     -12.713  10.798  71.058  0.00  0.00    +0.072 C 
BRANCH  20  21
ATOM     21  C   UNL     1     -12.622  12.292  71.017  0.00  0.00    +0.017 C 
BRANCH  21  22
ATOM     22  C   UNL     1     -13.440  12.833  72.182  0.00  0.00    +0.001 C 
BRANCH  22  23
ATOM     23  C   UNL     1     -13.921  14.213  71.751  0.00  0.00    +0.000 C 
BRANCH  23  24
ATOM     24  C   UNL     1     -13.323  15.193  72.734  0.00  0.00    +0.000 C 
BRANCH  24  26
ATOM     25  C   UNL     1     -11.893  16.112  71.807  0.00  0.00    +0.000 C 
ATOM     26  C   UNL     1     -12.113  15.893  72.123  0.00  0.00    +0.000 C 
ENDBRANCH  24  26
ENDBRANCH  23  24
ENDBRANCH  22  23
ENDBRANCH  21  22
ENDBRANCH  20  21
ENDBRANCH  17  20
ENDBRANCH  16  17
ENDBRANCH  15  16
ENDBRANCH   1  15
TORSDOF 14
ENDMDL
MODEL 3
REMARK VINA RESULT:      -5.9      4.388      8.545
REMARK  Name = 
REMARK  14 active torsions:
REMARK  status: ('A' for Active; 'I' for Inactive)
REMARK    1  A    between atoms: C_2  and  C_3
REMARK    2  A    between atoms: C_3  and  C_4
REMARK    3  A    between atoms: C_4  and  C_5
REMARK    4  A    between atoms: C_5  and  C_6
REMARK    5  A    between atoms: C_6  and  C_7
REMARK    6  A    between atoms: C_7  and  N_8
REMARK    7  A    between atoms: N_8  and  C_9
REMARK    8  A    between atoms: N_8  and  C_11
REMARK    9  A    between atoms: C_11  and  C_12
REMARK   10  A    between atoms: C_12  and  C_13
REMARK   11  A    between atoms: C_13  and  C_14
REMARK   12  A    between atoms: C_14  and  C_16
REMARK   13  A    between atoms: C_19  and  N_20
REMARK   14  A    between atoms: N_20  and  S_21
REMARK                            x       y       z     vdW  Elec       q    Type
REMARK                         _______ _______ _______ _____ _____    ______ ____
ROOT
ATOM      1  C   UNL     1      -6.396  16.907  67.673  0.00  0.00    +0.039 C 
ENDROOT
BRANCH   1   2
ATOM      2  C   UNL     1      -7.423  16.239  68.777  0.00  0.00    +0.174 C 
ATOM      3  O   UNL     1      -7.222  14.845  68.204  0.00  0.00    -0.218 OA
BRANCH   2   4
ATOM      4  C   UNL     1      -8.702  16.505  67.816  0.00  0.00    +0.008 A 
ATOM      5  C   UNL     1      -9.928  16.323  68.428  0.00  0.00    -0.000 A 
ATOM      6  C   UNL     1     -10.963  15.752  67.699  0.00  0.00    +0.018 A 
ATOM      7  C   UNL     1     -10.701  15.056  66.524  0.00  0.00    +0.091 A 
ATOM      8  C   UNL     1      -9.543  15.455  65.865  0.00  0.00    +0.018 A 
ATOM      9  C   UNL     1      -8.531  16.149  66.513  0.00  0.00    -0.000 A 
BRANCH   7  10
ATOM     10  N   UNL     1     -11.330  13.800  66.244  0.00  0.00    -0.101 NA
BRANCH  10  11
ATOM     11  S   UNL     1     -11.997  13.436  64.689  0.00  0.00    +0.075 S 
ATOM     12  O   UNL     1     -13.201  12.558  64.946  0.00  0.00    -0.153 OA
ATOM     13  O   UNL     1     -12.465  14.658  63.974  0.00  0.00    -0.153 OA
ATOM     14  C   UNL     1     -10.760  12.585  63.751  0.00  0.00    +0.202 C 
ENDBRANCH  10  11
ENDBRANCH   7  10
ENDBRANCH   2   4
ENDBRANCH   1   2
BRANCH   1  15
ATOM     15  C   UNL     1      -5.445  17.767  68.438  0.00  0.00    +0.020 C 
BRANCH  15  16
ATOM     16  C   UNL     1      -6.248  18.676  69.327  0.00  0.00    +0.072 C 
BRANCH  16  17
ATOM     17  N   UNL     1      -5.803  20.023  69.371  0.00  0.00    -0.273 NA
BRANCH  17  18
ATOM     18  C   UNL     1      -5.023  20.419  70.481  0.00  0.00    +0.072 C 
ATOM     19  C   UNL     1      -5.458  19.902  71.811  0.00  0.00    +0.019 C 
ENDBRANCH  17  18
BRANCH  17  20
ATOM     20  C   UNL     1      -5.527  20.643  68.124  0.00  0.00    +0.072 C 
BRANCH  20  21
ATOM     21  C   UNL     1      -6.729  21.046  67.326  0.00  0.00    +0.017 C 
BRANCH  21  22
ATOM     22  C   UNL     1      -6.673  20.293  66.003  0.00  0.00    +0.001 C 
BRANCH  22  23
ATOM     23  C   UNL     1      -8.015  19.584  65.869  0.00  0.00    +0.000 C 
BRANCH  23  24
ATOM     24  C   UNL     1      -8.868  20.077  67.016  0.00  0.00    +0.000 C 
BRANCH  24  26
ATOM     25  C   UNL     1     -10.721  19.561  66.798  0.00  0.00    +0.000 C 
ATOM     26  C   UNL     1     -10.342  19.785  66.752  0.00  0.00    +0.000 C 
ENDBRANCH  24  26
ENDBRANCH  23  24
ENDBRANCH  22  23
ENDBRANCH  21  22
ENDBRANCH  20  21
ENDBRANCH  17  20
ENDBRANCH  16  17
ENDBRANCH  15  16
ENDBRANCH   1  15
TORSDOF 14
ENDMDL
MODEL 4
REMARK VINA RESULT:      -5.9      4.033      5.957
REMARK  Name = 
REMARK  14 active torsions:
REMARK  status: ('A' for Active; 'I' for Inactive)
REMARK    1  A    between atoms: C_2  and  C_3
REMARK    2  A    between atoms: C_3  and  C_4
REMARK    3  A    between atoms: C_4  and  C_5
REMARK    4  A    between atoms: C_5  and  C_6
REMARK    5  A    between atoms: C_6  and  C_7
REMARK    6  A    between atoms: C_7  and  N_8
REMARK    7  A    between atoms: N_8  and  C_9
REMARK    8  A    between atoms: N_8  and  C_11
REMARK    9  A    between atoms: C_11  and  C_12
REMARK   10  A    between atoms: C_12  and  C_13
REMARK   11  A    between atoms: C_13  and  C_14
REMARK   12  A    between atoms: C_14  and  C_16
REMARK   13  A    between atoms: C_19  and  N_20
REMARK   14  A    between atoms: N_20  and  S_21
REMARK                            x       y       z     vdW  Elec       q    Type
REMARK                         _______ _______ _______ _____ _____    ______ ____
ROOT
ATOM      1  C   UNL     1     -11.394  12.691  67.783  0.00  0.00    +0.039 C 
ENDROOT
BRANCH   1   2
ATOM      2  C   UNL     1     -11.439  12.076  66.253  0.00  0.00    +0.174 C 
ATOM      3  O   UNL     1     -10.292  11.121  66.542  0.00  0.00    -0.218 OA
BRANCH   2   4
ATOM      4  C   UNL     1     -10.421  13.218  65.716  0.00  0.00    +0.008 A 
ATOM      5  C   UNL     1      -9.431  13.573  66.614  0.00  0.00    -0.000 A 
ATOM      6  C   UNL     1      -9.044  14.904  66.693  0.00  0.00    +0.018 A 
ATOM      7  C   UNL     1      -9.849  15.908  66.166  0.00  0.00    +0.091 A 
ATOM      8  C   UNL     1     -10.668  15.499  65.119  0.00  0.00    +0.018 A 
ATOM      9  C   UNL     1     -10.981  14.162  64.911  0.00  0.00    -0.000 A 
BRANCH   7  10
ATOM     10  N   UNL     1     -10.101  17.120  66.887  0.00  0.00    -0.101 NA
BRANCH  10  11
ATOM     11  S   UNL     1      -9.145  18.543  66.650  0.00  0.00    +0.075 S 
ATOM     12  O   UNL     1      -8.561  18.885  68.002  0.00  0.00    -0.153 OA
ATOM     13  O   UNL     1      -8.013  18.314  65.706  0.00  0.00    -0.153 OA
ATOM     14  C   UNL     1     -10.214  19.825  66.061  0.00  0.00    +0.202 C 
ENDBRANCH  10  11
ENDBRANCH   7  10
ENDBRANCH   2   4
ENDBRANCH   1   2
BRANCH   1  15
ATOM     15  C   UNL     1     -11.807  11.587  68.700  0.00  0.00    +0.020 C 
BRANCH  15  16
ATOM     16  C   UNL     1     -11.925  12.152  70.088  0.00  0.00    +0.072 C 
BRANCH  16  17
ATOM     17  N   UNL     1     -12.729  11.397  70.980  0.00  0.00    -0.273 NA
BRANCH  17  18
ATOM     18  C   UNL     1     -12.417  10.028  71.145  0.00  0.00    +0.072 C 
ATOM     19  C   UNL     1     -13.451   9.193  71.822  0.00  0.00    +0.019 C 
ENDBRANCH  17  18
BRANCH  17  20
ATOM     20  C   UNL     1     -13.252  12.088  72.106  0.00  0.00    +0.072 C 
BRANCH  20  21
ATOM     21  C   UNL     1     -13.790  13.457  71.827  0.00  0.00    +0.017 C 
BRANCH  21  22
ATOM     22  C   UNL     1     -13.203  14.400  72.869  0.00  0.00    +0.001 C 
BRANCH  22  23
ATOM     23  C   UNL     1     -13.036  15.744  72.170  0.00  0.00    +0.000 C 
BRANCH  23  24
ATOM     24  C   UNL     1     -11.608  15.786  71.677  0.00  0.00    +0.000 C 
BRANCH  24  26
ATOM     25  C   UNL     1     -11.637  15.881  69.743  0.00  0.00    +0.000 C 
ATOM     26  C   UNL     1     -11.568  15.994  70.166  0.00  0.00    +0.000 C 
ENDBRANCH  24  26
ENDBRANCH  23  24
ENDBRANCH  22  23
ENDBRANCH  21  22
ENDBRANCH  20  21
ENDBRANCH  17  20
ENDBRANCH  16  17
ENDBRANCH  15  16
ENDBRANCH   1  15
TORSDOF 14
ENDMDL
MODEL 5
REMARK VINA RESULT:      -5.9      3.218      3.689
REMARK  Name = 
REMARK  14 active torsions:
REMARK  status: ('A' for Active; 'I' for Inactive)
REMARK    1  A    between atoms: C_2  and  C_3
REMARK    2  A    between atoms: C_3  and  C_4
REMARK    3  A    between atoms: C_4  and  C_5
REMARK    4  A    between atoms: C_5  and  C_6
REMARK    5  A    between atoms: C_6  and  C_7
REMARK    6  A    between atoms: C_7  and  N_8
REMARK    7  A    between atoms: N_8  and  C_9
REMARK    8  A    between atoms: N_8  and  C_11
REMARK    9  A    between atoms: C_11  and  C_12
REMARK   10  A    between atoms: C_12  and  C_13
REMARK   11  A    between atoms: C_13  and  C_14
REMARK   12  A    between atoms: C_14  and  C_16
REMARK   13  A    between atoms: C_19  and  N_20
REMARK   14  A    between atoms: N_20  and  S_21
REMARK                            x       y       z     vdW  Elec       q    Type
REMARK                         _______ _______ _______ _____ _____    ______ ____
ROOT
ATOM      1  C   UNL     1      -9.287  15.831  67.066  0.00  0.00    +0.039 C 
ENDROOT
BRANCH   1   2
ATOM      2  C   UNL     1     -10.731  16.545  66.709  0.00  0.00    +0.174 C 
ATOM      3  O   UNL     1     -10.172  17.171  65.441  0.00  0.00    -0.218 OA
BRANCH   2   4
ATOM      4  C   UNL     1     -10.349  17.855  67.585  0.00  0.00    +0.008 A 
ATOM      5  C   UNL     1     -10.617  19.060  66.962  0.00  0.00    -0.000 A 
ATOM      6  C   UNL     1      -9.732  20.115  67.134  0.00  0.00    +0.018 A 
ATOM      7  C   UNL     1      -8.445  19.889  67.608  0.00  0.00    +0.091 A 
ATOM      8  C   UNL     1      -8.315  18.756  68.404  0.00  0.00    +0.018 A 
ATOM      9  C   UNL     1      -9.246  17.726  68.371  0.00  0.00    -0.000 A 
BRANCH   7  10
ATOM     10  N   UNL     1      -7.306  20.521  67.011  0.00  0.00    -0.101 NA
BRANCH  10  11
ATOM     11  S   UNL     1      -6.481  19.830  65.656  0.00  0.00    +0.075 S 
ATOM     12  O   UNL     1      -7.201  18.538  65.342  0.00  0.00    -0.153 OA
ATOM     13  O   UNL     1      -6.551  20.700  64.447  0.00  0.00    -0.153 OA
ATOM     14  C   UNL     1      -4.801  19.539  66.132  0.00  0.00    +0.202 C 
ENDBRANCH  10  11
ENDBRANCH   7  10
ENDBRANCH   2   4
ENDBRANCH   1   2
BRANCH   1  15
ATOM     15  C   UNL     1      -9.454  14.371  66.800  0.00  0.00    +0.020 C 
BRANCH  15  16
ATOM     16  C   UNL     1      -9.638  13.674  68.120  0.00  0.00    +0.072 C 
BRANCH  16  17
ATOM     17  N   UNL     1     -10.875  12.996  68.276  0.00  0.00    -0.273 NA
BRANCH  17  18
ATOM     18  C   UNL     1     -10.841  11.681  68.792  0.00  0.00    +0.072 C 
ATOM     19  C   UNL     1     -11.153  10.586  67.829  0.00  0.00    +0.019 C 
ENDBRANCH  17  18
BRANCH  17  20
ATOM     20  C   UNL     1     -12.002  13.797  68.601  0.00  0.00    +0.072 C 
BRANCH  20  21
ATOM     21  C   UNL     1     -12.131  14.170  70.045  0.00  0.00    +0.017 C 
BRANCH  21  22
ATOM     22  C   UNL     1     -12.271  15.685  70.116  0.00  0.00    +0.001 C 
BRANCH  22  23
ATOM     23  C   UNL     1     -11.688  16.097  71.463  0.00  0.00    +0.000 C 
BRANCH  23  24
ATOM     24  C   UNL     1     -12.018  14.977  72.423  0.00  0.00    +0.000 C 
BRANCH  24  26
ATOM     25  C   UNL     1     -12.630  15.645  74.135  0.00  0.00    +0.000 C 
ATOM     26  C   UNL     1     -12.359  15.535  73.801  0.00  0.00    +0.000 C 
ENDBRANCH  24  26
ENDBRANCH  23  24
ENDBRANCH  22  23
ENDBRANCH  21  22
ENDBRANCH  20  21
ENDBRANCH  17  20
ENDBRANCH  16  17
ENDBRANCH  15  16
ENDBRANCH   1  15
TORSDOF 14
ENDMDL
MODEL 6
REMARK VINA RESULT:      -5.9      1.332      4.013
REMARK  Name = 
REMARK  14 active torsions:
REMARK  status: ('A' for Active; 'I' for Inactive)
REMARK    1  A    between atoms: C_2  and  C_3
REMARK    2  A    between atoms: C_3  and  C_4
REMARK    3  A    between atoms: C_4  and  C_5
REMARK    4  A    between atoms: C_5  and  C_6
REMARK    5  A    between atoms: C_6  and  C_7
REMARK    6  A    between atoms: C_7  and  N_8
REMARK    7  A    between atoms: N_8  and  C_9
REMARK    8  A    between atoms: N_8  and  C_11
REMARK    9  A    between atoms: C_11  and  C_12
REMARK   10  A    between atoms: C_12  and  C_13
REMARK   11  A    between atoms: C_13  and  C_14
REMARK   12  A    between atoms: C_14  and  C_16
REMARK   13  A    between atoms: C_19  and  N_20
REMARK   14  A    between atoms: N_20  and  S_21
REMARK                            x       y       z     vdW  Elec       q    Type
REMARK                         _______ _______ _______ _____ _____    ______ ____
ROOT
ATOM      1  C   UNL     1      -9.592  16.983  67.953  0.00  0.00    +0.039 C 
ENDROOT
BRANCH   1   2
ATOM      2  C   UNL     1      -9.691  18.588  67.585  0.00  0.00    +0.174 C 
ATOM      3  O   UNL     1      -9.665  18.304  66.091  0.00  0.00    -0.218 OA
BRANCH   2   4
ATOM      4  C   UNL     1      -8.077  18.744  67.634  0.00  0.00    +0.008 A 
ATOM      5  C   UNL     1      -7.470  18.099  68.696  0.00  0.00    -0.000 A 
ATOM      6  C   UNL     1      -6.388  18.706  69.318  0.00  0.00    +0.018 A 
ATOM      7  C   UNL     1      -6.135  20.061  69.137  0.00  0.00    +0.091 A 
ATOM      8  C   UNL     1      -6.608  20.579  67.935  0.00  0.00    +0.018 A 
ATOM      9  C   UNL     1      -7.598  19.941  67.200  0.00  0.00    -0.000 A 
BRANCH   7  10
ATOM     10  N   UNL     1      -5.793  20.912  70.238  0.00  0.00    -0.101 NA
BRANCH  10  11
ATOM     11  S   UNL     1      -4.436  20.584  71.260  0.00  0.00    +0.075 S 
ATOM     12  O   UNL     1      -4.290  21.791  72.160  0.00  0.00    -0.153 OA
ATOM     13  O   UNL     1      -4.656  19.390  72.127  0.00  0.00    -0.153 OA
ATOM     14  C   UNL     1      -3.015  20.366  70.228  0.00  0.00    +0.202 C 
ENDBRANCH  10  11
ENDBRANCH   7  10
ENDBRANCH   2   4
ENDBRANCH   1   2
BRANCH   1  15
ATOM     15  C   UNL     1     -10.885  16.611  68.601  0.00  0.00    +0.020 C 
BRANCH  15  16
ATOM     16  C   UNL     1     -10.576  15.863  69.867  0.00  0.00    +0.072 C 
BRANCH  16  17
ATOM     17  N   UNL     1     -11.520  14.866  70.225  0.00  0.00    -0.273 NA
BRANCH  17  18
ATOM     18  C   UNL     1     -12.381  15.139  71.312  0.00  0.00    +0.072 C 
ATOM     19  C   UNL     1     -11.928  16.197  72.262  0.00  0.00    +0.019 C 
ENDBRANCH  17  18
BRANCH  17  20
ATOM     20  C   UNL     1     -12.035  14.070  69.168  0.00  0.00    +0.072 C 
BRANCH  20  21
ATOM     21  C   UNL     1     -11.447  12.697  69.052  0.00  0.00    +0.017 C 
BRANCH  21  22
ATOM     22  C   UNL     1     -11.574  12.267  67.596  0.00  0.00    +0.001 C 
BRANCH  22  23
ATOM     23  C   UNL     1     -11.820  13.544  66.802  0.00  0.00    +0.000 C 
BRANCH  23  24
ATOM     24  C   UNL     1     -10.678  13.654  65.818  0.00  0.00    +0.000 C 
BRANCH  24  26
ATOM     25  C   UNL     1     -10.867  15.298  64.813  0.00  0.00    +0.000 C 
ATOM     26  C   UNL     1     -10.713  15.002  65.104  0.00  0.00    +0.000 C 
ENDBRANCH  24  26
ENDBRANCH  23  24
ENDBRANCH  22  23
ENDBRANCH  21  22
ENDBRANCH  20  21
ENDBRANCH  17  20
ENDBRANCH  16  17
ENDBRANCH  15  16
ENDBRANCH   1  15
TORSDOF 14
ENDMDL
MODEL 7
REMARK VINA RESULT:      -5.8      5.603      8.478
REMARK  Name = 
REMARK  14 active torsions:
REMARK  status: ('A' for Active; 'I' for Inactive)
REMARK    1  A    between atoms: C_2  and  C_3
REMARK    2  A    between atoms: C_3  and  C_4
REMARK    3  A    between atoms: C_4  and  C_5
REMARK    4  A    between atoms: C_5  and  C_6
REMARK    5  A    between atoms: C_6  and  C_7
REMARK    6  A    between atoms: C_7  and  N_8
REMARK    7  A    between atoms: N_8  and  C_9
REMARK    8  A    between atoms: N_8  and  C_11
REMARK    9  A    between atoms: C_11  and  C_12
REMARK   10  A    between atoms: C_12  and  C_13
REMARK   11  A    between atoms: C_13  and  C_14
REMARK   12  A    between atoms: C_14  and  C_16
REMARK   13  A    between atoms: C_19  and  N_20
REMARK   14  A    between atoms: N_20  and  S_21
REMARK                            x       y       z     vdW  Elec       q    Type
REMARK                         _______ _______ _______ _____ _____    ______ ____
ROOT
ATOM      1  C   UNL     1     -11.279  13.362  65.977  0.00  0.00    +0.039 C 
ENDROOT
BRANCH   1   2
ATOM      2  C   UNL     1     -10.167  12.905  67.106  0.00  0.00    +0.174 C 
ATOM      3  O   UNL     1      -9.630  11.800  66.210  0.00  0.00    -0.218 OA
BRANCH   2   4
ATOM      4  C   UNL     1     -11.225  11.894  67.804  0.00  0.00    +0.008 A 
ATOM      5  C   UNL     1     -11.680  12.304  69.044  0.00  0.00    -0.000 A 
ATOM      6  C   UNL     1     -11.885  11.351  70.031  0.00  0.00    +0.018 A 
ATOM      7  C   UNL     1     -11.324  10.084  69.920  0.00  0.00    +0.091 A 
ATOM      8  C   UNL     1     -11.093   9.670  68.612  0.00  0.00    +0.018 A 
ATOM      9  C   UNL     1     -11.011  10.572  67.560  0.00  0.00    -0.000 A 
BRANCH   7  10
ATOM     10  N   UNL     1     -10.683   9.449  71.033  0.00  0.00    -0.101 NA
BRANCH  10  11
ATOM     11  S   UNL     1     -11.449   8.186  71.933  0.00  0.00    +0.075 S 
ATOM     12  O   UNL     1     -11.482   6.982  71.020  0.00  0.00    -0.153 OA
ATOM     13  O   UNL     1     -10.679   7.814  73.155  0.00  0.00    -0.153 OA
ATOM     14  C   UNL     1     -13.082   8.729  72.353  0.00  0.00    +0.202 C 
ENDBRANCH  10  11
ENDBRANCH   7  10
ENDBRANCH   2   4
ENDBRANCH   1   2
BRANCH   1  15
ATOM     15  C   UNL     1     -11.746  14.727  66.364  0.00  0.00    +0.020 C 
BRANCH  15  16
ATOM     16  C   UNL     1     -10.537  15.607  66.522  0.00  0.00    +0.072 C 
BRANCH  16  17
ATOM     17  N   UNL     1     -10.572  16.483  67.638  0.00  0.00    -0.273 NA
BRANCH  17  18
ATOM     18  C   UNL     1     -10.514  17.872  67.382  0.00  0.00    +0.072 C 
ATOM     19  C   UNL     1      -9.369  18.342  66.550  0.00  0.00    +0.019 C 
ENDBRANCH  17  18
BRANCH  17  20
ATOM     20  C   UNL     1     -11.332  16.056  68.759  0.00  0.00    +0.072 C 
BRANCH  20  21
ATOM     21  C   UNL     1     -10.536  15.676  69.969  0.00  0.00    +0.017 C 
BRANCH  21  22
ATOM     22  C   UNL     1     -11.478  15.707  71.165  0.00  0.00    +0.001 C 
BRANCH  22  23
ATOM     23  C   UNL     1     -12.875  15.471  70.603  0.00  0.00    +0.000 C 
BRANCH  23  24
ATOM     24  C   UNL     1     -13.778  15.256  71.796  0.00  0.00    +0.000 C 
BRANCH  24  26
ATOM     25  C   UNL     1     -13.890  13.405  72.353  0.00  0.00    +0.000 C 
ATOM     26  C   UNL     1     -13.720  13.803  72.257  0.00  0.00    +0.000 C 
ENDBRANCH  24  26
ENDBRANCH  23  24
ENDBRANCH  22  23
ENDBRANCH  21  22
ENDBRANCH  20  21
ENDBRANCH  17  20
ENDBRANCH  16  17
ENDBRANCH  15  16
ENDBRANCH   1  15
TORSDOF 14
ENDMDL
MODEL 8
REMARK VINA RESULT:      -5.8      4.286      7.691
REMARK  Name = 
REMARK  14 active torsions:
REMARK  status: ('A' for Active; 'I' for Inactive)
REMARK    1  A    between atoms: C_2  and  C_3
REMARK    2  A    between atoms: C_3  and  C_4
REMARK    3  A    between atoms: C_4  and  C_5
REMARK    4  A    between atoms: C_5  and  C_6
REMARK    5  A    between atoms: C_6  and  C_7
REMARK    6  A    between atoms: C_7  and  N_8
REMARK    7  A    between atoms: N_8  and  C_9
REMARK    8  A    between atoms: N_8  and  C_11
REMARK    9  A    between atoms: C_11  and  C_12
REMARK   10  A    between atoms: C_12  and  C_13
REMARK   11  A    between atoms: C_13  and  C_14
REMARK   12  A    between atoms: C_14  and  C_16
REMARK   13  A    between atoms: C_19  and  N_20
REMARK   14  A    between atoms: N_20  and  S_21
REMARK                            x       y       z     vdW  Elec       q    Type
REMARK                         _______ _______ _______ _____ _____    ______ ____
ROOT
ATOM      1  C   UNL     1      -9.248  15.919  66.903  0.00  0.00    +0.039 C 
ENDROOT
BRANCH   1   2
ATOM      2  C   UNL     1      -9.529  14.301  66.744  0.00  0.00    +0.174 C 
ATOM      3  O   UNL     1     -10.155  14.488  65.370  0.00  0.00    -0.218 OA
BRANCH   2   4
ATOM      4  C   UNL     1     -10.971  14.434  67.474  0.00  0.00    +0.008 A 
ATOM      5  C   UNL     1     -11.241  15.689  67.990  0.00  0.00    -0.000 A 
ATOM      6  C   UNL     1     -11.918  15.786  69.197  0.00  0.00    +0.018 A 
ATOM      7  C   UNL     1     -12.012  14.689  70.046  0.00  0.00    +0.091 A 
ATOM      8  C   UNL     1     -11.937  13.457  69.405  0.00  0.00    +0.018 A 
ATOM      9  C   UNL     1     -11.390  13.321  68.136  0.00  0.00    -0.000 A 
BRANCH   7  10
ATOM     10  N   UNL     1     -11.799  14.815  71.457  0.00  0.00    -0.101 NA
BRANCH  10  11
ATOM     11  S   UNL     1     -13.113  14.867  72.581  0.00  0.00    +0.075 S 
ATOM     12  O   UNL     1     -14.104  15.862  72.020  0.00  0.00    -0.153 OA
ATOM     13  O   UNL     1     -13.805  13.551  72.705  0.00  0.00    -0.153 OA
ATOM     14  C   UNL     1     -12.473  15.397  74.145  0.00  0.00    +0.202 C 
ENDBRANCH  10  11
ENDBRANCH   7  10
ENDBRANCH   2   4
ENDBRANCH   1   2
BRANCH   1  15
ATOM     15  C   UNL     1      -7.819  16.067  67.310  0.00  0.00    +0.020 C 
BRANCH  15  16
ATOM     16  C   UNL     1      -7.780  16.366  68.783  0.00  0.00    +0.072 C 
BRANCH  16  17
ATOM     17  N   UNL     1      -6.756  17.259  69.190  0.00  0.00    -0.273 NA
BRANCH  17  18
ATOM     18  C   UNL     1      -5.427  16.780  69.183  0.00  0.00    +0.072 C 
ATOM     19  C   UNL     1      -4.823  16.491  70.516  0.00  0.00    +0.019 C 
ENDBRANCH  17  18
BRANCH  17  20
ATOM     20  C   UNL     1      -6.957  18.634  68.894  0.00  0.00    +0.072 C 
BRANCH  20  21
ATOM     21  C   UNL     1      -5.992  19.229  67.916  0.00  0.00    +0.017 C 
BRANCH  21  22
ATOM     22  C   UNL     1      -6.781  19.613  66.671  0.00  0.00    +0.001 C 
BRANCH  22  23
ATOM     23  C   UNL     1      -8.080  20.231  67.173  0.00  0.00    +0.000 C 
BRANCH  23  24
ATOM     24  C   UNL     1      -9.175  19.689  66.282  0.00  0.00    +0.000 C 
BRANCH  24  26
ATOM     25  C   UNL     1     -10.674  19.362  67.463  0.00  0.00    +0.000 C 
ATOM     26  C   UNL     1     -10.416  19.354  67.102  0.00  0.00    +0.000 C 
ENDBRANCH  24  26
ENDBRANCH  23  24
ENDBRANCH  22  23
ENDBRANCH  21  22
ENDBRANCH  20  21
ENDBRANCH  17  20
ENDBRANCH  16  17
ENDBRANCH  15  16
ENDBRANCH   1  15
TORSDOF 14
ENDMDL
MODEL 9
REMARK VINA RESULT:      -5.8      6.979      9.726
REMARK  Name = 
REMARK  14 active torsions:
REMARK  status: ('A' for Active; 'I' for Inactive)
REMARK    1  A    between atoms: C_2  and  C_3
REMARK    2  A    between atoms: C_3  and  C_4
REMARK    3  A    between atoms: C_4  and  C_5
REMARK    4  A    between atoms: C_5  and  C_6
REMARK    5  A    between atoms: C_6  and  C_7
REMARK    6  A    between atoms: C_7  and  N_8
REMARK    7  A    between atoms: N_8  and  C_9
REMARK    8  A    between atoms: N_8  and  C_11
REMARK    9  A    between atoms: C_11  and  C_12
REMARK   10  A    between atoms: C_12  and  C_13
REMARK   11  A    between atoms: C_13  and  C_14
REMARK   12  A    between atoms: C_14  and  C_16
REMARK   13  A    between atoms: C_19  and  N_20
REMARK   14  A    between atoms: N_20  and  S_21
REMARK                            x       y       z     vdW  Elec       q    Type
REMARK                         _______ _______ _______ _____ _____    ______ ____
ROOT
ATOM      1  C   UNL     1     -10.442  10.645  69.502  0.00  0.00    +0.039 C 
ENDROOT
BRANCH   1   2
ATOM      2  C   UNL     1     -11.862  11.479  69.409  0.00  0.00    +0.174 C 
ATOM      3  O   UNL     1     -12.117  10.998  67.989  0.00  0.00    -0.218 OA
BRANCH   2   4
ATOM      4  C   UNL     1     -11.099  12.807  68.876  0.00  0.00    +0.008 A 
ATOM      5  C   UNL     1     -11.937  13.855  68.541  0.00  0.00    -0.000 A 
ATOM      6  C   UNL     1     -11.620  14.641  67.441  0.00  0.00    +0.018 A 
ATOM      7  C   UNL     1     -10.707  14.194  66.492  0.00  0.00    +0.091 A 
ATOM      8  C   UNL     1      -9.767  13.292  66.977  0.00  0.00    +0.018 A 
ATOM      9  C   UNL     1      -9.973  12.575  68.148  0.00  0.00    -0.000 A 
BRANCH   7  10
ATOM     10  N   UNL     1     -10.961  14.334  65.089  0.00  0.00    -0.101 NA
BRANCH  10  11
ATOM     11  S   UNL     1     -11.785  13.113  64.181  0.00  0.00    +0.075 S 
ATOM     12  O   UNL     1     -12.698  12.409  65.160  0.00  0.00    -0.153 OA
ATOM     13  O   UNL     1     -12.633  13.688  63.097  0.00  0.00    -0.153 OA
ATOM     14  C   UNL     1     -10.569  12.010  63.519  0.00  0.00    +0.202 C 
ENDBRANCH  10  11
ENDBRANCH   7  10
ENDBRANCH   2   4
ENDBRANCH   1   2
BRANCH   1  15
ATOM     15  C   UNL     1     -10.763   9.318  70.107  0.00  0.00    +0.020 C 
BRANCH  15  16
ATOM     16  C   UNL     1     -11.584   9.554  71.343  0.00  0.00    +0.072 C 
BRANCH  16  17
ATOM     17  N   UNL     1     -12.325   8.433  71.798  0.00  0.00    -0.273 NA
BRANCH  17  18
ATOM     18  C   UNL     1     -13.579   8.677  72.402  0.00  0.00    +0.072 C 
ATOM     19  C   UNL     1     -14.753   7.997  71.782  0.00  0.00    +0.019 C 
ENDBRANCH  17  18
BRANCH  17  20
ATOM     20  C   UNL     1     -12.180   7.231  71.056  0.00  0.00    +0.072 C 
BRANCH  20  21
ATOM     21  C   UNL     1     -11.466   6.120  71.762  0.00  0.00    +0.017 C 
BRANCH  21  22
ATOM     22  C   UNL     1     -10.107   5.953  71.096  0.00  0.00    +0.001 C 
BRANCH  22  23
ATOM     23  C   UNL     1     -10.295   4.884  70.026  0.00  0.00    +0.000 C 
BRANCH  23  24
ATOM     24  C   UNL     1      -9.704   5.452  68.756  0.00  0.00    +0.000 C 
BRANCH  24  26
ATOM     25  C   UNL     1     -10.973   6.279  67.550  0.00  0.00    +0.000 C 
ATOM     26  C   UNL     1     -10.781   6.142  67.925  0.00  0.00    +0.000 C 
ENDBRANCH  24  26
ENDBRANCH  23  24
ENDBRANCH  22  23
ENDBRANCH  21  22
ENDBRANCH  20  21
ENDBRANCH  17  20
ENDBRANCH  16  17
ENDBRANCH  15  16
ENDBRANCH   1  15
TORSDOF 14
ENDMDL
