MODEL 1
REMARK VINA RESULT:      -9.4      0.000      0.000
REMARK  Name = 
REMARK  3 active torsions:
REMARK  status: ('A' for Active; 'I' for Inactive)
REMARK    1  A    between atoms: C_4  and  O_5
REMARK    2  A    between atoms: O_5  and  C_6
REMARK    3  A    between atoms: C_35  and  C_36
REMARK                            x       y       z     vdW  Elec       q    Type
REMARK                         _______ _______ _______ _____ _____    ______ ____
ROOT
ATOM      1  C   UNL     1      -9.197  12.174  68.464  0.00  0.00    +0.142 C 
ATOM      2  C   UNL     1      -9.634  13.472  67.542  0.00  0.00    +0.064 C 
ATOM      3  C   UNL     1      -9.805  12.897  66.015  0.00  0.00    +0.134 C 
ATOM      4  O   UNL     1      -9.609  14.203  65.332  0.00  0.00    -0.334 OA
ATOM      5  C   UNL     1      -9.983  15.304  65.732  0.00  0.00    +0.224 C 
ATOM      6  C   UNL     1     -11.226  15.222  66.606  0.00  0.00    +0.093 C 
ATOM      7  C   UNL     1     -11.954  14.339  65.421  0.00  0.00    +0.170 C 
ATOM      8  O   UNL     1     -13.283  14.197  66.166  0.00  0.00    -0.222 OA
ATOM      9  O   UNL     1     -10.486  16.117  64.648  0.00  0.00    -0.195 OA
ATOM     10  C   UNL     1      -8.984  16.260  66.223  0.00  0.00    +0.092 C 
ATOM     11  C   UNL     1      -9.839  17.543  66.869  0.00  0.00    +0.159 C 
ATOM     12  O   UNL     1      -9.277  17.154  68.228  0.00  0.00    -0.223 OA
ATOM     13  C   UNL     1      -8.709  18.549  66.332  0.00  0.00    +0.065 C 
ATOM     14  C   UNL     1      -8.143  19.669  67.348  0.00  0.00    +0.149 C 
ATOM     15  C   UNL     1      -7.328  18.505  68.266  0.00  0.00    +0.164 C 
ATOM     16  C   UNL     1      -6.281  19.577  68.904  0.00  0.00    +0.012 C 
ATOM     17  C   UNL     1      -6.284  19.656  70.206  0.00  0.00    +0.080 C 
ATOM     18  C   UNL     1      -5.513  18.604  70.872  0.00  0.00    +0.341 C 
ATOM     19  O   UNL     1      -5.088  18.875  71.985  0.00  0.00    -0.245 OA
ATOM     20  O   UNL     1      -5.358  17.551  69.954  0.00  0.00    -0.449 OA
ATOM     21  C   UNL     1      -4.086  17.962  69.197  0.00  0.00    +0.174 C 
ATOM     22  C   UNL     1      -4.462  17.745  67.606  0.00  0.00    +0.048 C 
ATOM     23  C   UNL     1      -3.640  16.378  69.094  0.00  0.00    +0.070 C 
ATOM     24  C   UNL     1      -3.804  15.658  70.320  0.00  0.00    -0.022 C 
ATOM     25  C   UNL     1      -3.299  14.474  70.379  0.00  0.00    -0.004 C 
ATOM     26  C   UNL     1      -3.367  13.467  69.313  0.00  0.00    -0.000 C 
ATOM     27  C   UNL     1      -3.941  13.661  68.243  0.00  0.00    -0.000 C 
ATOM     28  C   UNL     1      -4.798  12.427  68.178  0.00  0.00    -0.000 C 
ATOM     29  C   UNL     1      -5.620  12.936  67.371  0.00  0.00    -0.000 C 
ATOM     30  C   UNL     1      -7.072  12.959  67.323  0.00  0.00    -0.002 C 
ATOM     31  O   UNL     1      -8.761  19.161  68.803  0.00  0.00    -0.349 OA
ATOM     32  C   UNL     1     -11.505  12.801  65.980  0.00  0.00    +0.161 C 
ATOM     33  C   UNL     1      -7.595  12.314  68.317  0.00  0.00    +0.003 C 
ENDROOT
BRANCH  32  34
ATOM     34  C   UNL     1     -11.525  12.185  64.515  0.00  0.00    +0.369 C 
ATOM     35  O   UNL     1     -10.920  10.938  64.522  0.00  0.00    -0.245 OA
ATOM     36  O   UNL     1     -12.585  12.179  63.837  0.00  0.00    -0.245 OA
ENDBRANCH  32  34
BRANCH   1  37
ATOM     37  O   UNL     1      -9.229  11.102  67.392  0.00  0.00    -0.327 OA
BRANCH  37  46
ATOM     38  C   UNL     1      -7.659   8.580  69.864  0.00  0.00    +0.035 C 
ATOM     39  C   UNL     1      -9.287   8.750  70.028  0.00  0.00    +0.150 C 
ATOM     40  C   UNL     1      -9.714   7.519  68.918  0.00  0.00    +0.199 C 
ATOM     41  O   UNL     1     -11.040   7.319  69.596  0.00  0.00    -0.219 OA
ATOM     42  C   UNL     1     -10.446   8.525  67.783  0.00  0.00    +0.160 C 
ATOM     43  N   UNL     1     -10.767   7.333  66.846  0.00  0.00    -0.127 NA
ATOM     44  C   UNL     1      -9.057   8.916  66.893  0.00  0.00    +0.228 C 
ATOM     45  O   UNL     1      -8.198   7.723  67.193  0.00  0.00    -0.216 OA
ATOM     46  C   UNL     1      -8.394  10.002  68.079  0.00  0.00    +0.268 C 
ATOM     47  O   UNL     1      -9.454   9.912  69.132  0.00  0.00    -0.328 OA
ENDBRANCH  37  46
ENDBRANCH   1  37
TORSDOF 3
ENDMDL
MODEL 2
REMARK VINA RESULT:      -8.8      2.953      8.491
REMARK  Name = 
REMARK  3 active torsions:
REMARK  status: ('A' for Active; 'I' for Inactive)
REMARK    1  A    between atoms: C_4  and  O_5
REMARK    2  A    between atoms: O_5  and  C_6
REMARK    3  A    between atoms: C_35  and  C_36
REMARK                            x       y       z     vdW  Elec       q    Type
REMARK                         _______ _______ _______ _____ _____    ______ ____
ROOT
ATOM      1  C   UNL     1      -6.234  16.716  67.203  0.00  0.00    +0.142 C 
ATOM      2  C   UNL     1      -7.870  16.563  67.042  0.00  0.00    +0.064 C 
ATOM      3  C   UNL     1      -8.518  17.289  68.362  0.00  0.00    +0.134 C 
ATOM      4  O   UNL     1      -9.815  16.564  68.320  0.00  0.00    -0.334 OA
ATOM      5  C   UNL     1     -10.431  16.220  67.313  0.00  0.00    +0.224 C 
ATOM      6  C   UNL     1     -10.173  17.133  66.124  0.00  0.00    +0.093 C 
ATOM      7  C   UNL     1     -10.549  18.421  67.080  0.00  0.00    +0.170 C 
ATOM      8  O   UNL     1     -10.359  19.461  65.975  0.00  0.00    -0.222 OA
ATOM      9  O   UNL     1     -11.855  16.408  67.475  0.00  0.00    -0.195 OA
ATOM     10  C   UNL     1     -10.480  14.797  66.958  0.00  0.00    +0.092 C 
ATOM     11  C   UNL     1     -11.205  14.710  65.455  0.00  0.00    +0.159 C 
ATOM     12  O   UNL     1      -9.879  14.200  64.912  0.00  0.00    -0.223 OA
ATOM     13  C   UNL     1     -11.919  13.342  65.893  0.00  0.00    +0.065 C 
ATOM     14  C   UNL     1     -11.867  12.095  64.868  0.00  0.00    +0.149 C 
ATOM     15  C   UNL     1     -10.215  11.864  65.147  0.00  0.00    +0.164 C 
ATOM     16  C   UNL     1     -10.232  10.312  64.651  0.00  0.00    +0.012 C 
ATOM     17  C   UNL     1      -9.437  10.033  63.654  0.00  0.00    +0.080 C 
ATOM     18  C   UNL     1      -8.041   9.827  64.042  0.00  0.00    +0.341 C 
ATOM     19  O   UNL     1      -7.376   9.126  63.293  0.00  0.00    -0.245 OA
ATOM     20  O   UNL     1      -7.862  10.422  65.302  0.00  0.00    -0.449 OA
ATOM     21  C   UNL     1      -8.264   9.289  66.259  0.00  0.00    +0.174 C 
ATOM     22  C   UNL     1      -9.264  10.008  67.356  0.00  0.00    +0.048 C 
ATOM     23  C   UNL     1      -7.096   9.773  67.318  0.00  0.00    +0.070 C 
ATOM     24  C   UNL     1      -5.843  10.063  66.691  0.00  0.00    -0.022 C 
ATOM     25  C   UNL     1      -4.830  10.258  67.463  0.00  0.00    -0.004 C 
ATOM     26  C   UNL     1      -4.845  11.041  68.704  0.00  0.00    -0.000 C 
ATOM     27  C   UNL     1      -5.850  11.612  69.124  0.00  0.00    -0.000 C 
ATOM     28  C   UNL     1      -5.288  12.985  69.369  0.00  0.00    -0.000 C 
ATOM     29  C   UNL     1      -6.414  13.547  69.324  0.00  0.00    -0.000 C 
ATOM     30  C   UNL     1      -6.894  14.749  68.663  0.00  0.00    -0.002 C 
ATOM     31  O   UNL     1     -10.747  12.608  63.755  0.00  0.00    -0.349 OA
ATOM     32  C   UNL     1      -8.980  18.756  67.632  0.00  0.00    +0.161 C 
ATOM     33  C   UNL     1      -5.951  15.339  68.000  0.00  0.00    +0.003 C 
ENDROOT
BRANCH  32  34
ATOM     34  C   UNL     1      -9.514  19.367  68.998  0.00  0.00    +0.369 C 
ATOM     35  O   UNL     1      -8.475  19.992  69.671  0.00  0.00    -0.245 OA
ATOM     36  O   UNL     1     -10.562  20.062  69.023  0.00  0.00    -0.245 OA
ENDBRANCH  32  34
BRANCH   1  37
ATOM     37  O   UNL     1      -6.197  17.504  68.498  0.00  0.00    -0.327 OA
BRANCH  37  46
ATOM     38  C   UNL     1      -3.207  19.877  67.898  0.00  0.00    +0.035 C 
ATOM     39  C   UNL     1      -4.533  20.620  68.530  0.00  0.00    +0.150 C 
ATOM     40  C   UNL     1      -4.114  20.378  70.173  0.00  0.00    +0.199 C 
ATOM     41  O   UNL     1      -4.937  21.563  70.593  0.00  0.00    -0.219 OA
ATOM     42  C   UNL     1      -5.396  19.352  70.551  0.00  0.00    +0.160 C 
ATOM     43  N   UNL     1      -4.914  19.192  72.015  0.00  0.00    -0.127 NA
ATOM     44  C   UNL     1      -4.664  17.892  70.096  0.00  0.00    +0.228 C 
ATOM     45  O   UNL     1      -3.217  18.256  70.250  0.00  0.00    -0.216 OA
ATOM     46  C   UNL     1      -4.804  18.157  68.383  0.00  0.00    +0.268 C 
ATOM     47  O   UNL     1      -5.477  19.494  68.383  0.00  0.00    -0.328 OA
ENDBRANCH  37  46
ENDBRANCH   1  37
TORSDOF 3
ENDMDL
MODEL 3
REMARK VINA RESULT:      -8.7      2.884      8.386
REMARK  Name = 
REMARK  3 active torsions:
REMARK  status: ('A' for Active; 'I' for Inactive)
REMARK    1  A    between atoms: C_4  and  O_5
REMARK    2  A    between atoms: O_5  and  C_6
REMARK    3  A    between atoms: C_35  and  C_36
REMARK                            x       y       z     vdW  Elec       q    Type
REMARK                         _______ _______ _______ _____ _____    ______ ____
ROOT
ATOM      1  C   UNL     1      -6.062  16.147  67.615  0.00  0.00    +0.142 C 
ATOM      2  C   UNL     1      -7.654  15.725  67.506  0.00  0.00    +0.064 C 
ATOM      3  C   UNL     1      -8.460  16.764  68.488  0.00  0.00    +0.134 C 
ATOM      4  O   UNL     1      -9.650  15.897  68.693  0.00  0.00    -0.334 OA
ATOM      5  C   UNL     1     -10.162  15.147  67.865  0.00  0.00    +0.224 C 
ATOM      6  C   UNL     1      -9.959  15.621  66.434  0.00  0.00    +0.093 C 
ATOM      7  C   UNL     1     -10.546  17.095  66.880  0.00  0.00    +0.170 C 
ATOM      8  O   UNL     1     -10.431  17.707  65.483  0.00  0.00    -0.222 OA
ATOM      9  O   UNL     1     -11.605  15.181  67.943  0.00  0.00    -0.195 OA
ATOM     10  C   UNL     1     -10.010  13.696  68.028  0.00  0.00    +0.092 C 
ATOM     11  C   UNL     1     -10.637  12.999  66.644  0.00  0.00    +0.159 C 
ATOM     12  O   UNL     1      -9.230  12.520  66.320  0.00  0.00    -0.223 OA
ATOM     13  C   UNL     1     -11.195  11.780  67.527  0.00  0.00    +0.065 C 
ATOM     14  C   UNL     1     -10.929  10.276  67.001  0.00  0.00    +0.149 C 
ATOM     15  C   UNL     1      -9.279  10.385  67.352  0.00  0.00    +0.164 C 
ATOM     16  C   UNL     1      -9.072   8.771  67.427  0.00  0.00    +0.012 C 
ATOM     17  C   UNL     1      -8.196   8.279  66.594  0.00  0.00    +0.080 C 
ATOM     18  C   UNL     1      -6.808   8.412  67.038  0.00  0.00    +0.341 C 
ATOM     19  O   UNL     1      -6.020   7.596  66.584  0.00  0.00    -0.245 OA
ATOM     20  O   UNL     1      -6.773   9.423  68.013  0.00  0.00    -0.449 OA
ATOM     21  C   UNL     1      -7.079   8.645  69.303  0.00  0.00    +0.174 C 
ATOM     22  C   UNL     1      -8.219   9.552  70.075  0.00  0.00    +0.048 C 
ATOM     23  C   UNL     1      -6.040   9.620  70.133  0.00  0.00    +0.070 C 
ATOM     24  C   UNL     1      -4.802   9.846  69.452  0.00  0.00    -0.022 C 
ATOM     25  C   UNL     1      -3.865  10.432  70.114  0.00  0.00    -0.004 C 
ATOM     26  C   UNL     1      -4.045  11.584  71.005  0.00  0.00    -0.000 C 
ATOM     27  C   UNL     1      -5.136  12.120  71.194  0.00  0.00    -0.000 C 
ATOM     28  C   UNL     1      -4.767  13.557  70.949  0.00  0.00    -0.000 C 
ATOM     29  C   UNL     1      -5.952  13.909  70.705  0.00  0.00    -0.000 C 
ATOM     30  C   UNL     1      -6.544  14.731  69.664  0.00  0.00    -0.002 C 
ATOM     31  O   UNL     1      -9.826  10.524  65.785  0.00  0.00    -0.349 OA
ATOM     32  C   UNL     1      -9.064  17.812  67.289  0.00  0.00    +0.161 C 
ATOM     33  C   UNL     1      -5.650  15.182  68.842  0.00  0.00    +0.003 C 
ENDROOT
BRANCH  32  34
ATOM     34  C   UNL     1      -9.744  18.775  68.355  0.00  0.00    +0.369 C 
ATOM     35  O   UNL     1      -8.766  19.454  69.065  0.00  0.00    -0.245 OA
ATOM     36  O   UNL     1     -10.683  19.542  68.018  0.00  0.00    -0.245 OA
ENDBRANCH  32  34
BRANCH   1  37
ATOM     37  O   UNL     1      -6.195  17.329  68.554  0.00  0.00    -0.327 OA
BRANCH  37  46
ATOM     38  C   UNL     1      -3.181  19.629  67.802  0.00  0.00    +0.035 C 
ATOM     39  C   UNL     1      -4.505  20.426  68.369  0.00  0.00    +0.150 C 
ATOM     40  C   UNL     1      -4.099  20.302  70.028  0.00  0.00    +0.199 C 
ATOM     41  O   UNL     1      -4.914  21.521  70.354  0.00  0.00    -0.219 OA
ATOM     42  C   UNL     1      -5.391  19.317  70.471  0.00  0.00    +0.160 C 
ATOM     43  N   UNL     1      -4.919  19.262  71.946  0.00  0.00    -0.127 NA
ATOM     44  C   UNL     1      -4.669  17.822  70.130  0.00  0.00    +0.228 C 
ATOM     45  O   UNL     1      -3.219  18.184  70.266  0.00  0.00    -0.216 OA
ATOM     46  C   UNL     1      -4.796  17.961  68.401  0.00  0.00    +0.268 C 
ATOM     47  O   UNL     1      -5.457  19.300  68.298  0.00  0.00    -0.328 OA
ENDBRANCH  37  46
ENDBRANCH   1  37
TORSDOF 3
ENDMDL
MODEL 4
REMARK VINA RESULT:      -8.6      3.009      8.322
REMARK  Name = 
REMARK  3 active torsions:
REMARK  status: ('A' for Active; 'I' for Inactive)
REMARK    1  A    between atoms: C_4  and  O_5
REMARK    2  A    between atoms: O_5  and  C_6
REMARK    3  A    between atoms: C_35  and  C_36
REMARK                            x       y       z     vdW  Elec       q    Type
REMARK                         _______ _______ _______ _____ _____    ______ ____
ROOT
ATOM      1  C   UNL     1      -6.239  16.104  67.380  0.00  0.00    +0.142 C 
ATOM      2  C   UNL     1      -7.780  15.521  67.268  0.00  0.00    +0.064 C 
ATOM      3  C   UNL     1      -8.712  16.556  68.135  0.00  0.00    +0.134 C 
ATOM      4  O   UNL     1      -9.821  15.599  68.384  0.00  0.00    -0.334 OA
ATOM      5  C   UNL     1     -10.233  14.735  67.611  0.00  0.00    +0.224 C 
ATOM      6  C   UNL     1     -10.027  15.106  66.151  0.00  0.00    +0.093 C 
ATOM      7  C   UNL     1     -10.765  16.547  66.451  0.00  0.00    +0.170 C 
ATOM      8  O   UNL     1     -10.661  17.048  65.010  0.00  0.00    -0.222 OA
ATOM      9  O   UNL     1     -11.674  14.636  67.650  0.00  0.00    -0.195 OA
ATOM     10  C   UNL     1      -9.950  13.325  67.903  0.00  0.00    +0.092 C 
ATOM     11  C   UNL     1     -10.461  12.457  66.570  0.00  0.00    +0.159 C 
ATOM     12  O   UNL     1      -9.005  12.091  66.325  0.00  0.00    -0.223 OA
ATOM     13  C   UNL     1     -10.931  11.268  67.541  0.00  0.00    +0.065 C 
ATOM     14  C   UNL     1     -10.508   9.759  67.154  0.00  0.00    +0.149 C 
ATOM     15  C   UNL     1      -8.888  10.055  67.536  0.00  0.00    +0.164 C 
ATOM     16  C   UNL     1      -8.532   8.481  67.756  0.00  0.00    +0.012 C 
ATOM     17  C   UNL     1      -7.586   8.008  66.992  0.00  0.00    +0.080 C 
ATOM     18  C   UNL     1      -6.232   8.312  67.458  0.00  0.00    +0.341 C 
ATOM     19  O   UNL     1      -5.356   7.540  67.098  0.00  0.00    -0.245 OA
ATOM     20  O   UNL     1      -6.326   9.400  68.343  0.00  0.00    -0.449 OA
ATOM     21  C   UNL     1      -6.600   8.706  69.687  0.00  0.00    +0.174 C 
ATOM     22  C   UNL     1      -7.847   9.561  70.348  0.00  0.00    +0.048 C 
ATOM     23  C   UNL     1      -5.686   9.844  70.455  0.00  0.00    +0.070 C 
ATOM     24  C   UNL     1      -4.453  10.130  69.789  0.00  0.00    -0.022 C 
ATOM     25  C   UNL     1      -3.598  10.858  70.422  0.00  0.00    -0.004 C 
ATOM     26  C   UNL     1      -3.917  12.058  71.205  0.00  0.00    -0.000 C 
ATOM     27  C   UNL     1      -5.059  12.500  71.319  0.00  0.00    -0.000 C 
ATOM     28  C   UNL     1      -4.819  13.940  70.959  0.00  0.00    -0.000 C 
ATOM     29  C   UNL     1      -6.023  14.154  70.655  0.00  0.00    -0.000 C 
ATOM     30  C   UNL     1      -6.654  14.825  69.531  0.00  0.00    -0.002 C 
ATOM     31  O   UNL     1      -9.392  10.009  65.950  0.00  0.00    -0.349 OA
ATOM     32  C   UNL     1      -9.372  17.437  66.835  0.00  0.00    +0.161 C 
ATOM     33  C   UNL     1      -5.779  15.290  68.697  0.00  0.00    +0.003 C 
ENDROOT
BRANCH  32  34
ATOM     34  C   UNL     1     -10.175  18.416  67.795  0.00  0.00    +0.369 C 
ATOM     35  O   UNL     1      -9.299  19.035  68.674  0.00  0.00    -0.245 OA
ATOM     36  O   UNL     1     -11.009  19.233  67.325  0.00  0.00    -0.245 OA
ENDBRANCH  32  34
BRANCH   1  37
ATOM     37  O   UNL     1      -6.515  17.342  68.210  0.00  0.00    -0.327 OA
BRANCH  37  46
ATOM     38  C   UNL     1      -3.107  18.782  67.091  0.00  0.00    +0.035 C 
ATOM     39  C   UNL     1      -4.283  18.882  65.944  0.00  0.00    +0.150 C 
ATOM     40  C   UNL     1      -4.870  20.421  66.416  0.00  0.00    +0.199 C 
ATOM     41  O   UNL     1      -5.403  20.679  65.035  0.00  0.00    -0.219 OA
ATOM     42  C   UNL     1      -6.395  19.905  66.909  0.00  0.00    +0.160 C 
ATOM     43  N   UNL     1      -6.813  21.341  67.319  0.00  0.00    -0.127 NA
ATOM     44  C   UNL     1      -5.998  19.510  68.510  0.00  0.00    +0.228 C 
ATOM     45  O   UNL     1      -4.808  20.399  68.720  0.00  0.00    -0.216 OA
ATOM     46  C   UNL     1      -5.145  18.046  68.117  0.00  0.00    +0.268 C 
ATOM     47  O   UNL     1      -5.295  18.051  66.628  0.00  0.00    -0.328 OA
ENDBRANCH  37  46
ENDBRANCH   1  37
TORSDOF 3
ENDMDL
MODEL 5
REMARK VINA RESULT:      -8.6      4.653      9.946
REMARK  Name = 
REMARK  3 active torsions:
REMARK  status: ('A' for Active; 'I' for Inactive)
REMARK    1  A    between atoms: C_4  and  O_5
REMARK    2  A    between atoms: O_5  and  C_6
REMARK    3  A    between atoms: C_35  and  C_36
REMARK                            x       y       z     vdW  Elec       q    Type
REMARK                         _______ _______ _______ _____ _____    ______ ____
ROOT
ATOM      1  C   UNL     1     -10.738   9.496  67.538  0.00  0.00    +0.142 C 
ATOM      2  C   UNL     1     -10.916   8.850  69.048  0.00  0.00    +0.064 C 
ATOM      3  C   UNL     1     -10.918  10.125  70.081  0.00  0.00    +0.134 C 
ATOM      4  O   UNL     1     -10.506   9.354  71.283  0.00  0.00    -0.334 OA
ATOM      5  C   UNL     1     -10.831   8.202  71.562  0.00  0.00    +0.224 C 
ATOM      6  C   UNL     1     -12.188   7.818  70.994  0.00  0.00    +0.093 C 
ATOM      7  C   UNL     1     -12.817   9.179  71.676  0.00  0.00    +0.170 C 
ATOM      8  O   UNL     1     -14.246   8.912  71.201  0.00  0.00    -0.222 OA
ATOM      9  O   UNL     1     -11.095   8.056  72.976  0.00  0.00    -0.195 OA
ATOM     10  C   UNL     1      -9.829   7.134  71.458  0.00  0.00    +0.092 C 
ATOM     11  C   UNL     1     -10.646   5.696  71.703  0.00  0.00    +0.159 C 
ATOM     12  O   UNL     1     -10.324   5.338  70.260  0.00  0.00    -0.223 OA
ATOM     13  C   UNL     1      -9.362   5.114  72.471  0.00  0.00    +0.065 C 
ATOM     14  C   UNL     1      -8.848   3.635  72.078  0.00  0.00    +0.149 C 
ATOM     15  C   UNL     1      -8.285   4.169  70.576  0.00  0.00    +0.164 C 
ATOM     16  C   UNL     1      -7.246   2.928  70.396  0.00  0.00    +0.012 C 
ATOM     17  C   UNL     1      -7.429   2.193  69.334  0.00  0.00    +0.080 C 
ATOM     18  C   UNL     1      -6.862   2.760  68.108  0.00  0.00    +0.341 C 
ATOM     19  O   UNL     1      -6.578   1.959  67.230  0.00  0.00    -0.245 OA
ATOM     20  O   UNL     1      -6.674   4.135  68.329  0.00  0.00    -0.449 OA
ATOM     21  C   UNL     1      -5.274   4.176  68.960  0.00  0.00    +0.174 C 
ATOM     22  C   UNL     1      -5.435   5.176  70.262  0.00  0.00    +0.048 C 
ATOM     23  C   UNL     1      -4.966   5.593  68.173  0.00  0.00    +0.070 C 
ATOM     24  C   UNL     1      -5.370   5.582  66.801  0.00  0.00    -0.022 C 
ATOM     25  C   UNL     1      -4.990   6.572  66.068  0.00  0.00    -0.004 C 
ATOM     26  C   UNL     1      -4.996   7.982  66.475  0.00  0.00    -0.000 C 
ATOM     27  C   UNL     1      -5.390   8.360  67.577  0.00  0.00    -0.000 C 
ATOM     28  C   UNL     1      -6.338   9.449  67.157  0.00  0.00    -0.000 C 
ATOM     29  C   UNL     1      -6.986   9.420  68.237  0.00  0.00    -0.000 C 
ATOM     30  C   UNL     1      -8.407   9.418  68.538  0.00  0.00    -0.002 C 
ATOM     31  O   UNL     1      -9.714   3.323  70.696  0.00  0.00    -0.349 OA
ATOM     32  C   UNL     1     -12.596  10.216  70.352  0.00  0.00    +0.161 C 
ATOM     33  C   UNL     1      -9.125   9.460  67.460  0.00  0.00    +0.003 C 
ENDROOT
BRANCH  32  34
ATOM     34  C   UNL     1     -12.462  11.495  71.285  0.00  0.00    +0.369 C 
ATOM     35  O   UNL     1     -12.134  12.603  70.520  0.00  0.00    -0.245 OA
ATOM     36  O   UNL     1     -13.353  11.768  72.131  0.00  0.00    -0.245 OA
ENDBRANCH  32  34
BRANCH   1  37
ATOM     37  O   UNL     1     -10.713  10.965  67.912  0.00  0.00    -0.327 OA
BRANCH  37  46
ATOM     38  C   UNL     1     -10.425  12.162  64.248  0.00  0.00    +0.035 C 
ATOM     39  C   UNL     1     -11.940  12.294  64.877  0.00  0.00    +0.150 C 
ATOM     40  C   UNL     1     -11.746  13.879  65.494  0.00  0.00    +0.199 C 
ATOM     41  O   UNL     1     -13.227  14.123  65.430  0.00  0.00    -0.219 OA
ATOM     42  C   UNL     1     -11.883  13.472  67.123  0.00  0.00    +0.160 C 
ATOM     43  N   UNL     1     -11.679  14.942  67.569  0.00  0.00    -0.127 NA
ATOM     44  C   UNL     1     -10.251  13.107  67.406  0.00  0.00    +0.228 C 
ATOM     45  O   UNL     1      -9.600  13.930  66.334  0.00  0.00    -0.216 OA
ATOM     46  C   UNL     1     -10.269  11.582  66.569  0.00  0.00    +0.268 C 
ATOM     47  O   UNL     1     -11.699  11.547  66.128  0.00  0.00    -0.328 OA
ENDBRANCH  37  46
ENDBRANCH   1  37
TORSDOF 3
ENDMDL
MODEL 6
REMARK VINA RESULT:      -8.4      2.604      5.951
REMARK  Name = 
REMARK  3 active torsions:
REMARK  status: ('A' for Active; 'I' for Inactive)
REMARK    1  A    between atoms: C_4  and  O_5
REMARK    2  A    between atoms: O_5  and  C_6
REMARK    3  A    between atoms: C_35  and  C_36
REMARK                            x       y       z     vdW  Elec       q    Type
REMARK                         _______ _______ _______ _____ _____    ______ ____
ROOT
ATOM      1  C   UNL     1      -8.186  13.187  67.086  0.00  0.00    +0.142 C 
ATOM      2  C   UNL     1      -6.708  13.535  67.736  0.00  0.00    +0.064 C 
ATOM      3  C   UNL     1      -6.708  12.859  69.231  0.00  0.00    +0.134 C 
ATOM      4  O   UNL     1      -5.649  13.732  69.800  0.00  0.00    -0.334 OA
ATOM      5  C   UNL     1      -4.663  14.170  69.208  0.00  0.00    +0.224 C 
ATOM      6  C   UNL     1      -4.202  13.262  68.079  0.00  0.00    +0.093 C 
ATOM      7  C   UNL     1      -4.196  12.005  69.143  0.00  0.00    +0.170 C 
ATOM      8  O   UNL     1      -3.702  10.976  68.124  0.00  0.00    -0.222 OA
ATOM      9  O   UNL     1      -3.489  14.148  70.050  0.00  0.00    -0.195 OA
ATOM     10  C   UNL     1      -4.612  15.598  68.870  0.00  0.00    +0.092 C 
ATOM     11  C   UNL     1      -3.260  15.805  67.909  0.00  0.00    +0.159 C 
ATOM     12  O   UNL     1      -4.201  16.169  66.770  0.00  0.00    -0.223 OA
ATOM     13  C   UNL     1      -3.013  17.237  68.589  0.00  0.00    +0.065 C 
ATOM     14  C   UNL     1      -2.701  18.494  67.624  0.00  0.00    +0.149 C 
ATOM     15  C   UNL     1      -4.292  18.522  67.053  0.00  0.00    +0.164 C 
ATOM     16  C   UNL     1      -4.213  20.076  66.572  0.00  0.00    +0.012 C 
ATOM     17  C   UNL     1      -4.447  20.283  65.305  0.00  0.00    +0.080 C 
ATOM     18  C   UNL     1      -5.868  20.315  64.956  0.00  0.00    +0.341 C 
ATOM     19  O   UNL     1      -6.159  20.950  63.953  0.00  0.00    -0.245 OA
ATOM     20  O   UNL     1      -6.570  19.673  65.990  0.00  0.00    -0.449 OA
ATOM     21  C   UNL     1      -6.818  20.822  66.980  0.00  0.00    +0.174 C 
ATOM     22  C   UNL     1      -6.406  20.199  68.451  0.00  0.00    +0.048 C 
ATOM     23  C   UNL     1      -8.290  20.177  67.352  0.00  0.00    +0.070 C 
ATOM     24  C   UNL     1      -9.035  19.757  66.205  0.00  0.00    -0.022 C 
ATOM     25  C   UNL     1     -10.267  19.426  66.392  0.00  0.00    -0.004 C 
ATOM     26  C   UNL     1     -10.770  18.621  67.512  0.00  0.00    -0.000 C 
ATOM     27  C   UNL     1     -10.040  18.162  68.389  0.00  0.00    -0.000 C 
ATOM     28  C   UNL     1     -10.488  16.727  68.379  0.00  0.00    -0.000 C 
ATOM     29  C   UNL     1      -9.427  16.303  68.909  0.00  0.00    -0.000 C 
ATOM     30  C   UNL     1      -8.552  15.182  68.609  0.00  0.00    -0.002 C 
ATOM     31  O   UNL     1      -3.068  17.879  66.126  0.00  0.00    -0.349 OA
ATOM     32  C   UNL     1      -5.784  11.474  68.872  0.00  0.00    +0.161 C 
ATOM     33  C   UNL     1      -8.977  14.501  67.593  0.00  0.00    +0.003 C 
ENDROOT
BRANCH  32  34
ATOM     34  C   UNL     1      -5.919  10.898  70.347  0.00  0.00    +0.369 C 
ATOM     35  O   UNL     1      -6.627   9.706  70.323  0.00  0.00    -0.245 OA
ATOM     36  O   UNL     1      -4.913  10.820  71.099  0.00  0.00    -0.245 OA
ENDBRANCH  32  34
BRANCH   1  37
ATOM     37  O   UNL     1      -8.759  12.369  68.227  0.00  0.00    -0.327 OA
BRANCH  37  46
ATOM     38  C   UNL     1     -10.227   9.353  66.308  0.00  0.00    +0.035 C 
ATOM     39  C   UNL     1      -9.292   8.934  67.596  0.00  0.00    +0.150 C 
ATOM     40  C   UNL     1     -10.560   8.921  68.747  0.00  0.00    +0.199 C 
ATOM     41  O   UNL     1      -9.802   7.963  69.622  0.00  0.00    -0.219 OA
ATOM     42  C   UNL     1      -9.996  10.211  69.671  0.00  0.00    +0.160 C 
ATOM     43  N   UNL     1     -11.200  10.117  70.643  0.00  0.00    -0.127 NA
ATOM     44  C   UNL     1     -10.736  11.461  68.796  0.00  0.00    +0.228 C 
ATOM     45  O   UNL     1     -11.888  10.720  68.187  0.00  0.00    -0.216 OA
ATOM     46  C   UNL     1      -9.649  11.386  67.440  0.00  0.00    +0.268 C 
ATOM     47  O   UNL     1      -8.751  10.276  67.890  0.00  0.00    -0.328 OA
ENDBRANCH  37  46
ENDBRANCH   1  37
TORSDOF 3
ENDMDL
MODEL 7
REMARK VINA RESULT:      -8.4      3.263      9.384
REMARK  Name = 
REMARK  3 active torsions:
REMARK  status: ('A' for Active; 'I' for Inactive)
REMARK    1  A    between atoms: C_4  and  O_5
REMARK    2  A    between atoms: O_5  and  C_6
REMARK    3  A    between atoms: C_35  and  C_36
REMARK                            x       y       z     vdW  Elec       q    Type
REMARK                         _______ _______ _______ _____ _____    ______ ____
ROOT
ATOM      1  C   UNL     1      -7.571  15.582  69.342  0.00  0.00    +0.142 C 
ATOM      2  C   UNL     1      -6.238  14.613  69.435  0.00  0.00    +0.064 C 
ATOM      3  C   UNL     1      -5.323  14.985  68.125  0.00  0.00    +0.134 C 
ATOM      4  O   UNL     1      -4.574  13.702  68.085  0.00  0.00    -0.334 OA
ATOM      5  C   UNL     1      -4.208  13.036  69.052  0.00  0.00    +0.224 C 
ATOM      6  C   UNL     1      -3.955  13.883  70.289  0.00  0.00    +0.093 C 
ATOM      7  C   UNL     1      -2.987  14.856  69.379  0.00  0.00    +0.170 C 
ATOM      8  O   UNL     1      -2.612  15.784  70.536  0.00  0.00    -0.222 OA
ATOM      9  O   UNL     1      -2.888  12.486  68.844  0.00  0.00    -0.195 OA
ATOM     10  C   UNL     1      -4.886  11.766  69.340  0.00  0.00    +0.092 C 
ATOM     11  C   UNL     1      -4.290  11.238  70.810  0.00  0.00    +0.159 C 
ATOM     12  O   UNL     1      -5.686  11.439  71.379  0.00  0.00    -0.223 OA
ATOM     13  C   UNL     1      -4.374   9.724  70.283  0.00  0.00    +0.065 C 
ATOM     14  C   UNL     1      -5.042   8.618  71.252  0.00  0.00    +0.149 C 
ATOM     15  C   UNL     1      -6.585   9.272  71.027  0.00  0.00    +0.164 C 
ATOM     16  C   UNL     1      -7.353   7.900  71.451  0.00  0.00    +0.012 C 
ATOM     17  C   UNL     1      -8.170   8.005  72.463  0.00  0.00    +0.080 C 
ATOM     18  C   UNL     1      -9.482   8.556  72.120  0.00  0.00    +0.341 C 
ATOM     19  O   UNL     1     -10.403   8.247  72.861  0.00  0.00    -0.245 OA
ATOM     20  O   UNL     1      -9.346   9.232  70.895  0.00  0.00    -0.449 OA
ATOM     21  C   UNL     1      -9.584   8.109  69.873  0.00  0.00    +0.174 C 
ATOM     22  C   UNL     1      -8.368   8.285  68.773  0.00  0.00    +0.048 C 
ATOM     23  C   UNL     1     -10.355   9.179  68.883  0.00  0.00    +0.070 C 
ATOM     24  C   UNL     1     -11.281  10.027  69.570  0.00  0.00    -0.022 C 
ATOM     25  C   UNL     1     -12.063  10.752  68.846  0.00  0.00    -0.004 C 
ATOM     26  C   UNL     1     -11.664  11.490  67.641  0.00  0.00    -0.000 C 
ATOM     27  C   UNL     1     -10.512  11.496  67.209  0.00  0.00    -0.000 C 
ATOM     28  C   UNL     1     -10.301  12.976  67.048  0.00  0.00    -0.000 C 
ATOM     29  C   UNL     1      -9.045  12.887  67.075  0.00  0.00    -0.000 C 
ATOM     30  C   UNL     1      -8.016  13.640  67.772  0.00  0.00    -0.002 C 
ATOM     31  O   UNL     1      -5.735   9.562  72.429  0.00  0.00    -0.349 OA
ATOM     32  C   UNL     1      -4.173  15.971  68.903  0.00  0.00    +0.161 C 
ATOM     33  C   UNL     1      -8.522  14.587  68.496  0.00  0.00    +0.003 C 
ENDROOT
BRANCH  32  34
ATOM     34  C   UNL     1      -3.417  16.306  67.546  0.00  0.00    +0.369 C 
ATOM     35  O   UNL     1      -4.338  16.629  66.562  0.00  0.00    -0.245 OA
ATOM     36  O   UNL     1      -2.437  17.095  67.537  0.00  0.00    -0.245 OA
ENDBRANCH  32  34
BRANCH   1  37
ATOM     37  O   UNL     1      -7.215  16.353  68.087  0.00  0.00    -0.327 OA
BRANCH  37  46
ATOM     38  C   UNL     1      -9.812  19.181  68.526  0.00  0.00    +0.035 C 
ATOM     39  C   UNL     1      -8.250  19.688  68.629  0.00  0.00    +0.150 C 
ATOM     40  C   UNL     1      -8.053  20.018  66.960  0.00  0.00    +0.199 C 
ATOM     41  O   UNL     1      -6.962  21.010  67.250  0.00  0.00    -0.219 OA
ATOM     42  C   UNL     1      -6.896  18.831  66.662  0.00  0.00    +0.160 C 
ATOM     43  N   UNL     1      -6.813  19.207  65.161  0.00  0.00    -0.127 NA
ATOM     44  C   UNL     1      -7.959  17.551  66.335  0.00  0.00    +0.228 C 
ATOM     45  O   UNL     1      -9.169  18.313  65.882  0.00  0.00    -0.216 OA
ATOM     46  C   UNL     1      -8.432  17.296  67.989  0.00  0.00    +0.268 C 
ATOM     47  O   UNL     1      -7.614  18.355  68.658  0.00  0.00    -0.328 OA
ENDBRANCH  37  46
ENDBRANCH   1  37
TORSDOF 3
ENDMDL
MODEL 8
REMARK VINA RESULT:      -8.0      3.970      9.564
REMARK  Name = 
REMARK  3 active torsions:
REMARK  status: ('A' for Active; 'I' for Inactive)
REMARK    1  A    between atoms: C_4  and  O_5
REMARK    2  A    between atoms: O_5  and  C_6
REMARK    3  A    between atoms: C_35  and  C_36
REMARK                            x       y       z     vdW  Elec       q    Type
REMARK                         _______ _______ _______ _____ _____    ______ ____
ROOT
ATOM      1  C   UNL     1      -8.819  11.100  67.930  0.00  0.00    +0.142 C 
ATOM      2  C   UNL     1      -8.445   9.836  66.935  0.00  0.00    +0.064 C 
ATOM      3  C   UNL     1      -9.541   9.888  65.716  0.00  0.00    +0.134 C 
ATOM      4  O   UNL     1      -9.414   8.458  65.328  0.00  0.00    -0.334 OA
ATOM      5  C   UNL     1      -8.387   7.782  65.344  0.00  0.00    +0.224 C 
ATOM      6  C   UNL     1      -7.131   8.614  65.132  0.00  0.00    +0.093 C 
ATOM      7  C   UNL     1      -7.830   9.257  63.786  0.00  0.00    +0.170 C 
ATOM      8  O   UNL     1      -6.628  10.130  63.422  0.00  0.00    -0.222 OA
ATOM      9  O   UNL     1      -8.312   6.909  64.195  0.00  0.00    -0.195 OA
ATOM     10  C   UNL     1      -8.234   6.742  66.368  0.00  0.00    +0.092 C 
ATOM     11  C   UNL     1      -6.669   6.172  66.231  0.00  0.00    +0.159 C 
ATOM     12  O   UNL     1      -6.402   6.750  67.613  0.00  0.00    -0.223 OA
ATOM     13  C   UNL     1      -7.188   4.698  66.595  0.00  0.00    +0.065 C 
ATOM     14  C   UNL     1      -6.369   3.855  67.702  0.00  0.00    +0.149 C 
ATOM     15  C   UNL     1      -6.914   4.858  68.950  0.00  0.00    +0.164 C 
ATOM     16  C   UNL     1      -6.646   3.750  70.112  0.00  0.00    +0.012 C 
ATOM     17  C   UNL     1      -5.825   4.117  71.058  0.00  0.00    +0.080 C 
ATOM     18  C   UNL     1      -6.437   4.957  72.090  0.00  0.00    +0.341 C 
ATOM     19  O   UNL     1      -5.900   4.933  73.187  0.00  0.00    -0.245 OA
ATOM     20  O   UNL     1      -7.613   5.501  71.546  0.00  0.00    -0.449 OA
ATOM     21  C   UNL     1      -8.652   4.413  71.858  0.00  0.00    +0.174 C 
ATOM     22  C   UNL     1      -9.479   4.212  70.445  0.00  0.00    +0.048 C 
ATOM     23  C   UNL     1      -9.789   5.579  72.117  0.00  0.00    +0.070 C 
ATOM     24  C   UNL     1      -9.316   6.671  72.911  0.00  0.00    -0.022 C 
ATOM     25  C   UNL     1     -10.192   7.523  73.321  0.00  0.00    -0.004 C 
ATOM     26  C   UNL     1     -11.294   8.063  72.516  0.00  0.00    -0.000 C 
ATOM     27  C   UNL     1     -11.479   7.755  71.340  0.00  0.00    -0.000 C 
ATOM     28  C   UNL     1     -11.606   9.123  70.728  0.00  0.00    -0.000 C 
ATOM     29  C   UNL     1     -11.319   8.725  69.568  0.00  0.00    -0.000 C 
ATOM     30  C   UNL     1     -10.431   9.238  68.538  0.00  0.00    -0.002 C 
ATOM     31  O   UNL     1      -5.369   5.013  68.348  0.00  0.00    -0.349 OA
ATOM     32  C   UNL     1      -8.550  10.601  64.528  0.00  0.00    +0.161 C 
ATOM     33  C   UNL     1      -9.835  10.324  68.917  0.00  0.00    +0.003 C 
ENDROOT
BRANCH  32  34
ATOM     34  C   UNL     1      -9.724  10.653  63.459  0.00  0.00    +0.369 C 
ATOM     35  O   UNL     1     -10.022  11.971  63.151  0.00  0.00    -0.245 OA
ATOM     36  O   UNL     1      -9.680   9.938  62.424  0.00  0.00    -0.245 OA
ENDBRANCH  32  34
BRANCH   1  37
ATOM     37  O   UNL     1      -9.980  11.680  67.147  0.00  0.00    -0.327 OA
BRANCH  37  46
ATOM     38  C   UNL     1      -9.407  15.402  68.012  0.00  0.00    +0.035 C 
ATOM     39  C   UNL     1      -9.309  15.068  66.404  0.00  0.00    +0.150 C 
ATOM     40  C   UNL     1     -10.968  15.320  66.062  0.00  0.00    +0.199 C 
ATOM     41  O   UNL     1     -10.660  15.634  64.625  0.00  0.00    -0.219 OA
ATOM     42  C   UNL     1     -11.324  13.729  65.640  0.00  0.00    +0.160 C 
ATOM     43  N   UNL     1     -12.813  14.070  65.376  0.00  0.00    -0.127 NA
ATOM     44  C   UNL     1     -11.679  13.152  67.194  0.00  0.00    +0.228 C 
ATOM     45  O   UNL     1     -12.088  14.428  67.869  0.00  0.00    -0.216 OA
ATOM     46  C   UNL     1     -10.028  13.103  67.740  0.00  0.00    +0.268 C 
ATOM     47  O   UNL     1      -9.335  13.595  66.508  0.00  0.00    -0.328 OA
ENDBRANCH  37  46
ENDBRANCH   1  37
TORSDOF 3
ENDMDL
MODEL 9
REMARK VINA RESULT:      -7.7      3.067      8.098
REMARK  Name = 
REMARK  3 active torsions:
REMARK  status: ('A' for Active; 'I' for Inactive)
REMARK    1  A    between atoms: C_4  and  O_5
REMARK    2  A    between atoms: O_5  and  C_6
REMARK    3  A    between atoms: C_35  and  C_36
REMARK                            x       y       z     vdW  Elec       q    Type
REMARK                         _______ _______ _______ _____ _____    ______ ____
ROOT
ATOM      1  C   UNL     1      -7.684  15.156  66.913  0.00  0.00    +0.142 C 
ATOM      2  C   UNL     1      -8.767  13.911  66.975  0.00  0.00    +0.064 C 
ATOM      3  C   UNL     1      -9.637  14.145  68.346  0.00  0.00    +0.134 C 
ATOM      4  O   UNL     1     -10.071  12.731  68.500  0.00  0.00    -0.334 OA
ATOM      5  C   UNL     1     -10.352  11.948  67.595  0.00  0.00    +0.224 C 
ATOM      6  C   UNL     1     -10.885  12.647  66.354  0.00  0.00    +0.093 C 
ATOM      7  C   UNL     1     -11.974  13.430  67.310  0.00  0.00    +0.170 C 
ATOM      8  O   UNL     1     -12.638  14.184  66.157  0.00  0.00    -0.222 OA
ATOM      9  O   UNL     1     -11.493  11.131  67.939  0.00  0.00    -0.195 OA
ATOM     10  C   UNL     1      -9.429  10.846  67.295  0.00  0.00    +0.092 C 
ATOM     11  C   UNL     1     -10.003  10.117  65.905  0.00  0.00    +0.159 C 
ATOM     12  O   UNL     1      -8.737  10.590  65.207  0.00  0.00    -0.223 OA
ATOM     13  C   UNL     1      -9.539   8.691  66.478  0.00  0.00    +0.065 C 
ATOM     14  C   UNL     1      -8.716   7.709  65.495  0.00  0.00    +0.149 C 
ATOM     15  C   UNL     1      -7.347   8.700  65.559  0.00  0.00    +0.164 C 
ATOM     16  C   UNL     1      -6.325   7.511  65.119  0.00  0.00    +0.012 C 
ATOM     17  C   UNL     1      -5.634   7.738  64.035  0.00  0.00    +0.080 C 
ATOM     18  C   UNL     1      -4.459   8.585  64.240  0.00  0.00    +0.341 C 
ATOM     19  O   UNL     1      -3.552   8.447  63.433  0.00  0.00    -0.245 OA
ATOM     20  O   UNL     1      -4.647   9.282  65.446  0.00  0.00    -0.449 OA
ATOM     21  C   UNL     1      -4.082   8.299  66.484  0.00  0.00    +0.174 C 
ATOM     22  C   UNL     1      -5.217   8.262  67.680  0.00  0.00    +0.048 C 
ATOM     23  C   UNL     1      -3.498   9.567  67.361  0.00  0.00    +0.070 C 
ATOM     24  C   UNL     1      -2.844  10.559  66.564  0.00  0.00    -0.022 C 
ATOM     25  C   UNL     1      -2.193  11.479  67.188  0.00  0.00    -0.004 C 
ATOM     26  C   UNL     1      -2.652  12.176  68.395  0.00  0.00    -0.000 C 
ATOM     27  C   UNL     1      -3.738  11.952  68.927  0.00  0.00    -0.000 C 
ATOM     28  C   UNL     1      -4.265  13.354  69.051  0.00  0.00    -0.000 C 
ATOM     29  C   UNL     1      -5.467  12.987  69.139  0.00  0.00    -0.000 C 
ATOM     30  C   UNL     1      -6.691  13.452  68.509  0.00  0.00    -0.002 C 
ATOM     31  O   UNL     1      -8.348   8.715  64.227  0.00  0.00    -0.349 OA
ATOM     32  C   UNL     1     -11.037  14.806  67.637  0.00  0.00    +0.161 C 
ATOM     33  C   UNL     1      -6.470  14.446  67.708  0.00  0.00    +0.003 C 
ENDROOT
BRANCH  32  34
ATOM     34  C   UNL     1     -11.741  15.039  69.042  0.00  0.00    +0.369 C 
ATOM     35  O   UNL     1     -12.066  16.379  69.188  0.00  0.00    -0.245 OA
ATOM     36  O   UNL     1     -12.682  14.294  69.419  0.00  0.00    -0.245 OA
ENDBRANCH  32  34
BRANCH   1  37
ATOM     37  O   UNL     1      -8.106  15.898  68.165  0.00  0.00    -0.327 OA
BRANCH  37  46
ATOM     38  C   UNL     1      -6.157  18.957  66.832  0.00  0.00    +0.035 C 
ATOM     39  C   UNL     1      -7.478  18.564  65.934  0.00  0.00    +0.150 C 
ATOM     40  C   UNL     1      -8.586  19.545  66.797  0.00  0.00    +0.199 C 
ATOM     41  O   UNL     1      -9.492  19.634  65.601  0.00  0.00    -0.219 OA
ATOM     42  C   UNL     1      -9.521  18.287  67.413  0.00  0.00    +0.160 C 
ATOM     43  N   UNL     1     -10.451  19.270  68.168  0.00  0.00    -0.127 NA
ATOM     44  C   UNL     1      -8.613  17.991  68.814  0.00  0.00    +0.228 C 
ATOM     45  O   UNL     1      -7.969  19.332  69.008  0.00  0.00    -0.216 OA
ATOM     46  C   UNL     1      -7.295  17.200  67.999  0.00  0.00    +0.268 C 
ATOM     47  O   UNL     1      -7.783  17.275  66.586  0.00  0.00    -0.328 OA
ENDBRANCH  37  46
ENDBRANCH   1  37
TORSDOF 3
ENDMDL
