MODEL 1
REMARK VINA RESULT:      -6.8      0.000      0.000
REMARK  Name = 
REMARK  4 active torsions:
REMARK  status: ('A' for Active; 'I' for Inactive)
REMARK    1  A    between atoms: C_2  and  O_4
REMARK    2  A    between atoms: O_4  and  C_5
REMARK    3  A    between atoms: C_10  and  C_11
REMARK    4  A    between atoms: C_17  and  N_18
REMARK                            x       y       z     vdW  Elec       q    Type
REMARK                         _______ _______ _______ _____ _____    ______ ____
ROOT
ATOM      1  C   UNL     1     -11.413  11.332  68.822  0.00  0.00    +0.274 C 
ATOM      2  N   UNL     1     -12.037  11.423  67.554  0.00  0.00    -0.150 NA
ATOM      3  C   UNL     1     -11.915  12.606  66.760  0.00  0.00    +0.192 A 
ATOM      4  S   UNL     1     -10.735  13.855  66.759  0.00  0.00    +0.024 S 
ATOM      5  C   UNL     1     -11.238  14.673  65.333  0.00  0.00    +0.342 A 
ATOM      6  C   UNL     1     -12.427  13.994  65.093  0.00  0.00    +0.183 A 
ATOM      7  N   UNL     1     -12.371  12.729  65.488  0.00  0.00    -0.214 NA
ATOM      8  O   UNL     1     -11.296  12.402  69.490  0.00  0.00    -0.268 OA
ENDROOT
BRANCH   1  10
ATOM      9  C   UNL     1     -11.111   9.415  70.384  0.00  0.00    +0.153 A 
ATOM     10  C   UNL     1     -10.692  10.132  69.270  0.00  0.00    +0.090 A 
ATOM     11  C   UNL     1      -9.342  10.012  68.961  0.00  0.00    +0.008 A 
ATOM     12  C   UNL     1      -8.475   9.360  69.830  0.00  0.00    +0.000 A 
ATOM     13  C   UNL     1      -8.859   9.066  71.128  0.00  0.00    +0.003 A 
ATOM     14  C   UNL     1     -10.225   9.028  71.382  0.00  0.00    +0.038 A 
BRANCH   9  15
ATOM     15  O   UNL     1     -12.495   9.324  70.556  0.00  0.00    -0.424 OA
BRANCH  15  17
ATOM     16  C   UNL     1     -13.968   8.845  72.463  0.00  0.00    +0.122 C 
ATOM     17  C   UNL     1     -13.033   9.772  71.758  0.00  0.00    +0.322 C 
ATOM     18  O   UNL     1     -13.163  11.013  71.933  0.00  0.00    -0.250 OA
ENDBRANCH  15  17
ENDBRANCH   9  15
ENDBRANCH   1  10
BRANCH   5  19
ATOM     19  N   UNL     1     -10.892  16.009  64.941  0.00  0.00    +0.089 N 
ATOM     20  O   UNL     1     -11.597  16.577  63.923  0.00  0.00    -0.576 OA
ATOM     21  O   UNL     1      -9.894  16.603  65.373  0.00  0.00    +0.042 OA
ENDBRANCH   5  19
TORSDOF 4
ENDMDL
MODEL 2
REMARK VINA RESULT:      -6.8      3.704      4.816
REMARK  Name = 
REMARK  4 active torsions:
REMARK  status: ('A' for Active; 'I' for Inactive)
REMARK    1  A    between atoms: C_2  and  O_4
REMARK    2  A    between atoms: O_4  and  C_5
REMARK    3  A    between atoms: C_10  and  C_11
REMARK    4  A    between atoms: C_17  and  N_18
REMARK                            x       y       z     vdW  Elec       q    Type
REMARK                         _______ _______ _______ _____ _____    ______ ____
ROOT
ATOM      1  C   UNL     1     -10.948  15.425  69.220  0.00  0.00    +0.274 C 
ATOM      2  N   UNL     1     -11.393  16.696  68.782  0.00  0.00    -0.150 NA
ATOM      3  C   UNL     1     -10.500  17.599  68.124  0.00  0.00    +0.192 A 
ATOM      4  S   UNL     1      -9.041  17.323  67.261  0.00  0.00    +0.024 S 
ATOM      5  C   UNL     1      -8.829  18.902  66.615  0.00  0.00    +0.342 A 
ATOM      6  C   UNL     1      -9.835  19.564  67.309  0.00  0.00    +0.183 A 
ATOM      7  N   UNL     1     -10.872  18.776  67.562  0.00  0.00    -0.214 NA
ATOM      8  O   UNL     1      -9.740  15.327  69.587  0.00  0.00    -0.268 OA
ENDROOT
BRANCH   1  10
ATOM      9  C   UNL     1     -12.090  13.399  70.112  0.00  0.00    +0.153 A 
ATOM     10  C   UNL     1     -11.736  14.199  69.032  0.00  0.00    +0.090 A 
ATOM     11  C   UNL     1     -11.669  13.545  67.808  0.00  0.00    +0.008 A 
ATOM     12  C   UNL     1     -11.778  12.161  67.740  0.00  0.00    +0.000 A 
ATOM     13  C   UNL     1     -11.675  11.384  68.882  0.00  0.00    +0.003 A 
ATOM     14  C   UNL     1     -11.909  12.022  70.095  0.00  0.00    +0.038 A 
BRANCH   9  15
ATOM     15  O   UNL     1     -12.405  14.083  71.290  0.00  0.00    -0.424 OA
BRANCH  15  17
ATOM     16  C   UNL     1     -14.535  15.255  71.642  0.00  0.00    +0.122 C 
ATOM     17  C   UNL     1     -13.715  14.012  71.754  0.00  0.00    +0.322 C 
ATOM     18  O   UNL     1     -13.986  13.187  72.666  0.00  0.00    -0.250 OA
ENDBRANCH  15  17
ENDBRANCH   9  15
ENDBRANCH   1  10
BRANCH   5  19
ATOM     19  N   UNL     1      -7.620  19.455  66.075  0.00  0.00    +0.089 N 
ATOM     20  O   UNL     1      -6.954  18.732  65.132  0.00  0.00    -0.576 OA
ATOM     21  O   UNL     1      -7.080  20.472  66.533  0.00  0.00    +0.042 OA
ENDBRANCH   5  19
TORSDOF 4
ENDMDL
MODEL 3
REMARK VINA RESULT:      -6.7      3.662      6.735
REMARK  Name = 
REMARK  4 active torsions:
REMARK  status: ('A' for Active; 'I' for Inactive)
REMARK    1  A    between atoms: C_2  and  O_4
REMARK    2  A    between atoms: O_4  and  C_5
REMARK    3  A    between atoms: C_10  and  C_11
REMARK    4  A    between atoms: C_17  and  N_18
REMARK                            x       y       z     vdW  Elec       q    Type
REMARK                         _______ _______ _______ _____ _____    ______ ____
ROOT
ATOM      1  C   UNL     1     -10.176  13.098  67.117  0.00  0.00    +0.274 C 
ATOM      2  N   UNL     1     -11.038  12.441  68.028  0.00  0.00    -0.150 NA
ATOM      3  C   UNL     1     -11.545  13.122  69.179  0.00  0.00    +0.192 A 
ATOM      4  S   UNL     1     -11.754  14.796  69.506  0.00  0.00    +0.024 S 
ATOM      5  C   UNL     1     -12.651  14.656  70.965  0.00  0.00    +0.342 A 
ATOM      6  C   UNL     1     -12.533  13.286  71.170  0.00  0.00    +0.183 A 
ATOM      7  N   UNL     1     -12.470  12.612  70.029  0.00  0.00    -0.214 NA
ATOM      8  O   UNL     1      -9.401  13.983  67.585  0.00  0.00    -0.268 OA
ENDROOT
BRANCH   1  10
ATOM      9  C   UNL     1     -11.345  13.625  64.981  0.00  0.00    +0.153 A 
ATOM     10  C   UNL     1     -10.319  12.978  65.659  0.00  0.00    +0.090 A 
ATOM     11  C   UNL     1      -9.818  11.843  65.032  0.00  0.00    +0.008 A 
ATOM     12  C   UNL     1     -10.444  11.326  63.904  0.00  0.00    +0.000 A 
ATOM     13  C   UNL     1     -11.715  11.743  63.544  0.00  0.00    +0.003 A 
ATOM     14  C   UNL     1     -12.138  12.966  64.050  0.00  0.00    +0.038 A 
BRANCH   9  15
ATOM     15  O   UNL     1     -11.682  14.892  65.466  0.00  0.00    -0.424 OA
BRANCH  15  17
ATOM     16  C   UNL     1     -10.185  16.802  65.849  0.00  0.00    +0.122 C 
ATOM     17  C   UNL     1     -11.030  15.993  64.920  0.00  0.00    +0.322 C 
ATOM     18  O   UNL     1     -11.542  16.559  63.918  0.00  0.00    -0.250 OA
ENDBRANCH  15  17
ENDBRANCH   9  15
ENDBRANCH   1  10
BRANCH   5  19
ATOM     19  N   UNL     1     -12.857  15.679  71.950  0.00  0.00    +0.089 N 
ATOM     20  O   UNL     1     -14.137  15.948  72.331  0.00  0.00    -0.576 OA
ATOM     21  O   UNL     1     -11.951  16.425  72.349  0.00  0.00    +0.042 OA
ENDBRANCH   5  19
TORSDOF 4
ENDMDL
MODEL 4
REMARK VINA RESULT:      -6.7      1.784      3.211
REMARK  Name = 
REMARK  4 active torsions:
REMARK  status: ('A' for Active; 'I' for Inactive)
REMARK    1  A    between atoms: C_2  and  O_4
REMARK    2  A    between atoms: O_4  and  C_5
REMARK    3  A    between atoms: C_10  and  C_11
REMARK    4  A    between atoms: C_17  and  N_18
REMARK                            x       y       z     vdW  Elec       q    Type
REMARK                         _______ _______ _______ _____ _____    ______ ____
ROOT
ATOM      1  C   UNL     1     -11.035  11.179  68.668  0.00  0.00    +0.274 C 
ATOM      2  N   UNL     1     -10.045  12.117  68.287  0.00  0.00    -0.150 NA
ATOM      3  C   UNL     1     -10.285  13.048  67.229  0.00  0.00    +0.192 A 
ATOM      4  S   UNL     1     -11.747  13.660  66.566  0.00  0.00    +0.024 S 
ATOM      5  C   UNL     1     -11.075  14.885  65.565  0.00  0.00    +0.342 A 
ATOM      6  C   UNL     1      -9.728  14.566  65.695  0.00  0.00    +0.183 A 
ATOM      7  N   UNL     1      -9.446  14.058  66.887  0.00  0.00    -0.214 NA
ATOM      8  O   UNL     1     -11.809  10.752  67.761  0.00  0.00    -0.268 OA
ENDROOT
BRANCH   1  10
ATOM      9  C   UNL     1     -11.146   9.614  70.603  0.00  0.00    +0.153 A 
ATOM     10  C   UNL     1     -11.352  10.881  70.071  0.00  0.00    +0.090 A 
ATOM     11  C   UNL     1     -12.326  11.640  70.710  0.00  0.00    +0.008 A 
ATOM     12  C   UNL     1     -13.136  11.071  71.686  0.00  0.00    +0.000 A 
ATOM     13  C   UNL     1     -13.191   9.698  71.850  0.00  0.00    +0.003 A 
ATOM     14  C   UNL     1     -12.121   8.964  71.349  0.00  0.00    +0.038 A 
BRANCH   9  15
ATOM     15  O   UNL     1     -10.010   8.944  70.139  0.00  0.00    -0.424 OA
BRANCH  15  17
ATOM     16  C   UNL     1      -7.631   9.455  69.799  0.00  0.00    +0.122 C 
ATOM     17  C   UNL     1      -8.787   9.255  70.724  0.00  0.00    +0.322 C 
ATOM     18  O   UNL     1      -8.561   8.854  71.897  0.00  0.00    -0.250 OA
ENDBRANCH  15  17
ENDBRANCH   9  15
ENDBRANCH   1  10
BRANCH   5  19
ATOM     19  N   UNL     1     -11.721  15.552  64.471  0.00  0.00    +0.089 N 
ATOM     20  O   UNL     1     -11.357  16.838  64.206  0.00  0.00    -0.576 OA
ATOM     21  O   UNL     1     -12.690  15.074  63.866  0.00  0.00    +0.042 OA
ENDBRANCH   5  19
TORSDOF 4
ENDMDL
MODEL 5
REMARK VINA RESULT:      -6.1      1.528      3.046
REMARK  Name = 
REMARK  4 active torsions:
REMARK  status: ('A' for Active; 'I' for Inactive)
REMARK    1  A    between atoms: C_2  and  O_4
REMARK    2  A    between atoms: O_4  and  C_5
REMARK    3  A    between atoms: C_10  and  C_11
REMARK    4  A    between atoms: C_17  and  N_18
REMARK                            x       y       z     vdW  Elec       q    Type
REMARK                         _______ _______ _______ _____ _____    ______ ____
ROOT
ATOM      1  C   UNL     1     -11.683  11.672  69.003  0.00  0.00    +0.274 C 
ATOM      2  N   UNL     1     -12.060  11.574  67.642  0.00  0.00    -0.150 NA
ATOM      3  C   UNL     1     -11.911  12.689  66.758  0.00  0.00    +0.192 A 
ATOM      4  S   UNL     1     -10.888  14.067  66.833  0.00  0.00    +0.024 S 
ATOM      5  C   UNL     1     -11.191  14.689  65.259  0.00  0.00    +0.342 A 
ATOM      6  C   UNL     1     -12.236  13.852  64.885  0.00  0.00    +0.183 A 
ATOM      7  N   UNL     1     -12.126  12.643  65.420  0.00  0.00    -0.214 NA
ATOM      8  O   UNL     1     -11.807  12.802  69.561  0.00  0.00    -0.268 OA
ENDROOT
BRANCH   1  10
ATOM      9  C   UNL     1      -9.994   9.841  69.038  0.00  0.00    +0.153 A 
ATOM     10  C   UNL     1     -10.941  10.613  69.701  0.00  0.00    +0.090 A 
ATOM     11  C   UNL     1     -11.523  10.011  70.811  0.00  0.00    +0.008 A 
ATOM     12  C   UNL     1     -11.281   8.672  71.096  0.00  0.00    +0.000 A 
ATOM     13  C   UNL     1     -10.698   7.841  70.154  0.00  0.00    +0.003 A 
ATOM     14  C   UNL     1      -9.976   8.456  69.138  0.00  0.00    +0.038 A 
BRANCH   9  15
ATOM     15  O   UNL     1      -9.226  10.518  68.086  0.00  0.00    -0.424 OA
BRANCH  15  17
ATOM     16  C   UNL     1      -7.266  10.539  69.566  0.00  0.00    +0.122 C 
ATOM     17  C   UNL     1      -8.102  11.210  68.526  0.00  0.00    +0.322 C 
ATOM     18  O   UNL     1      -8.113  12.468  68.476  0.00  0.00    -0.250 OA
ENDBRANCH  15  17
ENDBRANCH   9  15
ENDBRANCH   1  10
BRANCH   5  19
ATOM     19  N   UNL     1     -10.916  16.018  64.792  0.00  0.00    +0.089 N 
ATOM     20  O   UNL     1      -9.958  16.736  65.442  0.00  0.00    -0.576 OA
ATOM     21  O   UNL     1     -11.609  16.590  63.939  0.00  0.00    +0.042 OA
ENDBRANCH   5  19
TORSDOF 4
ENDMDL
MODEL 6
REMARK VINA RESULT:      -6.1      4.461      6.352
REMARK  Name = 
REMARK  4 active torsions:
REMARK  status: ('A' for Active; 'I' for Inactive)
REMARK    1  A    between atoms: C_2  and  O_4
REMARK    2  A    between atoms: O_4  and  C_5
REMARK    3  A    between atoms: C_10  and  C_11
REMARK    4  A    between atoms: C_17  and  N_18
REMARK                            x       y       z     vdW  Elec       q    Type
REMARK                         _______ _______ _______ _____ _____    ______ ____
ROOT
ATOM      1  C   UNL     1     -10.342  15.893  65.473  0.00  0.00    +0.274 C 
ATOM      2  N   UNL     1      -8.965  15.776  65.782  0.00  0.00    -0.150 NA
ATOM      3  C   UNL     1      -8.236  16.883  66.319  0.00  0.00    +0.192 A 
ATOM      4  S   UNL     1      -8.761  18.277  67.175  0.00  0.00    +0.024 S 
ATOM      5  C   UNL     1      -7.220  18.879  67.642  0.00  0.00    +0.342 A 
ATOM      6  C   UNL     1      -6.412  18.022  66.903  0.00  0.00    +0.183 A 
ATOM      7  N   UNL     1      -6.955  16.821  66.759  0.00  0.00    -0.214 NA
ATOM      8  O   UNL     1     -10.757  17.027  65.092  0.00  0.00    -0.268 OA
ENDROOT
BRANCH   1  10
ATOM      9  C   UNL     1     -11.606  14.529  67.130  0.00  0.00    +0.153 A 
ATOM     10  C   UNL     1     -11.324  14.853  65.808  0.00  0.00    +0.090 A 
ATOM     11  C   UNL     1     -11.563  13.841  64.887  0.00  0.00    +0.008 A 
ATOM     12  C   UNL     1     -11.887  12.558  65.316  0.00  0.00    +0.000 A 
ATOM     13  C   UNL     1     -11.709  12.186  66.637  0.00  0.00    +0.003 A 
ATOM     14  C   UNL     1     -11.638  13.213  67.572  0.00  0.00    +0.038 A 
BRANCH   9  15
ATOM     15  O   UNL     1     -11.612  15.603  68.025  0.00  0.00    -0.424 OA
BRANCH  15  17
ATOM     16  C   UNL     1     -11.830  15.729  70.468  0.00  0.00    +0.122 C 
ATOM     17  C   UNL     1     -11.003  15.423  69.263  0.00  0.00    +0.322 C 
ATOM     18  O   UNL     1      -9.751  15.541  69.341  0.00  0.00    -0.250 OA
ENDBRANCH  15  17
ENDBRANCH   9  15
ENDBRANCH   1  10
BRANCH   5  19
ATOM     19  N   UNL     1      -6.916  20.206  68.093  0.00  0.00    +0.089 N 
ATOM     20  O   UNL     1      -7.186  21.243  67.251  0.00  0.00    -0.576 OA
ATOM     21  O   UNL     1      -6.283  20.438  69.133  0.00  0.00    +0.042 OA
ENDBRANCH   5  19
TORSDOF 4
ENDMDL
MODEL 7
REMARK VINA RESULT:      -6.1      5.982      9.523
REMARK  Name = 
REMARK  4 active torsions:
REMARK  status: ('A' for Active; 'I' for Inactive)
REMARK    1  A    between atoms: C_2  and  O_4
REMARK    2  A    between atoms: O_4  and  C_5
REMARK    3  A    between atoms: C_10  and  C_11
REMARK    4  A    between atoms: C_17  and  N_18
REMARK                            x       y       z     vdW  Elec       q    Type
REMARK                         _______ _______ _______ _____ _____    ______ ____
ROOT
ATOM      1  C   UNL     1      -7.952  18.902  68.637  0.00  0.00    +0.274 C 
ATOM      2  N   UNL     1      -7.647  17.578  68.239  0.00  0.00    -0.150 NA
ATOM      3  C   UNL     1      -8.529  16.848  67.381  0.00  0.00    +0.192 A 
ATOM      4  S   UNL     1      -9.721  17.380  66.264  0.00  0.00    +0.024 S 
ATOM      5  C   UNL     1     -10.060  15.867  65.521  0.00  0.00    +0.342 A 
ATOM      6  C   UNL     1      -9.337  15.035  66.368  0.00  0.00    +0.183 A 
ATOM      7  N   UNL     1      -8.255  15.630  66.852  0.00  0.00    -0.214 NA
ATOM      8  O   UNL     1      -9.175  19.203  68.767  0.00  0.00    -0.268 OA
ENDROOT
BRANCH   1  10
ATOM      9  C   UNL     1      -6.289  20.369  67.501  0.00  0.00    +0.153 A 
ATOM     10  C   UNL     1      -6.950  19.977  68.659  0.00  0.00    +0.090 A 
ATOM     11  C   UNL     1      -6.267  20.227  69.844  0.00  0.00    +0.008 A 
ATOM     12  C   UNL     1      -4.950  20.671  69.819  0.00  0.00    +0.000 A 
ATOM     13  C   UNL     1      -4.202  20.608  68.655  0.00  0.00    +0.003 A 
ATOM     14  C   UNL     1      -4.909  20.525  67.461  0.00  0.00    +0.038 A 
BRANCH   9  15
ATOM     15  O   UNL     1      -7.060  20.356  66.335  0.00  0.00    -0.424 OA
BRANCH  15  17
ATOM     16  C   UNL     1      -6.290  20.757  64.037  0.00  0.00    +0.122 C 
ATOM     17  C   UNL     1      -6.490  19.821  65.183  0.00  0.00    +0.322 C 
ATOM     18  O   UNL     1      -6.655  18.596  64.944  0.00  0.00    -0.250 OA
ENDBRANCH  15  17
ENDBRANCH   9  15
ENDBRANCH   1  10
BRANCH   5  19
ATOM     19  N   UNL     1     -11.212  15.535  64.733  0.00  0.00    +0.089 N 
ATOM     20  O   UNL     1     -11.718  16.494  63.908  0.00  0.00    -0.576 OA
ATOM     21  O   UNL     1     -11.852  14.484  64.882  0.00  0.00    +0.042 OA
ENDBRANCH   5  19
TORSDOF 4
ENDMDL
MODEL 8
REMARK VINA RESULT:      -6.0      4.497      6.855
REMARK  Name = 
REMARK  4 active torsions:
REMARK  status: ('A' for Active; 'I' for Inactive)
REMARK    1  A    between atoms: C_2  and  O_4
REMARK    2  A    between atoms: O_4  and  C_5
REMARK    3  A    between atoms: C_10  and  C_11
REMARK    4  A    between atoms: C_17  and  N_18
REMARK                            x       y       z     vdW  Elec       q    Type
REMARK                         _______ _______ _______ _____ _____    ______ ____
ROOT
ATOM      1  C   UNL     1      -9.914  16.089  66.784  0.00  0.00    +0.274 C 
ATOM      2  N   UNL     1      -8.908  16.534  65.892  0.00  0.00    -0.150 NA
ATOM      3  C   UNL     1      -8.134  17.701  66.182  0.00  0.00    +0.192 A 
ATOM      4  S   UNL     1      -7.782  18.487  67.668  0.00  0.00    +0.024 S 
ATOM      5  C   UNL     1      -6.599  19.594  67.091  0.00  0.00    +0.342 A 
ATOM      6  C   UNL     1      -6.735  19.374  65.725  0.00  0.00    +0.183 A 
ATOM      7  N   UNL     1      -7.072  18.121  65.450  0.00  0.00    -0.214 NA
ATOM      8  O   UNL     1     -10.528  16.971  67.453  0.00  0.00    -0.268 OA
ENDROOT
BRANCH   1  10
ATOM      9  C   UNL     1     -10.889  13.834  66.370  0.00  0.00    +0.153 A 
ATOM     10  C   UNL     1     -10.093  14.674  67.139  0.00  0.00    +0.090 A 
ATOM     11  C   UNL     1      -9.947  14.297  68.468  0.00  0.00    +0.008 A 
ATOM     12  C   UNL     1     -10.702  13.255  68.993  0.00  0.00    +0.000 A 
ATOM     13  C   UNL     1     -11.798  12.758  68.308  0.00  0.00    +0.003 A 
ATOM     14  C   UNL     1     -11.845  13.003  66.941  0.00  0.00    +0.038 A 
BRANCH   9  15
ATOM     15  O   UNL     1     -10.841  14.056  64.990  0.00  0.00    -0.424 OA
BRANCH  15  17
ATOM     16  C   UNL     1     -12.068  12.680  63.366  0.00  0.00    +0.122 C 
ATOM     17  C   UNL     1     -12.011  13.875  64.260  0.00  0.00    +0.322 C 
ATOM     18  O   UNL     1     -12.694  14.890  63.959  0.00  0.00    -0.250 OA
ENDBRANCH  15  17
ENDBRANCH   9  15
ENDBRANCH   1  10
BRANCH   5  19
ATOM     19  N   UNL     1      -6.139  20.782  67.751  0.00  0.00    +0.089 N 
ATOM     20  O   UNL     1      -6.023  20.753  69.108  0.00  0.00    -0.576 OA
ATOM     21  O   UNL     1      -5.995  21.866  67.167  0.00  0.00    +0.042 OA
ENDBRANCH   5  19
TORSDOF 4
ENDMDL
MODEL 9
REMARK VINA RESULT:      -6.0      5.421      8.744
REMARK  Name = 
REMARK  4 active torsions:
REMARK  status: ('A' for Active; 'I' for Inactive)
REMARK    1  A    between atoms: C_2  and  O_4
REMARK    2  A    between atoms: O_4  and  C_5
REMARK    3  A    between atoms: C_10  and  C_11
REMARK    4  A    between atoms: C_17  and  N_18
REMARK                            x       y       z     vdW  Elec       q    Type
REMARK                         _______ _______ _______ _____ _____    ______ ____
ROOT
ATOM      1  C   UNL     1      -8.706  18.100  67.016  0.00  0.00    +0.274 C 
ATOM      2  N   UNL     1      -8.908  16.827  67.602  0.00  0.00    -0.150 NA
ATOM      3  C   UNL     1      -9.846  15.902  67.042  0.00  0.00    +0.192 A 
ATOM      4  S   UNL     1     -10.494  15.764  65.458  0.00  0.00    +0.024 S 
ATOM      5  C   UNL     1     -11.289  14.251  65.643  0.00  0.00    +0.342 A 
ATOM      6  C   UNL     1     -11.135  14.085  67.015  0.00  0.00    +0.183 A 
ATOM      7  N   UNL     1     -10.008  14.623  67.462  0.00  0.00    -0.214 NA
ATOM      8  O   UNL     1      -9.699  18.641  66.445  0.00  0.00    -0.268 OA
ENDROOT
BRANCH   1  10
ATOM      9  C   UNL     1      -6.918  19.718  67.640  0.00  0.00    +0.153 A 
ATOM     10  C   UNL     1      -7.372  18.686  66.828  0.00  0.00    +0.090 A 
ATOM     11  C   UNL     1      -6.788  18.624  65.568  0.00  0.00    +0.008 A 
ATOM     12  C   UNL     1      -5.952  19.643  65.127  0.00  0.00    +0.000 A 
ATOM     13  C   UNL     1      -5.898  20.855  65.793  0.00  0.00    +0.003 A 
ATOM     14  C   UNL     1      -6.333  20.863  67.114  0.00  0.00    +0.038 A 
BRANCH   9  15
ATOM     15  O   UNL     1      -7.304  19.642  68.982  0.00  0.00    -0.424 OA
BRANCH  15  17
ATOM     16  C   UNL     1      -5.554  18.375  70.152  0.00  0.00    +0.122 C 
ATOM     17  C   UNL     1      -6.303  19.651  69.949  0.00  0.00    +0.322 C 
ATOM     18  O   UNL     1      -6.407  20.454  70.914  0.00  0.00    -0.250 OA
ENDBRANCH  15  17
ENDBRANCH   9  15
ENDBRANCH   1  10
BRANCH   5  19
ATOM     19  N   UNL     1     -12.316  13.710  64.800  0.00  0.00    +0.089 N 
ATOM     20  O   UNL     1     -12.655  14.409  63.681  0.00  0.00    -0.576 OA
ATOM     21  O   UNL     1     -13.007  12.733  65.120  0.00  0.00    +0.042 OA
ENDBRANCH   5  19
TORSDOF 4
ENDMDL
