MODEL 1
REMARK VINA RESULT:      -4.4      0.000      0.000
REMARK  Name = 
REMARK  3 active torsions:
REMARK  status: ('A' for Active; 'I' for Inactive)
REMARK    1  A    between atoms: C_2  and  C_4
REMARK    2  A    between atoms: N_6  and  C_7
REMARK    3  A    between atoms: C_7  and  C_8
REMARK                            x       y       z     vdW  Elec       q    Type
REMARK                         _______ _______ _______ _____ _____    ______ ____
ROOT
ATOM      1  C   UNL     1     -10.950  16.155  64.939  0.00  0.00    +0.252 C 
ATOM      2  N   UNL     1     -10.065  16.949  65.739  0.00  0.00    -0.192 NA
ATOM      3  O   UNL     1     -11.556  16.627  63.969  0.00  0.00    -0.272 OA
ENDROOT
BRANCH   1   5
ATOM      4  C   UNL     1     -12.133  14.232  64.344  0.00  0.00    +0.022 C 
ATOM      5  C   UNL     1     -10.743  14.603  65.048  0.00  0.00    +0.136 C 
ATOM      6  S   UNL     1     -11.446  14.452  66.831  0.00  0.00    -0.073 S 
ENDBRANCH   1   5
BRANCH   2   7
ATOM      7  C   UNL     1     -10.460  18.325  65.966  0.00  0.00    +0.228 C 
BRANCH   7   8
ATOM      8  C   UNL     1     -10.457  18.561  67.440  0.00  0.00    +0.387 C 
ATOM      9  O   UNL     1     -10.942  17.598  68.314  0.00  0.00    -0.244 OA
ATOM     10  O   UNL     1     -10.375  19.757  67.846  0.00  0.00    -0.244 OA
ENDBRANCH   7   8
ENDBRANCH   2   7
TORSDOF 3
ENDMDL
MODEL 2
REMARK VINA RESULT:      -4.4      2.627      4.578
REMARK  Name = 
REMARK  3 active torsions:
REMARK  status: ('A' for Active; 'I' for Inactive)
REMARK    1  A    between atoms: C_2  and  C_4
REMARK    2  A    between atoms: N_6  and  C_7
REMARK    3  A    between atoms: C_7  and  C_8
REMARK                            x       y       z     vdW  Elec       q    Type
REMARK                         _______ _______ _______ _____ _____    ______ ____
ROOT
ATOM      1  C   UNL     1     -10.778  16.150  65.202  0.00  0.00    +0.252 C 
ATOM      2  N   UNL     1     -11.147  14.843  65.658  0.00  0.00    -0.192 NA
ATOM      3  O   UNL     1     -11.308  16.672  64.213  0.00  0.00    -0.272 OA
ENDROOT
BRANCH   1   5
ATOM      4  C   UNL     1      -8.666  16.249  66.192  0.00  0.00    +0.022 C 
ATOM      5  C   UNL     1     -10.051  17.051  66.262  0.00  0.00    +0.136 C 
ATOM      6  S   UNL     1     -10.694  16.083  67.793  0.00  0.00    -0.073 S 
ENDBRANCH   1   5
BRANCH   2   7
ATOM      7  C   UNL     1     -11.460  13.867  64.634  0.00  0.00    +0.228 C 
BRANCH   7   8
ATOM      8  C   UNL     1     -12.409  12.877  65.224  0.00  0.00    +0.387 C 
ATOM      9  O   UNL     1     -12.082  12.183  66.380  0.00  0.00    -0.244 OA
ATOM     10  O   UNL     1     -13.314  12.407  64.474  0.00  0.00    -0.244 OA
ENDBRANCH   7   8
ENDBRANCH   2   7
TORSDOF 3
ENDMDL
MODEL 3
REMARK VINA RESULT:      -4.2      2.320      4.694
REMARK  Name = 
REMARK  3 active torsions:
REMARK  status: ('A' for Active; 'I' for Inactive)
REMARK    1  A    between atoms: C_2  and  C_4
REMARK    2  A    between atoms: N_6  and  C_7
REMARK    3  A    between atoms: C_7  and  C_8
REMARK                            x       y       z     vdW  Elec       q    Type
REMARK                         _______ _______ _______ _____ _____    ______ ____
ROOT
ATOM      1  C   UNL     1     -10.445  18.198  67.758  0.00  0.00    +0.252 C 
ATOM      2  N   UNL     1     -10.004  17.447  66.620  0.00  0.00    -0.192 NA
ATOM      3  O   UNL     1     -10.604  17.673  68.867  0.00  0.00    -0.272 OA
ENDROOT
BRANCH   1   5
ATOM      4  C   UNL     1     -10.393  19.797  66.057  0.00  0.00    +0.022 C 
ATOM      5  C   UNL     1     -10.251  19.752  67.652  0.00  0.00    +0.136 C 
ATOM      6  S   UNL     1      -8.330  19.693  67.619  0.00  0.00    -0.073 S 
ENDBRANCH   1   5
BRANCH   2   7
ATOM      7  C   UNL     1     -10.504  16.091  66.510  0.00  0.00    +0.228 C 
BRANCH   7   8
ATOM      8  C   UNL     1     -10.750  15.813  65.063  0.00  0.00    +0.387 C 
ATOM      9  O   UNL     1     -11.309  16.781  64.241  0.00  0.00    -0.244 OA
ATOM     10  O   UNL     1     -10.806  14.603  64.695  0.00  0.00    -0.244 OA
ENDBRANCH   7   8
ENDBRANCH   2   7
TORSDOF 3
ENDMDL
MODEL 4
REMARK VINA RESULT:      -4.0      2.382      4.576
REMARK  Name = 
REMARK  3 active torsions:
REMARK  status: ('A' for Active; 'I' for Inactive)
REMARK    1  A    between atoms: C_2  and  C_4
REMARK    2  A    between atoms: N_6  and  C_7
REMARK    3  A    between atoms: C_7  and  C_8
REMARK                            x       y       z     vdW  Elec       q    Type
REMARK                         _______ _______ _______ _____ _____    ______ ____
ROOT
ATOM      1  C   UNL     1      -9.240  17.242  66.772  0.00  0.00    +0.252 C 
ATOM      2  N   UNL     1      -9.753  16.700  65.549  0.00  0.00    -0.192 NA
ATOM      3  O   UNL     1      -8.891  16.517  67.713  0.00  0.00    -0.272 OA
ENDROOT
BRANCH   1   5
ATOM      4  C   UNL     1      -8.849  19.007  68.250  0.00  0.00    +0.022 C 
ATOM      5  C   UNL     1      -8.703  18.714  66.682  0.00  0.00    +0.136 C 
ATOM      6  S   UNL     1     -10.400  19.498  66.235  0.00  0.00    -0.073 S 
ENDBRANCH   1   5
BRANCH   2   7
ATOM      7  C   UNL     1     -10.591  15.524  65.666  0.00  0.00    +0.228 C 
BRANCH   7   8
ATOM      8  C   UNL     1     -11.674  15.635  64.643  0.00  0.00    +0.387 C 
ATOM      9  O   UNL     1     -12.432  14.527  64.290  0.00  0.00    -0.244 OA
ATOM     10  O   UNL     1     -11.637  16.619  63.848  0.00  0.00    -0.244 OA
ENDBRANCH   7   8
ENDBRANCH   2   7
TORSDOF 3
ENDMDL
MODEL 5
REMARK VINA RESULT:      -4.0      2.859      3.673
REMARK  Name = 
REMARK  3 active torsions:
REMARK  status: ('A' for Active; 'I' for Inactive)
REMARK    1  A    between atoms: C_2  and  C_4
REMARK    2  A    between atoms: N_6  and  C_7
REMARK    3  A    between atoms: C_7  and  C_8
REMARK                            x       y       z     vdW  Elec       q    Type
REMARK                         _______ _______ _______ _____ _____    ______ ____
ROOT
ATOM      1  C   UNL     1     -10.381  13.074  64.887  0.00  0.00    +0.252 C 
ATOM      2  N   UNL     1     -11.449  14.019  65.033  0.00  0.00    -0.192 NA
ATOM      3  O   UNL     1      -9.728  12.670  65.856  0.00  0.00    -0.272 OA
ENDROOT
BRANCH   1   5
ATOM      4  C   UNL     1     -11.991  12.059  63.535  0.00  0.00    +0.022 C 
ATOM      5  C   UNL     1     -10.400  12.241  63.557  0.00  0.00    +0.136 C 
ATOM      6  S   UNL     1     -10.078  10.544  64.403  0.00  0.00    -0.073 S 
ENDBRANCH   1   5
BRANCH   2   7
ATOM      7  C   UNL     1     -11.262  15.054  66.030  0.00  0.00    +0.228 C 
BRANCH   7   8
ATOM      8  C   UNL     1     -10.693  16.250  65.342  0.00  0.00    +0.387 C 
ATOM      9  O   UNL     1     -11.294  16.766  64.202  0.00  0.00    -0.244 OA
ATOM     10  O   UNL     1      -9.482  16.543  65.570  0.00  0.00    -0.244 OA
ENDBRANCH   7   8
ENDBRANCH   2   7
TORSDOF 3
ENDMDL
MODEL 6
REMARK VINA RESULT:      -4.0      3.048      4.117
REMARK  Name = 
REMARK  3 active torsions:
REMARK  status: ('A' for Active; 'I' for Inactive)
REMARK    1  A    between atoms: C_2  and  C_4
REMARK    2  A    between atoms: N_6  and  C_7
REMARK    3  A    between atoms: C_7  and  C_8
REMARK                            x       y       z     vdW  Elec       q    Type
REMARK                         _______ _______ _______ _____ _____    ______ ____
ROOT
ATOM      1  C   UNL     1     -11.256  12.885  66.874  0.00  0.00    +0.252 C 
ATOM      2  N   UNL     1     -10.477  13.746  66.033  0.00  0.00    -0.192 NA
ATOM      3  O   UNL     1     -12.086  12.094  66.410  0.00  0.00    -0.272 OA
ENDROOT
BRANCH   1   5
ATOM      4  C   UNL     1     -11.815  11.610  68.748  0.00  0.00    +0.022 C 
ATOM      5  C   UNL     1     -10.679  12.652  68.314  0.00  0.00    +0.136 C 
ATOM      6  S   UNL     1     -11.563  14.163  69.110  0.00  0.00    -0.073 S 
ENDBRANCH   1   5
BRANCH   2   7
ATOM      7  C   UNL     1     -11.147  14.287  64.868  0.00  0.00    +0.228 C 
BRANCH   7   8
ATOM      8  C   UNL     1     -10.949  15.768  64.876  0.00  0.00    +0.387 C 
ATOM      9  O   UNL     1     -11.580  16.573  63.938  0.00  0.00    -0.244 OA
ATOM     10  O   UNL     1      -9.934  16.224  65.478  0.00  0.00    -0.244 OA
ENDBRANCH   7   8
ENDBRANCH   2   7
TORSDOF 3
ENDMDL
MODEL 7
REMARK VINA RESULT:      -3.9      2.591      4.592
REMARK  Name = 
REMARK  3 active torsions:
REMARK  status: ('A' for Active; 'I' for Inactive)
REMARK    1  A    between atoms: C_2  and  C_4
REMARK    2  A    between atoms: N_6  and  C_7
REMARK    3  A    between atoms: C_7  and  C_8
REMARK                            x       y       z     vdW  Elec       q    Type
REMARK                         _______ _______ _______ _____ _____    ______ ____
ROOT
ATOM      1  C   UNL     1     -10.222  15.949  65.874  0.00  0.00    +0.252 C 
ATOM      2  N   UNL     1     -10.669  14.589  65.952  0.00  0.00    -0.192 NA
ATOM      3  O   UNL     1     -10.584  16.705  64.964  0.00  0.00    -0.272 OA
ENDROOT
BRANCH   1   5
ATOM      4  C   UNL     1     -10.955  16.162  68.081  0.00  0.00    +0.022 C 
ATOM      5  C   UNL     1      -9.667  16.551  67.213  0.00  0.00    +0.136 C 
ATOM      6  S   UNL     1     -10.266  18.344  66.868  0.00  0.00    -0.073 S 
ENDBRANCH   1   5
BRANCH   2   7
ATOM      7  C   UNL     1     -10.821  13.887  64.694  0.00  0.00    +0.228 C 
BRANCH   7   8
ATOM      8  C   UNL     1     -12.236  13.419  64.602  0.00  0.00    +0.387 C 
ATOM      9  O   UNL     1     -12.663  12.657  63.524  0.00  0.00    -0.244 OA
ATOM     10  O   UNL     1     -13.105  14.029  65.292  0.00  0.00    -0.244 OA
ENDBRANCH   7   8
ENDBRANCH   2   7
TORSDOF 3
ENDMDL
MODEL 8
REMARK VINA RESULT:      -3.8      5.275      6.610
REMARK  Name = 
REMARK  3 active torsions:
REMARK  status: ('A' for Active; 'I' for Inactive)
REMARK    1  A    between atoms: C_2  and  C_4
REMARK    2  A    between atoms: N_6  and  C_7
REMARK    3  A    between atoms: C_7  and  C_8
REMARK                            x       y       z     vdW  Elec       q    Type
REMARK                         _______ _______ _______ _____ _____    ______ ____
ROOT
ATOM      1  C   UNL     1     -12.529  15.875  71.736  0.00  0.00    +0.252 C 
ATOM      2  N   UNL     1     -12.918  15.824  70.358  0.00  0.00    -0.192 NA
ATOM      3  O   UNL     1     -11.591  16.582  72.125  0.00  0.00    -0.272 OA
ENDROOT
BRANCH   1   5
ATOM      4  C   UNL     1     -12.585  15.193  73.969  0.00  0.00    +0.022 C 
ATOM      5  C   UNL     1     -13.616  15.392  72.759  0.00  0.00    +0.136 C 
ATOM      6  S   UNL     1     -13.561  13.547  72.224  0.00  0.00    -0.073 S 
ENDBRANCH   1   5
BRANCH   2   7
ATOM      7  C   UNL     1     -11.847  15.887  69.383  0.00  0.00    +0.228 C 
BRANCH   7   8
ATOM      8  C   UNL     1     -11.340  14.498  69.175  0.00  0.00    +0.387 C 
ATOM      9  O   UNL     1      -9.999  14.266  68.902  0.00  0.00    -0.244 OA
ATOM     10  O   UNL     1     -12.180  13.601  68.874  0.00  0.00    -0.244 OA
ENDBRANCH   7   8
ENDBRANCH   2   7
TORSDOF 3
ENDMDL
MODEL 9
REMARK VINA RESULT:      -3.8      2.258      2.881
REMARK  Name = 
REMARK  3 active torsions:
REMARK  status: ('A' for Active; 'I' for Inactive)
REMARK    1  A    between atoms: C_2  and  C_4
REMARK    2  A    between atoms: N_6  and  C_7
REMARK    3  A    between atoms: C_7  and  C_8
REMARK                            x       y       z     vdW  Elec       q    Type
REMARK                         _______ _______ _______ _____ _____    ______ ____
ROOT
ATOM      1  C   UNL     1     -12.020  14.155  64.669  0.00  0.00    +0.252 C 
ATOM      2  N   UNL     1     -10.689  14.452  65.111  0.00  0.00    -0.192 NA
ATOM      3  O   UNL     1     -12.663  14.938  63.959  0.00  0.00    -0.272 OA
ENDROOT
BRANCH   1   5
ATOM      4  C   UNL     1     -11.696  12.354  66.119  0.00  0.00    +0.022 C 
ATOM      5  C   UNL     1     -12.422  12.639  64.720  0.00  0.00    +0.136 C 
ATOM      6  S   UNL     1     -10.938  12.023  63.664  0.00  0.00    -0.073 S 
ENDBRANCH   1   5
BRANCH   2   7
ATOM      7  C   UNL     1     -10.413  15.835  65.442  0.00  0.00    +0.228 C 
BRANCH   7   8
ATOM      8  C   UNL     1     -10.426  15.957  66.931  0.00  0.00    +0.387 C 
ATOM      9  O   UNL     1     -10.659  17.183  67.540  0.00  0.00    -0.244 OA
ATOM     10  O   UNL     1      -9.858  15.048  67.603  0.00  0.00    -0.244 OA
ENDBRANCH   7   8
ENDBRANCH   2   7
TORSDOF 3
ENDMDL
