MODEL 1
REMARK VINA RESULT:      -4.4      0.000      0.000
REMARK  Name = 
REMARK  1 active torsions:
REMARK  status: ('A' for Active; 'I' for Inactive)
REMARK    1  A    between atoms: C_2  and  CA_4
REMARK                            x       y       z     vdW  Elec       q    Type
REMARK                         _______ _______ _______ _____ _____    ______ ____
ROOT
ATOM      1  CA  HYP A   1     -13.022  14.989  73.224  0.00  0.00    +0.178 C 
ATOM      2  N   HYP A   1     -14.148  15.831  72.451  0.00  0.00    -0.206 NA
ATOM      3  CD  HYP A   1     -14.198  14.639  71.592  0.00  0.00    +0.122 C 
ATOM      4  CG  HYP A   1     -12.942  15.359  70.742  0.00  0.00    +0.171 C 
ATOM      5  OD  HYP A   1     -12.494  13.986  70.190  0.00  0.00    -0.222 OA
ATOM      6  CB  HYP A   1     -11.887  15.254  72.036  0.00  0.00    +0.063 C 
ENDROOT
BRANCH   1   8
ATOM      7  O   HYP A   1     -11.839  16.951  73.666  0.00  0.00    -0.244 OA
ATOM      8  C   HYP A   1     -12.552  16.301  74.091  0.00  0.00    +0.380 C 
ATOM      9  OXT HYP A   1     -12.526  15.965  75.451  0.00  0.00    -0.244 OA
ENDBRANCH   1   8
TORSDOF 1
ENDMDL
MODEL 2
REMARK VINA RESULT:      -4.3      7.749      8.354
REMARK  Name = 
REMARK  1 active torsions:
REMARK  status: ('A' for Active; 'I' for Inactive)
REMARK    1  A    between atoms: C_2  and  CA_4
REMARK                            x       y       z     vdW  Elec       q    Type
REMARK                         _______ _______ _______ _____ _____    ______ ____
ROOT
ATOM      1  CA  HYP A   1     -11.427  14.529  65.507  0.00  0.00    +0.178 C 
ATOM      2  N   HYP A   1     -12.599  14.284  64.439  0.00  0.00    -0.206 NA
ATOM      3  CD  HYP A   1     -12.628  12.945  65.045  0.00  0.00    +0.122 C 
ATOM      4  CG  HYP A   1     -11.419  12.562  63.947  0.00  0.00    +0.171 C 
ATOM      5  OD  HYP A   1     -10.937  11.398  64.842  0.00  0.00    -0.222 OA
ATOM      6  CB  HYP A   1     -10.330  13.628  64.638  0.00  0.00    +0.063 C 
ENDROOT
BRANCH   1   8
ATOM      7  O   HYP A   1     -10.442  16.639  65.352  0.00  0.00    -0.244 OA
ATOM      8  C   HYP A   1     -10.980  15.934  64.783  0.00  0.00    +0.380 C 
ATOM      9  OXT HYP A   1     -11.979  16.320  63.880  0.00  0.00    -0.244 OA
ENDBRANCH   1   8
TORSDOF 1
ENDMDL
MODEL 3
REMARK VINA RESULT:      -4.3      7.097      7.766
REMARK  Name = 
REMARK  1 active torsions:
REMARK  status: ('A' for Active; 'I' for Inactive)
REMARK    1  A    between atoms: C_2  and  CA_4
REMARK                            x       y       z     vdW  Elec       q    Type
REMARK                         _______ _______ _______ _____ _____    ______ ____
ROOT
ATOM      1  CA  HYP A   1     -10.614  14.620  65.122  0.00  0.00    +0.178 C 
ATOM      2  N   HYP A   1     -11.145  14.508  66.631  0.00  0.00    -0.206 NA
ATOM      3  CD  HYP A   1     -11.434  13.121  66.240  0.00  0.00    +0.122 C 
ATOM      4  CG  HYP A   1     -12.893  13.722  65.671  0.00  0.00    +0.171 C 
ATOM      5  OD  HYP A   1     -13.045  12.520  64.711  0.00  0.00    -0.222 OA
ATOM      6  CB  HYP A   1     -12.154  14.651  64.491  0.00  0.00    +0.063 C 
ENDROOT
BRANCH   1   8
ATOM      7  O   HYP A   1     -10.429  16.700  66.164  0.00  0.00    -0.244 OA
ATOM      8  C   HYP A   1     -10.522  16.257  65.212  0.00  0.00    +0.380 C 
ATOM      9  OXT HYP A   1     -11.330  16.815  64.213  0.00  0.00    -0.244 OA
ENDBRANCH   1   8
TORSDOF 1
ENDMDL
MODEL 4
REMARK VINA RESULT:      -4.2      6.870      7.825
REMARK  Name = 
REMARK  1 active torsions:
REMARK  status: ('A' for Active; 'I' for Inactive)
REMARK    1  A    between atoms: C_2  and  CA_4
REMARK                            x       y       z     vdW  Elec       q    Type
REMARK                         _______ _______ _______ _____ _____    ______ ____
ROOT
ATOM      1  CA  HYP A   1     -10.815  14.485  64.845  0.00  0.00    +0.178 C 
ATOM      2  N   HYP A   1     -10.012  14.625  66.226  0.00  0.00    -0.206 NA
ATOM      3  CD  HYP A   1     -10.115  13.159  66.230  0.00  0.00    +0.122 C 
ATOM      4  CG  HYP A   1     -11.606  13.395  66.963  0.00  0.00    +0.171 C 
ATOM      5  OD  HYP A   1     -12.088  12.004  66.491  0.00  0.00    -0.222 OA
ATOM      6  CB  HYP A   1     -12.251  14.146  65.615  0.00  0.00    +0.063 C 
ENDROOT
BRANCH   1   8
ATOM      7  O   HYP A   1     -11.595  16.487  63.933  0.00  0.00    -0.244 OA
ATOM      8  C   HYP A   1     -11.122  16.097  64.791  0.00  0.00    +0.380 C 
ATOM      9  OXT HYP A   1     -10.085  16.782  65.438  0.00  0.00    -0.244 OA
ENDBRANCH   1   8
TORSDOF 1
ENDMDL
MODEL 5
REMARK VINA RESULT:      -4.1      6.257      8.118
REMARK  Name = 
REMARK  1 active torsions:
REMARK  status: ('A' for Active; 'I' for Inactive)
REMARK    1  A    between atoms: C_2  and  CA_4
REMARK                            x       y       z     vdW  Elec       q    Type
REMARK                         _______ _______ _______ _____ _____    ______ ____
ROOT
ATOM      1  CA  HYP A   1     -10.673  14.654  65.084  0.00  0.00    +0.178 C 
ATOM      2  N   HYP A   1     -10.299  16.208  65.208  0.00  0.00    -0.206 NA
ATOM      3  CD  HYP A   1      -9.251  15.703  66.106  0.00  0.00    +0.122 C 
ATOM      4  CG  HYP A   1     -10.419  15.790  67.308  0.00  0.00    +0.171 C 
ATOM      5  OD  HYP A   1      -9.660  14.746  68.159  0.00  0.00    -0.222 OA
ATOM      6  CB  HYP A   1     -11.369  14.612  66.596  0.00  0.00    +0.063 C 
ENDROOT
BRANCH   1   8
ATOM      7  O   HYP A   1     -12.579  14.222  63.808  0.00  0.00    -0.244 OA
ATOM      8  C   HYP A   1     -12.096  14.994  64.340  0.00  0.00    +0.380 C 
ATOM      9  OXT HYP A   1     -12.059  16.310  63.861  0.00  0.00    -0.244 OA
ENDBRANCH   1   8
TORSDOF 1
ENDMDL
MODEL 6
REMARK VINA RESULT:      -4.1      1.744      1.947
REMARK  Name = 
REMARK  1 active torsions:
REMARK  status: ('A' for Active; 'I' for Inactive)
REMARK    1  A    between atoms: C_2  and  CA_4
REMARK                            x       y       z     vdW  Elec       q    Type
REMARK                         _______ _______ _______ _____ _____    ______ ____
ROOT
ATOM      1  CA  HYP A   1     -12.404  14.770  72.220  0.00  0.00    +0.178 C 
ATOM      2  N   HYP A   1     -13.409  14.550  70.990  0.00  0.00    -0.206 NA
ATOM      3  CD  HYP A   1     -12.192  14.088  70.307  0.00  0.00    +0.122 C 
ATOM      4  CG  HYP A   1     -11.943  15.705  69.936  0.00  0.00    +0.171 C 
ATOM      5  OD  HYP A   1     -10.429  15.456  69.746  0.00  0.00    -0.222 OA
ATOM      6  CB  HYP A   1     -11.735  16.135  71.539  0.00  0.00    +0.063 C 
ENDROOT
BRANCH   1   8
ATOM      7  O   HYP A   1     -14.339  16.036  72.530  0.00  0.00    -0.244 OA
ATOM      8  C   HYP A   1     -13.523  15.629  73.059  0.00  0.00    +0.380 C 
ATOM      9  OXT HYP A   1     -12.882  16.335  74.086  0.00  0.00    -0.244 OA
ENDBRANCH   1   8
TORSDOF 1
ENDMDL
MODEL 7
REMARK VINA RESULT:      -4.1      7.045      7.984
REMARK  Name = 
REMARK  1 active torsions:
REMARK  status: ('A' for Active; 'I' for Inactive)
REMARK    1  A    between atoms: C_2  and  CA_4
REMARK                            x       y       z     vdW  Elec       q    Type
REMARK                         _______ _______ _______ _____ _____    ______ ____
ROOT
ATOM      1  CA  HYP A   1     -12.353  14.242  65.896  0.00  0.00    +0.178 C 
ATOM      2  N   HYP A   1     -10.822  14.147  66.366  0.00  0.00    -0.206 NA
ATOM      3  CD  HYP A   1     -10.938  15.611  66.434  0.00  0.00    +0.122 C 
ATOM      4  CG  HYP A   1     -10.537  15.590  64.805  0.00  0.00    +0.171 C 
ATOM      5  OD  HYP A   1     -11.194  16.973  64.597  0.00  0.00    -0.222 OA
ATOM      6  CB  HYP A   1     -11.942  14.788  64.378  0.00  0.00    +0.063 C 
ENDROOT
BRANCH   1   8
ATOM      7  O   HYP A   1     -13.082  12.370  64.709  0.00  0.00    -0.244 OA
ATOM      8  C   HYP A   1     -12.367  12.670  65.423  0.00  0.00    +0.380 C 
ATOM      9  OXT HYP A   1     -12.031  11.861  66.517  0.00  0.00    -0.244 OA
ENDBRANCH   1   8
TORSDOF 1
ENDMDL
MODEL 8
REMARK VINA RESULT:      -4.1      2.319      3.409
REMARK  Name = 
REMARK  1 active torsions:
REMARK  status: ('A' for Active; 'I' for Inactive)
REMARK    1  A    between atoms: C_2  and  CA_4
REMARK                            x       y       z     vdW  Elec       q    Type
REMARK                         _______ _______ _______ _____ _____    ______ ____
ROOT
ATOM      1  CA  HYP A   1     -11.579  15.008  71.438  0.00  0.00    +0.178 C 
ATOM      2  N   HYP A   1     -12.142  16.209  72.340  0.00  0.00    -0.206 NA
ATOM      3  CD  HYP A   1     -12.602  15.110  73.202  0.00  0.00    +0.122 C 
ATOM      4  CG  HYP A   1     -13.963  15.082  72.221  0.00  0.00    +0.171 C 
ATOM      5  OD  HYP A   1     -14.255  13.618  72.620  0.00  0.00    -0.222 OA
ATOM      6  CB  HYP A   1     -13.093  14.608  70.873  0.00  0.00    +0.063 C 
ENDROOT
BRANCH   1   8
ATOM      7  O   HYP A   1     -12.062  16.222  69.504  0.00  0.00    -0.244 OA
ATOM      8  C   HYP A   1     -11.278  16.016  70.178  0.00  0.00    +0.380 C 
ATOM      9  OXT HYP A   1      -9.961  15.821  69.741  0.00  0.00    -0.244 OA
ENDBRANCH   1   8
TORSDOF 1
ENDMDL
MODEL 9
REMARK VINA RESULT:      -3.9      6.259      8.322
REMARK  Name = 
REMARK  1 active torsions:
REMARK  status: ('A' for Active; 'I' for Inactive)
REMARK    1  A    between atoms: C_2  and  CA_4
REMARK                            x       y       z     vdW  Elec       q    Type
REMARK                         _______ _______ _______ _____ _____    ______ ____
ROOT
ATOM      1  CA  HYP A   1     -10.943  13.253  64.847  0.00  0.00    +0.178 C 
ATOM      2  N   HYP A   1     -11.124  14.846  64.893  0.00  0.00    -0.206 NA
ATOM      3  CD  HYP A   1     -10.134  14.749  65.976  0.00  0.00    +0.122 C 
ATOM      4  CG  HYP A   1     -11.451  14.475  66.980  0.00  0.00    +0.171 C 
ATOM      5  OD  HYP A   1     -10.547  13.773  68.019  0.00  0.00    -0.222 OA
ATOM      6  CB  HYP A   1     -11.831  13.026  66.237  0.00  0.00    +0.063 C 
ENDROOT
BRANCH   1   8
ATOM      7  O   HYP A   1     -12.516  13.870  63.237  0.00  0.00    -0.244 OA
ATOM      8  C   HYP A   1     -12.254  13.073  63.875  0.00  0.00    +0.380 C 
ATOM      9  OXT HYP A   1     -13.222  12.316  64.548  0.00  0.00    -0.244 OA
ENDBRANCH   1   8
TORSDOF 1
ENDMDL
