MODEL 1
REMARK VINA RESULT:      -6.9      0.000      0.000
REMARK  Name = 
REMARK  7 active torsions:
REMARK  status: ('A' for Active; 'I' for Inactive)
REMARK    1  A    between atoms: O_2  and  N_3
REMARK    2  A    between atoms: C_4  and  C_5
REMARK    3  A    between atoms: C_4  and  C_28
REMARK    4  A    between atoms: N_7  and  CA_8
REMARK    5  A    between atoms: CA_12  and  C_13
REMARK    6  A    between atoms: C_16  and  C_17
REMARK    7  A    between atoms: C_18  and  C_19
REMARK                            x       y       z     vdW  Elec       q    Type
REMARK                         _______ _______ _______ _____ _____    ______ ____
ROOT
ATOM      1  CA  UNL     1     -10.133  14.782  69.550  0.00  0.00    +0.201 C 
ATOM      2  C   UNL     1      -8.805  15.596  68.908  0.00  0.00    +0.157 C 
ATOM      3  N   UNL     1      -9.813  16.691  68.620  0.00  0.00    -0.242 N 
ATOM      4  CA  UNL     1      -9.224  17.813  67.977  0.00  0.00    +0.132 C 
ATOM      5  C   UNL     1      -8.312  17.685  67.008  0.00  0.00    +0.009 C 
ATOM      6  C   UNL     1      -8.234  16.408  66.223  0.00  0.00    +0.087 C 
ATOM      7  S   UNL     1      -8.686  14.951  67.121  0.00  0.00    -0.114 S 
ATOM      8  C   UNL     1     -10.830  16.233  69.481  0.00  0.00    +0.253 C 
ATOM      9  O   UNL     1     -11.399  16.716  70.505  0.00  0.00    -0.273 OA
ENDROOT
BRANCH   1  11
ATOM     10  C   UNL     1     -11.742  13.272  68.398  0.00  0.00    +0.288 C 
ATOM     11  N   UNL     1     -10.812  14.318  68.196  0.00  0.00    -0.190 NA
ATOM     12  O   UNL     1     -12.678  13.562  69.193  0.00  0.00    -0.267 OA
BRANCH  10  14
ATOM     13  N   UNL     1     -11.592  10.914  68.244  0.00  0.00    -0.077 NA
ATOM     14  C   UNL     1     -11.751  12.035  67.606  0.00  0.00    +0.192 C 
BRANCH  14  15
ATOM     15  C   UNL     1     -11.496  12.050  66.155  0.00  0.00    +0.115 A 
ATOM     16  N   UNL     1     -12.461  12.418  65.276  0.00  0.00    -0.220 NA
ATOM     17  C   UNL     1     -11.920  13.056  64.207  0.00  0.00    +0.201 A 
ATOM     18  N   UNL     1     -12.549  14.025  63.359  0.00  0.00    -0.100 NA
ATOM     19  S   UNL     1     -10.495  12.122  63.999  0.00  0.00    -0.048 S 
ATOM     20  C   UNL     1     -10.545  11.275  65.494  0.00  0.00    +0.059 A 
ENDBRANCH  14  15
BRANCH  13  22
ATOM     21  C   UNL     1     -11.255  10.424  70.185  0.00  0.00    +0.288 C 
ATOM     22  O   UNL     1     -11.349  10.906  69.608  0.00  0.00    -0.373 OA
ENDBRANCH  13  22
ENDBRANCH  10  14
ENDBRANCH   1  11
BRANCH   4  23
ATOM     23  C   UNL     1      -9.900  19.112  68.139  0.00  0.00    +0.401 C 
ATOM     24  OXT UNL     1      -9.802  19.834  69.335  0.00  0.00    -0.239 OA
ATOM     25  O   UNL     1     -11.038  19.218  67.584  0.00  0.00    -0.239 OA
ENDBRANCH   4  23
BRANCH   5  26
ATOM     26  C   UNL     1      -8.020  18.785  66.071  0.00  0.00    -0.001 C 
ATOM     27  C   UNL     1      -6.758  18.660  65.641  0.00  0.00    +0.007 C 
BRANCH  27  28
ATOM     28  C   UNL     1      -5.883  19.219  66.687  0.00  0.00    +0.044 A 
ATOM     29  C   UNL     1      -4.735  18.754  67.238  0.00  0.00    +0.066 A 
ATOM     30  C   UNL     1      -4.580  17.285  67.506  0.00  0.00    +0.053 C 
ATOM     31  N   UNL     1      -3.927  19.626  67.767  0.00  0.00    -0.241 NA
ATOM     32  C   UNL     1      -4.117  20.901  67.539  0.00  0.00    +0.134 A 
ATOM     33  S   UNL     1      -5.530  20.898  66.566  0.00  0.00    -0.065 S 
ENDBRANCH  27  28
ENDBRANCH   5  26
TORSDOF 7
ENDMDL
MODEL 2
REMARK VINA RESULT:      -6.7      2.342      3.360
REMARK  Name = 
REMARK  7 active torsions:
REMARK  status: ('A' for Active; 'I' for Inactive)
REMARK    1  A    between atoms: O_2  and  N_3
REMARK    2  A    between atoms: C_4  and  C_5
REMARK    3  A    between atoms: C_4  and  C_28
REMARK    4  A    between atoms: N_7  and  CA_8
REMARK    5  A    between atoms: CA_12  and  C_13
REMARK    6  A    between atoms: C_16  and  C_17
REMARK    7  A    between atoms: C_18  and  C_19
REMARK                            x       y       z     vdW  Elec       q    Type
REMARK                         _______ _______ _______ _____ _____    ______ ____
ROOT
ATOM      1  CA  UNL     1     -10.691  14.189  68.708  0.00  0.00    +0.201 C 
ATOM      2  C   UNL     1      -9.239  14.966  69.063  0.00  0.00    +0.157 C 
ATOM      3  N   UNL     1      -9.910  16.170  68.429  0.00  0.00    -0.242 N 
ATOM      4  CA  UNL     1      -9.067  17.314  68.414  0.00  0.00    +0.132 C 
ATOM      5  C   UNL     1      -7.764  17.237  68.122  0.00  0.00    +0.009 C 
ATOM      6  C   UNL     1      -7.244  16.072  67.332  0.00  0.00    +0.087 C 
ATOM      7  S   UNL     1      -8.119  14.553  67.580  0.00  0.00    -0.114 S 
ATOM      8  C   UNL     1     -11.234  15.690  68.484  0.00  0.00    +0.253 C 
ATOM      9  O   UNL     1     -12.288  16.081  69.068  0.00  0.00    -0.273 OA
ENDROOT
BRANCH   1  11
ATOM     10  C   UNL     1     -11.201  12.851  66.672  0.00  0.00    +0.288 C 
ATOM     11  N   UNL     1     -10.474  13.964  67.155  0.00  0.00    -0.190 NA
ATOM     12  O   UNL     1     -12.447  12.930  66.857  0.00  0.00    -0.267 OA
BRANCH  10  14
ATOM     13  N   UNL     1     -10.731  11.902  64.555  0.00  0.00    -0.077 NA
ATOM     14  C   UNL     1     -10.604  11.794  65.844  0.00  0.00    +0.192 C 
BRANCH  14  15
ATOM     15  C   UNL     1     -10.285  10.469  66.401  0.00  0.00    +0.115 A 
ATOM     16  N   UNL     1      -9.946  10.319  67.706  0.00  0.00    -0.220 NA
ATOM     17  C   UNL     1     -10.395   9.133  68.187  0.00  0.00    +0.201 A 
ATOM     18  N   UNL     1     -10.719   8.807  69.545  0.00  0.00    -0.100 NA
ATOM     19  S   UNL     1     -10.106   8.134  66.821  0.00  0.00    -0.048 S 
ATOM     20  C   UNL     1      -9.805   9.381  65.676  0.00  0.00    +0.059 A 
ENDBRANCH  14  15
BRANCH  13  22
ATOM     21  C   UNL     1     -11.978  13.070  63.458  0.00  0.00    +0.288 C 
ATOM     22  O   UNL     1     -11.464  12.937  64.000  0.00  0.00    -0.373 OA
ENDBRANCH  13  22
ENDBRANCH  10  14
ENDBRANCH   1  11
BRANCH   4  23
ATOM     23  C   UNL     1      -9.723  18.632  68.365  0.00  0.00    +0.401 C 
ATOM     24  OXT UNL     1      -9.746  19.470  69.486  0.00  0.00    -0.239 OA
ATOM     25  O   UNL     1     -10.784  18.698  67.670  0.00  0.00    -0.239 OA
ENDBRANCH   4  23
BRANCH   5  26
ATOM     26  C   UNL     1      -6.997  18.423  67.697  0.00  0.00    -0.001 C 
ATOM     27  C   UNL     1      -5.748  18.318  68.170  0.00  0.00    +0.007 C 
BRANCH  27  28
ATOM     28  C   UNL     1      -5.777  18.750  69.578  0.00  0.00    +0.044 A 
ATOM     29  C   UNL     1      -5.218  18.214  70.691  0.00  0.00    +0.066 A 
ATOM     30  C   UNL     1      -5.182  16.722  70.861  0.00  0.00    +0.053 C 
ATOM     31  N   UNL     1      -4.987  19.014  71.692  0.00  0.00    -0.241 NA
ATOM     32  C   UNL     1      -5.065  20.307  71.512  0.00  0.00    +0.134 A 
ATOM     33  S   UNL     1      -5.530  20.427  69.865  0.00  0.00    -0.065 S 
ENDBRANCH  27  28
ENDBRANCH   5  26
TORSDOF 7
ENDMDL
MODEL 3
REMARK VINA RESULT:      -6.4      2.066      2.401
REMARK  Name = 
REMARK  7 active torsions:
REMARK  status: ('A' for Active; 'I' for Inactive)
REMARK    1  A    between atoms: O_2  and  N_3
REMARK    2  A    between atoms: C_4  and  C_5
REMARK    3  A    between atoms: C_4  and  C_28
REMARK    4  A    between atoms: N_7  and  CA_8
REMARK    5  A    between atoms: CA_12  and  C_13
REMARK    6  A    between atoms: C_16  and  C_17
REMARK    7  A    between atoms: C_18  and  C_19
REMARK                            x       y       z     vdW  Elec       q    Type
REMARK                         _______ _______ _______ _____ _____    ______ ____
ROOT
ATOM      1  CA  UNL     1     -10.496  14.805  68.736  0.00  0.00    +0.201 C 
ATOM      2  C   UNL     1      -8.929  15.352  69.027  0.00  0.00    +0.157 C 
ATOM      3  N   UNL     1      -9.279  16.416  68.004  0.00  0.00    -0.242 N 
ATOM      4  CA  UNL     1      -8.203  17.312  67.765  0.00  0.00    +0.132 C 
ATOM      5  C   UNL     1      -6.936  16.897  67.664  0.00  0.00    +0.009 C 
ATOM      6  C   UNL     1      -6.646  15.469  67.303  0.00  0.00    +0.087 C 
ATOM      7  S   UNL     1      -7.849  14.299  67.865  0.00  0.00    -0.114 S 
ATOM      8  C   UNL     1     -10.678  16.244  68.034  0.00  0.00    +0.253 C 
ATOM      9  O   UNL     1     -11.649  16.991  68.354  0.00  0.00    -0.273 OA
ENDROOT
BRANCH   1  11
ATOM     10  C   UNL     1     -11.388  13.369  66.909  0.00  0.00    +0.288 C 
ATOM     11  N   UNL     1     -10.249  14.083  67.348  0.00  0.00    -0.190 NA
ATOM     12  O   UNL     1     -12.420  14.081  66.769  0.00  0.00    -0.267 OA
BRANCH  10  14
ATOM     13  N   UNL     1     -11.679  11.053  67.304  0.00  0.00    -0.077 NA
ATOM     14  C   UNL     1     -11.340  11.974  66.451  0.00  0.00    +0.192 C 
BRANCH  14  15
ATOM     15  C   UNL     1     -10.538  11.576  65.282  0.00  0.00    +0.115 A 
ATOM     16  N   UNL     1      -9.399  10.853  65.424  0.00  0.00    -0.220 NA
ATOM     17  C   UNL     1      -9.230  10.009  64.375  0.00  0.00    +0.201 A 
ATOM     18  N   UNL     1      -8.515   8.767  64.361  0.00  0.00    -0.100 NA
ATOM     19  S   UNL     1      -9.780  11.015  63.098  0.00  0.00    -0.048 S 
ATOM     20  C   UNL     1     -10.508  12.241  64.058  0.00  0.00    +0.059 A 
ENDBRANCH  14  15
BRANCH  13  22
ATOM     21  C   UNL     1     -12.097  11.061  69.290  0.00  0.00    +0.288 C 
ATOM     22  O   UNL     1     -11.999  11.382  68.610  0.00  0.00    -0.373 OA
ENDBRANCH  13  22
ENDBRANCH  10  14
ENDBRANCH   1  11
BRANCH   4  23
ATOM     23  C   UNL     1      -8.545  18.656  67.268  0.00  0.00    +0.401 C 
ATOM     24  OXT UNL     1      -9.028  19.646  68.133  0.00  0.00    -0.239 OA
ATOM     25  O   UNL     1      -9.071  18.702  66.112  0.00  0.00    -0.239 OA
ENDBRANCH   4  23
BRANCH   5  26
ATOM     26  C   UNL     1      -5.902  17.724  67.015  0.00  0.00    -0.001 C 
ATOM     27  C   UNL     1      -4.831  17.781  67.818  0.00  0.00    +0.007 C 
BRANCH  27  28
ATOM     28  C   UNL     1      -5.108  18.800  68.845  0.00  0.00    +0.044 A 
ATOM     29  C   UNL     1      -4.934  18.789  70.189  0.00  0.00    +0.066 A 
ATOM     30  C   UNL     1      -5.215  17.534  70.965  0.00  0.00    +0.053 C 
ATOM     31  N   UNL     1      -4.800  19.937  70.788  0.00  0.00    -0.241 NA
ATOM     32  C   UNL     1      -4.593  21.013  70.074  0.00  0.00    +0.134 A 
ATOM     33  S   UNL     1      -4.629  20.408  68.469  0.00  0.00    -0.065 S 
ENDBRANCH  27  28
ENDBRANCH   5  26
TORSDOF 7
ENDMDL
MODEL 4
REMARK VINA RESULT:      -6.2      3.140      4.762
REMARK  Name = 
REMARK  7 active torsions:
REMARK  status: ('A' for Active; 'I' for Inactive)
REMARK    1  A    between atoms: O_2  and  N_3
REMARK    2  A    between atoms: C_4  and  C_5
REMARK    3  A    between atoms: C_4  and  C_28
REMARK    4  A    between atoms: N_7  and  CA_8
REMARK    5  A    between atoms: CA_12  and  C_13
REMARK    6  A    between atoms: C_16  and  C_17
REMARK    7  A    between atoms: C_18  and  C_19
REMARK                            x       y       z     vdW  Elec       q    Type
REMARK                         _______ _______ _______ _____ _____    ______ ____
ROOT
ATOM      1  CA  UNL     1      -8.206  14.773  66.815  0.00  0.00    +0.201 C 
ATOM      2  C   UNL     1      -7.956  16.374  66.353  0.00  0.00    +0.157 C 
ATOM      3  N   UNL     1      -6.923  16.369  67.464  0.00  0.00    -0.242 N 
ATOM      4  CA  UNL     1      -6.275  17.626  67.606  0.00  0.00    +0.132 C 
ATOM      5  C   UNL     1      -6.937  18.784  67.523  0.00  0.00    +0.009 C 
ATOM      6  C   UNL     1      -8.417  18.818  67.773  0.00  0.00    +0.087 C 
ATOM      7  S   UNL     1      -9.283  17.345  67.313  0.00  0.00    -0.114 S 
ATOM      8  C   UNL     1      -6.815  14.971  67.605  0.00  0.00    +0.253 C 
ATOM      9  O   UNL     1      -5.870  14.142  67.450  0.00  0.00    -0.273 OA
ENDROOT
BRANCH   1  11
ATOM     10  C   UNL     1     -10.009  14.000  68.347  0.00  0.00    +0.288 C 
ATOM     11  N   UNL     1      -9.063  15.027  68.123  0.00  0.00    -0.190 NA
ATOM     12  O   UNL     1      -9.503  12.851  68.462  0.00  0.00    -0.267 OA
BRANCH  10  14
ATOM     13  N   UNL     1     -12.232  14.361  67.618  0.00  0.00    -0.077 NA
ATOM     14  C   UNL     1     -11.427  14.257  68.633  0.00  0.00    +0.192 C 
BRANCH  14  15
ATOM     15  C   UNL     1     -11.862  14.818  69.923  0.00  0.00    +0.115 A 
ATOM     16  N   UNL     1     -13.059  14.485  70.467  0.00  0.00    -0.220 NA
ATOM     17  C   UNL     1     -12.982  14.455  71.821  0.00  0.00    +0.201 A 
ATOM     18  N   UNL     1     -13.787  13.686  72.724  0.00  0.00    -0.100 NA
ATOM     19  S   UNL     1     -11.954  15.804  72.086  0.00  0.00    -0.048 S 
ATOM     20  C   UNL     1     -11.435  16.030  70.463  0.00  0.00    +0.059 A 
ENDBRANCH  14  15
BRANCH  13  22
ATOM     21  C   UNL     1     -11.988  14.236  65.606  0.00  0.00    +0.288 C 
ATOM     22  O   UNL     1     -11.747  14.304  66.322  0.00  0.00    -0.373 OA
ENDBRANCH  13  22
ENDBRANCH  10  14
ENDBRANCH   1  11
BRANCH   4  23
ATOM     23  C   UNL     1      -4.931  17.624  68.209  0.00  0.00    +0.401 C 
ATOM     24  OXT UNL     1      -3.795  17.339  67.442  0.00  0.00    -0.239 OA
ATOM     25  O   UNL     1      -4.857  17.180  69.397  0.00  0.00    -0.239 OA
ENDBRANCH   4  23
BRANCH   5  26
ATOM     26  C   UNL     1      -6.379  20.034  68.074  0.00  0.00    -0.001 C 
ATOM     27  C   UNL     1      -6.389  20.968  67.115  0.00  0.00    +0.007 C 
BRANCH  27  28
ATOM     28  C   UNL     1      -5.211  20.731  66.261  0.00  0.00    +0.044 A 
ATOM     29  C   UNL     1      -5.002  20.954  64.940  0.00  0.00    +0.066 A 
ATOM     30  C   UNL     1      -6.109  20.698  63.959  0.00  0.00    +0.053 C 
ATOM     31  N   UNL     1      -3.772  21.112  64.546  0.00  0.00    -0.241 NA
ATOM     32  C   UNL     1      -2.830  21.295  65.434  0.00  0.00    +0.134 A 
ATOM     33  S   UNL     1      -3.691  21.199  66.915  0.00  0.00    -0.065 S 
ENDBRANCH  27  28
ENDBRANCH   5  26
TORSDOF 7
ENDMDL
MODEL 5
REMARK VINA RESULT:      -6.2      2.346      8.359
REMARK  Name = 
REMARK  7 active torsions:
REMARK  status: ('A' for Active; 'I' for Inactive)
REMARK    1  A    between atoms: O_2  and  N_3
REMARK    2  A    between atoms: C_4  and  C_5
REMARK    3  A    between atoms: C_4  and  C_28
REMARK    4  A    between atoms: N_7  and  CA_8
REMARK    5  A    between atoms: CA_12  and  C_13
REMARK    6  A    between atoms: C_16  and  C_17
REMARK    7  A    between atoms: C_18  and  C_19
REMARK                            x       y       z     vdW  Elec       q    Type
REMARK                         _______ _______ _______ _____ _____    ______ ____
ROOT
ATOM      1  CA  UNL     1      -8.747  19.115  66.570  0.00  0.00    +0.201 C 
ATOM      2  C   UNL     1      -8.775  17.481  66.162  0.00  0.00    +0.157 C 
ATOM      3  N   UNL     1      -9.390  17.309  67.538  0.00  0.00    -0.242 N 
ATOM      4  CA  UNL     1      -9.675  15.950  67.837  0.00  0.00    +0.132 C 
ATOM      5  C   UNL     1      -8.839  14.957  67.518  0.00  0.00    +0.009 C 
ATOM      6  C   UNL     1      -7.383  15.251  67.295  0.00  0.00    +0.087 C 
ATOM      7  S   UNL     1      -7.040  16.856  66.633  0.00  0.00    -0.114 S 
ATOM      8  C   UNL     1      -9.748  18.656  67.747  0.00  0.00    +0.253 C 
ATOM      9  O   UNL     1     -10.850  19.257  67.917  0.00  0.00    -0.273 OA
ENDROOT
BRANCH   1  11
ATOM     10  C   UNL     1      -6.621  20.189  67.296  0.00  0.00    +0.288 C 
ATOM     11  N   UNL     1      -7.494  19.103  67.539  0.00  0.00    -0.190 NA
ATOM     12  O   UNL     1      -7.163  21.321  67.418  0.00  0.00    -0.267 OA
BRANCH  10  14
ATOM     13  N   UNL     1      -4.730  19.818  65.921  0.00  0.00    -0.077 NA
ATOM     14  C   UNL     1      -5.170  20.036  67.124  0.00  0.00    +0.192 C 
BRANCH  14  15
ATOM     15  C   UNL     1      -4.295  19.689  68.257  0.00  0.00    +0.115 A 
ATOM     16  N   UNL     1      -4.520  20.189  69.497  0.00  0.00    -0.220 NA
ATOM     17  C   UNL     1      -4.171  19.289  70.450  0.00  0.00    +0.201 A 
ATOM     18  N   UNL     1      -4.696  19.176  71.779  0.00  0.00    -0.100 NA
ATOM     19  S   UNL     1      -2.754  18.636  69.732  0.00  0.00    -0.048 S 
ATOM     20  C   UNL     1      -2.963  19.292  68.157  0.00  0.00    +0.059 A 
ENDBRANCH  14  15
BRANCH  13  22
ATOM     21  C   UNL     1      -5.624  19.451  64.136  0.00  0.00    +0.288 C 
ATOM     22  O   UNL     1      -5.610  19.665  64.863  0.00  0.00    -0.373 OA
ENDBRANCH  13  22
ENDBRANCH  10  14
ENDBRANCH   1  11
BRANCH   4  23
ATOM     23  C   UNL     1     -10.734  15.687  68.827  0.00  0.00    +0.401 C 
ATOM     24  OXT UNL     1     -12.082  15.649  68.451  0.00  0.00    -0.239 OA
ATOM     25  O   UNL     1     -10.551  16.188  69.981  0.00  0.00    -0.239 OA
ENDBRANCH   4  23
BRANCH   5  26
ATOM     26  C   UNL     1      -8.915  13.640  68.178  0.00  0.00    -0.001 C 
ATOM     27  C   UNL     1      -8.758  12.685  67.252  0.00  0.00    +0.007 C 
BRANCH  27  28
ATOM     28  C   UNL     1     -10.059  12.509  66.582  0.00  0.00    +0.044 A 
ATOM     29  C   UNL     1     -11.320  12.449  67.075  0.00  0.00    +0.066 A 
ATOM     30  C   UNL     1     -11.579  11.733  68.370  0.00  0.00    +0.053 C 
ATOM     31  N   UNL     1     -12.294  12.768  66.274  0.00  0.00    -0.241 NA
ATOM     32  C   UNL     1     -12.025  13.357  65.137  0.00  0.00    +0.134 A 
ATOM     33  S   UNL     1     -10.311  13.436  65.156  0.00  0.00    -0.065 S 
ENDBRANCH  27  28
ENDBRANCH   5  26
TORSDOF 7
ENDMDL
MODEL 6
REMARK VINA RESULT:      -6.1      3.541      7.653
REMARK  Name = 
REMARK  7 active torsions:
REMARK  status: ('A' for Active; 'I' for Inactive)
REMARK    1  A    between atoms: O_2  and  N_3
REMARK    2  A    between atoms: C_4  and  C_5
REMARK    3  A    between atoms: C_4  and  C_28
REMARK    4  A    between atoms: N_7  and  CA_8
REMARK    5  A    between atoms: CA_12  and  C_13
REMARK    6  A    between atoms: C_16  and  C_17
REMARK    7  A    between atoms: C_18  and  C_19
REMARK                            x       y       z     vdW  Elec       q    Type
REMARK                         _______ _______ _______ _____ _____    ______ ____
ROOT
ATOM      1  CA  UNL     1     -10.089  16.184  65.965  0.00  0.00    +0.201 C 
ATOM      2  C   UNL     1      -9.324  14.707  65.701  0.00  0.00    +0.157 C 
ATOM      3  N   UNL     1     -10.653  14.306  65.090  0.00  0.00    -0.242 N 
ATOM      4  CA  UNL     1     -10.650  12.964  64.622  0.00  0.00    +0.132 C 
ATOM      5  C   UNL     1     -10.077  11.969  65.306  0.00  0.00    +0.009 C 
ATOM      6  C   UNL     1      -9.857  12.111  66.785  0.00  0.00    +0.087 C 
ATOM      7  S   UNL     1      -9.560  13.765  67.339  0.00  0.00    -0.114 S 
ATOM      8  C   UNL     1     -11.177  15.603  64.928  0.00  0.00    +0.253 C 
ATOM      9  O   UNL     1     -11.531  16.290  63.923  0.00  0.00    -0.273 OA
ENDROOT
BRANCH   1  11
ATOM     10  C   UNL     1     -10.899  16.747  68.251  0.00  0.00    +0.288 C 
ATOM     11  N   UNL     1     -10.971  15.783  67.218  0.00  0.00    -0.190 NA
ATOM     12  O   UNL     1     -11.268  17.902  67.903  0.00  0.00    -0.267 OA
BRANCH  10  14
ATOM     13  N   UNL     1      -9.380  16.286  70.008  0.00  0.00    -0.077 NA
ATOM     14  C   UNL     1     -10.625  16.408  69.654  0.00  0.00    +0.192 C 
BRANCH  14  15
ATOM     15  C   UNL     1     -11.654  15.794  70.511  0.00  0.00    +0.115 A 
ATOM     16  N   UNL     1     -11.462  15.652  71.846  0.00  0.00    -0.220 NA
ATOM     17  C   UNL     1     -12.634  15.787  72.517  0.00  0.00    +0.201 A 
ATOM     18  N   UNL     1     -12.820  16.221  73.871  0.00  0.00    -0.100 NA
ATOM     19  S   UNL     1     -13.689  14.976  71.432  0.00  0.00    -0.048 S 
ATOM     20  C   UNL     1     -12.622  14.886  70.087  0.00  0.00    +0.059 A 
ENDBRANCH  14  15
BRANCH  13  22
ATOM     21  C   UNL     1      -7.608  16.417  69.026  0.00  0.00    +0.288 C 
ATOM     22  O   UNL     1      -8.365  16.401  69.073  0.00  0.00    -0.373 OA
ENDBRANCH  13  22
ENDBRANCH  10  14
ENDBRANCH   1  11
BRANCH   4  23
ATOM     23  C   UNL     1     -11.604  12.624  63.552  0.00  0.00    +0.401 C 
ATOM     24  OXT UNL     1     -12.969  12.470  63.822  0.00  0.00    -0.239 OA
ATOM     25  O   UNL     1     -11.178  11.823  62.663  0.00  0.00    -0.239 OA
ENDBRANCH   4  23
BRANCH   5  26
ATOM     26  C   UNL     1     -10.425  10.558  65.056  0.00  0.00    -0.001 C 
ATOM     27  C   UNL     1      -9.440   9.783  65.529  0.00  0.00    +0.007 C 
BRANCH  27  28
ATOM     28  C   UNL     1      -8.367   9.775  64.520  0.00  0.00    +0.044 A 
ATOM     29  C   UNL     1      -7.061   9.419  64.603  0.00  0.00    +0.066 A 
ATOM     30  C   UNL     1      -6.275   9.756  65.837  0.00  0.00    +0.053 C 
ATOM     31  N   UNL     1      -6.469   9.050  63.504  0.00  0.00    -0.241 NA
ATOM     32  C   UNL     1      -7.186   8.802  62.439  0.00  0.00    +0.134 A 
ATOM     33  S   UNL     1      -8.780   9.141  62.976  0.00  0.00    -0.065 S 
ENDBRANCH  27  28
ENDBRANCH   5  26
TORSDOF 7
ENDMDL
MODEL 7
REMARK VINA RESULT:      -5.9      4.432      9.827
REMARK  Name = 
REMARK  7 active torsions:
REMARK  status: ('A' for Active; 'I' for Inactive)
REMARK    1  A    between atoms: O_2  and  N_3
REMARK    2  A    between atoms: C_4  and  C_5
REMARK    3  A    between atoms: C_4  and  C_28
REMARK    4  A    between atoms: N_7  and  CA_8
REMARK    5  A    between atoms: CA_12  and  C_13
REMARK    6  A    between atoms: C_16  and  C_17
REMARK    7  A    between atoms: C_18  and  C_19
REMARK                            x       y       z     vdW  Elec       q    Type
REMARK                         _______ _______ _______ _____ _____    ______ ____
ROOT
ATOM      1  CA  UNL     1      -9.196  10.529  67.495  0.00  0.00    +0.201 C 
ATOM      2  C   UNL     1      -9.511  10.207  69.118  0.00  0.00    +0.157 C 
ATOM      3  N   UNL     1     -10.069   8.900  68.588  0.00  0.00    -0.242 N 
ATOM      4  CA  UNL     1     -10.576   8.069  69.623  0.00  0.00    +0.132 C 
ATOM      5  C   UNL     1     -11.285   8.554  70.647  0.00  0.00    +0.009 C 
ATOM      6  C   UNL     1     -11.993   9.871  70.506  0.00  0.00    +0.087 C 
ATOM      7  S   UNL     1     -11.196  11.034  69.436  0.00  0.00    -0.114 S 
ATOM      8  C   UNL     1      -9.474   8.952  67.312  0.00  0.00    +0.253 C 
ATOM      9  O   UNL     1      -8.636   8.224  66.701  0.00  0.00    -0.273 OA
ENDROOT
BRANCH   1  11
ATOM     10  C   UNL     1     -10.666  11.935  66.059  0.00  0.00    +0.288 C 
ATOM     11  N   UNL     1     -10.663  10.909  67.033  0.00  0.00    -0.190 NA
ATOM     12  O   UNL     1     -10.018  11.655  65.014  0.00  0.00    -0.267 OA
BRANCH  10  14
ATOM     13  N   UNL     1     -12.514  13.221  65.327  0.00  0.00    -0.077 NA
ATOM     14  C   UNL     1     -11.512  13.133  66.151  0.00  0.00    +0.192 C 
BRANCH  14  15
ATOM     15  C   UNL     1     -11.029  14.368  66.792  0.00  0.00    +0.115 A 
ATOM     16  N   UNL     1     -10.135  15.178  66.172  0.00  0.00    -0.220 NA
ATOM     17  C   UNL     1     -10.363  16.477  66.488  0.00  0.00    +0.201 A 
ATOM     18  N   UNL     1     -10.041  17.635  65.707  0.00  0.00    -0.100 NA
ATOM     19  S   UNL     1     -10.778  16.308  68.145  0.00  0.00    -0.048 S 
ATOM     20  C   UNL     1     -10.984  14.601  68.165  0.00  0.00    +0.059 A 
ENDBRANCH  14  15
BRANCH  13  22
ATOM     21  C   UNL     1     -12.860  12.185  63.616  0.00  0.00    +0.288 C 
ATOM     22  O   UNL     1     -12.720  12.254  64.358  0.00  0.00    -0.373 OA
ENDBRANCH  13  22
ENDBRANCH  10  14
ENDBRANCH   1  11
BRANCH   4  23
ATOM     23  C   UNL     1     -10.620   6.620  69.361  0.00  0.00    +0.401 C 
ATOM     24  OXT UNL     1      -9.485   5.819  69.532  0.00  0.00    -0.239 OA
ATOM     25  O   UNL     1     -11.347   6.255  68.384  0.00  0.00    -0.239 OA
ENDBRANCH   4  23
BRANCH   5  26
ATOM     26  C   UNL     1     -12.151   7.687  71.468  0.00  0.00    -0.001 C 
ATOM     27  C   UNL     1     -11.703   7.705  72.730  0.00  0.00    +0.007 C 
BRANCH  27  28
ATOM     28  C   UNL     1     -10.567   6.770  72.805  0.00  0.00    +0.044 A 
ATOM     29  C   UNL     1      -9.399   6.832  73.490  0.00  0.00    +0.066 A 
ATOM     30  C   UNL     1      -8.683   8.146  73.622  0.00  0.00    +0.053 C 
ATOM     31  N   UNL     1      -8.804   5.708  73.766  0.00  0.00    -0.241 NA
ATOM     32  C   UNL     1      -9.450   4.582  73.602  0.00  0.00    +0.134 A 
ATOM     33  S   UNL     1     -10.962   5.106  72.986  0.00  0.00    -0.065 S 
ENDBRANCH  27  28
ENDBRANCH   5  26
TORSDOF 7
ENDMDL
MODEL 8
REMARK VINA RESULT:      -5.8      2.372      3.558
REMARK  Name = 
REMARK  7 active torsions:
REMARK  status: ('A' for Active; 'I' for Inactive)
REMARK    1  A    between atoms: O_2  and  N_3
REMARK    2  A    between atoms: C_4  and  C_5
REMARK    3  A    between atoms: C_4  and  C_28
REMARK    4  A    between atoms: N_7  and  CA_8
REMARK    5  A    between atoms: CA_12  and  C_13
REMARK    6  A    between atoms: C_16  and  C_17
REMARK    7  A    between atoms: C_18  and  C_19
REMARK                            x       y       z     vdW  Elec       q    Type
REMARK                         _______ _______ _______ _____ _____    ______ ____
ROOT
ATOM      1  CA  UNL     1     -10.556  15.961  68.439  0.00  0.00    +0.201 C 
ATOM      2  C   UNL     1      -8.991  16.325  68.945  0.00  0.00    +0.157 C 
ATOM      3  N   UNL     1      -8.987  17.253  67.746  0.00  0.00    -0.242 N 
ATOM      4  CA  UNL     1      -7.754  17.944  67.600  0.00  0.00    +0.132 C 
ATOM      5  C   UNL     1      -6.574  17.348  67.794  0.00  0.00    +0.009 C 
ATOM      6  C   UNL     1      -6.465  15.855  67.682  0.00  0.00    +0.087 C 
ATOM      7  S   UNL     1      -7.920  14.964  68.154  0.00  0.00    -0.114 S 
ATOM      8  C   UNL     1     -10.380  17.283  67.534  0.00  0.00    +0.253 C 
ATOM      9  O   UNL     1     -11.255  18.198  67.566  0.00  0.00    -0.273 OA
ENDROOT
BRANCH   1  11
ATOM     10  C   UNL     1     -11.158  13.971  67.069  0.00  0.00    +0.288 C 
ATOM     11  N   UNL     1     -10.204  15.003  67.227  0.00  0.00    -0.190 NA
ATOM     12  O   UNL     1     -12.334  14.382  66.876  0.00  0.00    -0.267 OA
BRANCH  10  14
ATOM     13  N   UNL     1     -10.921  12.019  65.751  0.00  0.00    -0.077 NA
ATOM     14  C   UNL     1     -10.797  12.553  66.929  0.00  0.00    +0.192 C 
BRANCH  14  15
ATOM     15  C   UNL     1     -10.740  11.656  68.096  0.00  0.00    +0.115 A 
ATOM     16  N   UNL     1     -11.196  12.053  69.310  0.00  0.00    -0.220 NA
ATOM     17  C   UNL     1     -11.733  11.008  69.988  0.00  0.00    +0.201 A 
ATOM     18  N   UNL     1     -12.746  11.052  71.001  0.00  0.00    -0.100 NA
ATOM     19  S   UNL     1     -10.630   9.771  69.542  0.00  0.00    -0.048 S 
ATOM     20  C   UNL     1      -9.838  10.607  68.265  0.00  0.00    +0.059 A 
ENDBRANCH  14  15
BRANCH  13  22
ATOM     21  C   UNL     1     -11.567  12.695  63.949  0.00  0.00    +0.288 C 
ATOM     22  O   UNL     1     -11.442  12.747  64.695  0.00  0.00    -0.373 OA
ENDBRANCH  13  22
ENDBRANCH  10  14
ENDBRANCH   1  11
BRANCH   4  23
ATOM     23  C   UNL     1      -7.784  19.227  66.877  0.00  0.00    +0.401 C 
ATOM     24  OXT UNL     1      -8.196  20.405  67.512  0.00  0.00    -0.239 OA
ATOM     25  O   UNL     1      -8.133  19.169  65.657  0.00  0.00    -0.239 OA
ENDBRANCH   4  23
BRANCH   5  26
ATOM     26  C   UNL     1      -5.324  17.912  67.249  0.00  0.00    -0.001 C 
ATOM     27  C   UNL     1      -4.364  17.802  68.176  0.00  0.00    +0.007 C 
BRANCH  27  28
ATOM     28  C   UNL     1      -4.542  18.916  69.124  0.00  0.00    +0.044 A 
ATOM     29  C   UNL     1      -4.975  20.188  68.940  0.00  0.00    +0.066 A 
ATOM     30  C   UNL     1      -4.571  20.940  67.704  0.00  0.00    +0.053 C 
ATOM     31  N   UNL     1      -5.488  20.802  69.966  0.00  0.00    -0.241 NA
ATOM     32  C   UNL     1      -5.792  20.117  71.039  0.00  0.00    +0.134 A 
ATOM     33  S   UNL     1      -5.296  18.529  70.620  0.00  0.00    -0.065 S 
ENDBRANCH  27  28
ENDBRANCH   5  26
TORSDOF 7
ENDMDL
MODEL 9
REMARK VINA RESULT:      -5.8      2.873      4.206
REMARK  Name = 
REMARK  7 active torsions:
REMARK  status: ('A' for Active; 'I' for Inactive)
REMARK    1  A    between atoms: O_2  and  N_3
REMARK    2  A    between atoms: C_4  and  C_5
REMARK    3  A    between atoms: C_4  and  C_28
REMARK    4  A    between atoms: N_7  and  CA_8
REMARK    5  A    between atoms: CA_12  and  C_13
REMARK    6  A    between atoms: C_16  and  C_17
REMARK    7  A    between atoms: C_18  and  C_19
REMARK                            x       y       z     vdW  Elec       q    Type
REMARK                         _______ _______ _______ _____ _____    ______ ____
ROOT
ATOM      1  CA  UNL     1     -10.439  17.037  67.800  0.00  0.00    +0.201 C 
ATOM      2  C   UNL     1      -9.050  17.468  68.651  0.00  0.00    +0.157 C 
ATOM      3  N   UNL     1      -8.412  17.513  67.275  0.00  0.00    -0.242 N 
ATOM      4  CA  UNL     1      -7.035  17.859  67.329  0.00  0.00    +0.132 C 
ATOM      5  C   UNL     1      -6.211  17.373  68.263  0.00  0.00    +0.009 C 
ATOM      6  C   UNL     1      -6.558  16.095  68.971  0.00  0.00    +0.087 C 
ATOM      7  S   UNL     1      -8.291  15.802  69.173  0.00  0.00    -0.114 S 
ATOM      8  C   UNL     1      -9.603  17.554  66.524  0.00  0.00    +0.253 C 
ATOM      9  O   UNL     1     -10.112  18.398  65.727  0.00  0.00    -0.273 OA
ENDROOT
BRANCH   1  11
ATOM     10  C   UNL     1     -11.229  14.693  67.519  0.00  0.00    +0.288 C 
ATOM     11  N   UNL     1     -10.083  15.522  67.504  0.00  0.00    -0.190 NA
ATOM     12  O   UNL     1     -12.116  15.027  66.687  0.00  0.00    -0.267 OA
BRANCH  10  14
ATOM     13  N   UNL     1     -11.215  12.327  67.601  0.00  0.00    -0.077 NA
ATOM     14  C   UNL     1     -11.307  13.435  68.274  0.00  0.00    +0.192 C 
BRANCH  14  15
ATOM     15  C   UNL     1     -11.903  13.383  69.620  0.00  0.00    +0.115 A 
ATOM     16  N   UNL     1     -11.887  14.465  70.438  0.00  0.00    -0.220 NA
ATOM     17  C   UNL     1     -13.005  14.505  71.206  0.00  0.00    +0.201 A 
ATOM     18  N   UNL     1     -13.629  15.660  71.780  0.00  0.00    -0.100 NA
ATOM     19  S   UNL     1     -13.186  12.832  71.546  0.00  0.00    -0.048 S 
ATOM     20  C   UNL     1     -12.066  12.231  70.388  0.00  0.00    +0.059 A 
ENDBRANCH  14  15
BRANCH  13  22
ATOM     21  C   UNL     1     -11.044  11.874  65.630  0.00  0.00    +0.288 C 
ATOM     22  O   UNL     1     -11.123  12.344  66.220  0.00  0.00    -0.373 OA
ENDBRANCH  13  22
ENDBRANCH  10  14
ENDBRANCH   1  11
BRANCH   4  23
ATOM     23  C   UNL     1      -6.449  18.472  66.125  0.00  0.00    +0.401 C 
ATOM     24  OXT UNL     1      -6.409  19.863  65.967  0.00  0.00    -0.239 OA
ATOM     25  O   UNL     1      -6.646  17.851  65.034  0.00  0.00    -0.239 OA
ENDBRANCH   4  23
BRANCH   5  26
ATOM     26  C   UNL     1      -4.747  17.382  68.084  0.00  0.00    -0.001 C 
ATOM     27  C   UNL     1      -4.169  17.568  69.278  0.00  0.00    +0.007 C 
BRANCH  27  28
ATOM     28  C   UNL     1      -4.218  19.012  69.566  0.00  0.00    +0.044 A 
ATOM     29  C   UNL     1      -4.469  19.689  70.714  0.00  0.00    +0.066 A 
ATOM     30  C   UNL     1      -5.519  19.183  71.661  0.00  0.00    +0.053 C 
ATOM     31  N   UNL     1      -3.990  20.895  70.817  0.00  0.00    -0.241 NA
ATOM     32  C   UNL     1      -3.104  21.311  69.950  0.00  0.00    +0.134 A 
ATOM     33  S   UNL     1      -2.953  19.965  68.897  0.00  0.00    -0.065 S 
ENDBRANCH  27  28
ENDBRANCH   5  26
TORSDOF 7
ENDMDL
