MODEL 1
REMARK VINA RESULT:      -5.7      0.000      0.000
REMARK  Name = 
REMARK  4 active torsions:
REMARK  status: ('A' for Active; 'I' for Inactive)
REMARK    1  A    between atoms: C_2  and  C_4
REMARK    2  A    between atoms: C_4  and  C_5
REMARK    3  A    between atoms: C_8  and  C_9
REMARK    4  A    between atoms: C_9  and  C_11
REMARK                            x       y       z     vdW  Elec       q    Type
REMARK                         _______ _______ _______ _____ _____    ______ ____
ROOT
ATOM      1  C   UNL     1     -11.734  13.832  69.924  0.00  0.00    -0.022 A 
ATOM      2  C   UNL     1     -11.781  12.595  69.302  0.00  0.00    -0.005 A 
ATOM      3  C   UNL     1     -11.690  12.497  67.919  0.00  0.00    -0.004 A 
ATOM      4  C   UNL     1     -11.991  13.592  67.114  0.00  0.00    -0.012 A 
ATOM      5  C   UNL     1     -11.800  14.825  67.714  0.00  0.00    -0.004 A 
ATOM      6  C   UNL     1     -11.601  14.925  69.078  0.00  0.00    -0.005 A 
ENDROOT
BRANCH   4   7
ATOM      7  C   UNL     1     -11.228  13.524  65.674  0.00  0.00    +0.126 C 
ATOM      8  C   UNL     1     -10.997  15.168  65.658  0.00  0.00    +0.017 C 
BRANCH   7   9
ATOM      9  C   UNL     1     -12.635  13.666  64.864  0.00  0.00    +0.368 C 
ATOM     10  O   UNL     1     -13.157  12.400  64.580  0.00  0.00    -0.245 OA
ATOM     11  O   UNL     1     -12.489  14.430  63.863  0.00  0.00    -0.245 OA
ENDBRANCH   7   9
ENDBRANCH   4   7
BRANCH   1  12
ATOM     12  C   UNL     1     -12.464  13.966  71.222  0.00  0.00    +0.026 C 
BRANCH  12  14
ATOM     13  C   UNL     1     -12.639  15.854  72.311  0.00  0.00    +0.000 C 
ATOM     14  C   UNL     1     -13.048  15.353  71.400  0.00  0.00    +0.004 C 
ATOM     15  C   UNL     1     -14.543  15.148  71.608  0.00  0.00    +0.000 C 
ENDBRANCH  12  14
ENDBRANCH   1  12
TORSDOF 4
ENDMDL
MODEL 2
REMARK VINA RESULT:      -5.6      4.312      6.052
REMARK  Name = 
REMARK  4 active torsions:
REMARK  status: ('A' for Active; 'I' for Inactive)
REMARK    1  A    between atoms: C_2  and  C_4
REMARK    2  A    between atoms: C_4  and  C_5
REMARK    3  A    between atoms: C_8  and  C_9
REMARK    4  A    between atoms: C_9  and  C_11
REMARK                            x       y       z     vdW  Elec       q    Type
REMARK                         _______ _______ _______ _____ _____    ______ ____
ROOT
ATOM      1  C   UNL     1     -12.393  10.878  70.715  0.00  0.00    -0.022 A 
ATOM      2  C   UNL     1     -13.101  11.291  71.833  0.00  0.00    -0.005 A 
ATOM      3  C   UNL     1     -13.389  12.636  72.029  0.00  0.00    -0.004 A 
ATOM      4  C   UNL     1     -12.636  13.617  71.391  0.00  0.00    -0.012 A 
ATOM      5  C   UNL     1     -12.053  13.221  70.199  0.00  0.00    -0.004 A 
ATOM      6  C   UNL     1     -12.006  11.886  69.844  0.00  0.00    -0.005 A 
ENDROOT
BRANCH   4   7
ATOM      7  C   UNL     1     -13.472  15.003  71.195  0.00  0.00    +0.126 C 
ATOM      8  C   UNL     1     -12.272  15.657  70.251  0.00  0.00    +0.017 C 
BRANCH   7   9
ATOM      9  C   UNL     1     -12.825  15.645  72.546  0.00  0.00    +0.368 C 
ATOM     10  O   UNL     1     -13.826  16.226  73.330  0.00  0.00    -0.245 OA
ATOM     11  O   UNL     1     -11.858  16.408  72.248  0.00  0.00    -0.245 OA
ENDBRANCH   7   9
ENDBRANCH   4   7
BRANCH   1  12
ATOM     12  C   UNL     1     -11.565   9.642  70.855  0.00  0.00    +0.026 C 
BRANCH  12  14
ATOM     13  C   UNL     1     -11.208   8.230  72.487  0.00  0.00    +0.000 C 
ATOM     14  C   UNL     1     -12.055   8.761  71.988  0.00  0.00    +0.004 C 
ATOM     15  C   UNL     1     -12.949   7.713  71.338  0.00  0.00    +0.000 C 
ENDBRANCH  12  14
ENDBRANCH   1  12
TORSDOF 4
ENDMDL
MODEL 3
REMARK VINA RESULT:      -5.5      3.663      6.201
REMARK  Name = 
REMARK  4 active torsions:
REMARK  status: ('A' for Active; 'I' for Inactive)
REMARK    1  A    between atoms: C_2  and  C_4
REMARK    2  A    between atoms: C_4  and  C_5
REMARK    3  A    between atoms: C_8  and  C_9
REMARK    4  A    between atoms: C_9  and  C_11
REMARK                            x       y       z     vdW  Elec       q    Type
REMARK                         _______ _______ _______ _____ _____    ______ ____
ROOT
ATOM      1  C   UNL     1     -10.978  14.986  68.442  0.00  0.00    -0.022 A 
ATOM      2  C   UNL     1     -11.019  16.093  69.275  0.00  0.00    -0.005 A 
ATOM      3  C   UNL     1     -11.533  15.989  70.562  0.00  0.00    -0.004 A 
ATOM      4  C   UNL     1     -12.395  14.948  70.894  0.00  0.00    -0.012 A 
ATOM      5  C   UNL     1     -12.237  13.798  70.138  0.00  0.00    -0.004 A 
ATOM      6  C   UNL     1     -11.482  13.810  68.981  0.00  0.00    -0.005 A 
ENDROOT
BRANCH   4   7
ATOM      7  C   UNL     1     -12.358  14.603  72.487  0.00  0.00    +0.126 C 
ATOM      8  C   UNL     1     -13.787  13.761  72.394  0.00  0.00    +0.017 C 
BRANCH   7   9
ATOM      9  C   UNL     1     -13.140  15.985  72.857  0.00  0.00    +0.368 C 
ATOM     10  O   UNL     1     -12.902  16.331  74.190  0.00  0.00    -0.245 OA
ATOM     11  O   UNL     1     -14.362  15.897  72.528  0.00  0.00    -0.245 OA
ENDBRANCH   7   9
ENDBRANCH   4   7
BRANCH   1  12
ATOM     12  C   UNL     1     -11.064  15.241  66.972  0.00  0.00    +0.026 C 
BRANCH  12  14
ATOM     13  C   UNL     1     -10.381  13.905  65.381  0.00  0.00    +0.000 C 
ATOM     14  C   UNL     1     -11.159  13.951  66.181  0.00  0.00    +0.004 C 
ATOM     15  C   UNL     1     -12.525  13.981  65.507  0.00  0.00    +0.000 C 
ENDBRANCH  12  14
ENDBRANCH   1  12
TORSDOF 4
ENDMDL
MODEL 4
REMARK VINA RESULT:      -5.5      1.243      1.742
REMARK  Name = 
REMARK  4 active torsions:
REMARK  status: ('A' for Active; 'I' for Inactive)
REMARK    1  A    between atoms: C_2  and  C_4
REMARK    2  A    between atoms: C_4  and  C_5
REMARK    3  A    between atoms: C_8  and  C_9
REMARK    4  A    between atoms: C_9  and  C_11
REMARK                            x       y       z     vdW  Elec       q    Type
REMARK                         _______ _______ _______ _____ _____    ______ ____
ROOT
ATOM      1  C   UNL     1     -11.614  15.123  69.918  0.00  0.00    -0.022 A 
ATOM      2  C   UNL     1     -12.047  14.028  69.185  0.00  0.00    -0.005 A 
ATOM      3  C   UNL     1     -11.824  13.963  67.815  0.00  0.00    -0.004 A 
ATOM      4  C   UNL     1     -11.582  15.123  67.086  0.00  0.00    -0.012 A 
ATOM      5  C   UNL     1     -11.016  16.159  67.810  0.00  0.00    -0.004 A 
ATOM      6  C   UNL     1     -10.971  16.115  69.191  0.00  0.00    -0.005 A 
ENDROOT
BRANCH   4   7
ATOM      7  C   UNL     1     -10.725  14.829  65.730  0.00  0.00    +0.126 C 
ATOM      8  C   UNL     1      -9.852  16.230  65.913  0.00  0.00    +0.017 C 
BRANCH   7   9
ATOM      9  C   UNL     1     -11.834  15.584  64.804  0.00  0.00    +0.368 C 
ATOM     10  O   UNL     1     -12.507  14.655  64.005  0.00  0.00    -0.245 OA
ATOM     11  O   UNL     1     -11.298  16.549  64.180  0.00  0.00    -0.245 OA
ENDBRANCH   7   9
ENDBRANCH   4   7
BRANCH   1  12
ATOM     12  C   UNL     1     -12.397  15.471  71.142  0.00  0.00    +0.026 C 
BRANCH  12  14
ATOM     13  C   UNL     1     -14.531  15.208  71.546  0.00  0.00    +0.000 C 
ATOM     14  C   UNL     1     -13.629  14.600  71.289  0.00  0.00    +0.004 C 
ATOM     15  C   UNL     1     -13.340  13.672  72.462  0.00  0.00    +0.000 C 
ENDBRANCH  12  14
ENDBRANCH   1  12
TORSDOF 4
ENDMDL
MODEL 5
REMARK VINA RESULT:      -5.4      1.856      2.559
REMARK  Name = 
REMARK  4 active torsions:
REMARK  status: ('A' for Active; 'I' for Inactive)
REMARK    1  A    between atoms: C_2  and  C_4
REMARK    2  A    between atoms: C_4  and  C_5
REMARK    3  A    between atoms: C_8  and  C_9
REMARK    4  A    between atoms: C_9  and  C_11
REMARK                            x       y       z     vdW  Elec       q    Type
REMARK                         _______ _______ _______ _____ _____    ______ ____
ROOT
ATOM      1  C   UNL     1     -12.025  15.004  70.515  0.00  0.00    -0.022 A 
ATOM      2  C   UNL     1     -11.625  16.107  69.776  0.00  0.00    -0.005 A 
ATOM      3  C   UNL     1     -11.335  15.982  68.423  0.00  0.00    -0.004 A 
ATOM      4  C   UNL     1     -11.010  14.741  67.884  0.00  0.00    -0.012 A 
ATOM      5  C   UNL     1     -11.540  13.655  68.561  0.00  0.00    -0.004 A 
ATOM      6  C   UNL     1     -12.100  13.808  69.815  0.00  0.00    -0.005 A 
ENDROOT
BRANCH   4   7
ATOM      7  C   UNL     1     -11.350  14.654  66.292  0.00  0.00    +0.126 C 
ATOM      8  C   UNL     1     -10.176  13.504  66.049  0.00  0.00    +0.017 C 
BRANCH   7   9
ATOM      9  C   UNL     1     -10.308  15.859  65.950  0.00  0.00    +0.368 C 
ATOM     10  O   UNL     1     -10.755  16.582  64.841  0.00  0.00    -0.245 OA
ATOM     11  O   UNL     1      -9.127  15.405  65.863  0.00  0.00    -0.245 OA
ENDBRANCH   7   9
ENDBRANCH   4   7
BRANCH   1  12
ATOM     12  C   UNL     1     -11.689  15.007  71.971  0.00  0.00    +0.026 C 
BRANCH  12  14
ATOM     13  C   UNL     1     -12.508  15.735  73.864  0.00  0.00    +0.000 C 
ATOM     14  C   UNL     1     -12.631  15.891  72.765  0.00  0.00    +0.004 C 
ATOM     15  C   UNL     1     -14.036  15.444  72.382  0.00  0.00    +0.000 C 
ENDBRANCH  12  14
ENDBRANCH   1  12
TORSDOF 4
ENDMDL
MODEL 6
REMARK VINA RESULT:      -5.3      8.261      9.820
REMARK  Name = 
REMARK  4 active torsions:
REMARK  status: ('A' for Active; 'I' for Inactive)
REMARK    1  A    between atoms: C_2  and  C_4
REMARK    2  A    between atoms: C_4  and  C_5
REMARK    3  A    between atoms: C_8  and  C_9
REMARK    4  A    between atoms: C_9  and  C_11
REMARK                            x       y       z     vdW  Elec       q    Type
REMARK                         _______ _______ _______ _____ _____    ______ ____
ROOT
ATOM      1  C   UNL     1      -7.748  19.982  67.892  0.00  0.00    -0.022 A 
ATOM      2  C   UNL     1      -6.777  20.842  67.404  0.00  0.00    -0.005 A 
ATOM      3  C   UNL     1      -5.608  21.067  68.122  0.00  0.00    -0.004 A 
ATOM      4  C   UNL     1      -5.562  20.813  69.489  0.00  0.00    -0.012 A 
ATOM      5  C   UNL     1      -6.447  19.844  69.932  0.00  0.00    -0.004 A 
ATOM      6  C   UNL     1      -7.466  19.392  69.116  0.00  0.00    -0.005 A 
ENDROOT
BRANCH   4   7
ATOM      7  C   UNL     1      -4.048  20.494  70.004  0.00  0.00    +0.126 C 
ATOM      8  C   UNL     1      -4.386  18.876  70.167  0.00  0.00    +0.017 C 
BRANCH   7   9
ATOM      9  C   UNL     1      -4.458  20.785  71.554  0.00  0.00    +0.368 C 
ATOM     10  O   UNL     1      -4.456  22.161  71.802  0.00  0.00    -0.245 OA
ATOM     11  O   UNL     1      -3.739  20.091  72.335  0.00  0.00    -0.245 OA
ENDBRANCH   7   9
ENDBRANCH   4   7
BRANCH   1  12
ATOM     12  C   UNL     1      -9.161  20.262  67.496  0.00  0.00    +0.026 C 
BRANCH  12  14
ATOM     13  C   UNL     1     -10.426  19.740  65.789  0.00  0.00    +0.000 C 
ATOM     14  C   UNL     1      -9.661  19.276  66.457  0.00  0.00    +0.004 C 
ATOM     15  C   UNL     1     -10.338  18.160  67.241  0.00  0.00    +0.000 C 
ENDBRANCH  12  14
ENDBRANCH   1  12
TORSDOF 4
ENDMDL
MODEL 7
REMARK VINA RESULT:      -5.2      3.841      6.090
REMARK  Name = 
REMARK  4 active torsions:
REMARK  status: ('A' for Active; 'I' for Inactive)
REMARK    1  A    between atoms: C_2  and  C_4
REMARK    2  A    between atoms: C_4  and  C_5
REMARK    3  A    between atoms: C_8  and  C_9
REMARK    4  A    between atoms: C_9  and  C_11
REMARK                            x       y       z     vdW  Elec       q    Type
REMARK                         _______ _______ _______ _____ _____    ______ ____
ROOT
ATOM      1  C   UNL     1     -11.520  14.663  68.734  0.00  0.00    -0.022 A 
ATOM      2  C   UNL     1     -11.709  13.409  69.293  0.00  0.00    -0.005 A 
ATOM      3  C   UNL     1     -12.290  13.277  70.549  0.00  0.00    -0.004 A 
ATOM      4  C   UNL     1     -12.289  14.345  71.441  0.00  0.00    -0.012 A 
ATOM      5  C   UNL     1     -12.243  15.597  70.850  0.00  0.00    -0.004 A 
ATOM      6  C   UNL     1     -11.939  15.735  69.509  0.00  0.00    -0.005 A 
ENDROOT
BRANCH   4   7
ATOM      7  C   UNL     1     -13.517  14.254  72.510  0.00  0.00    +0.126 C 
ATOM      8  C   UNL     1     -14.550  15.036  71.472  0.00  0.00    +0.017 C 
BRANCH   7   9
ATOM      9  C   UNL     1     -13.079  15.659  73.211  0.00  0.00    +0.368 C 
ATOM     10  O   UNL     1     -12.393  15.409  74.403  0.00  0.00    -0.245 OA
ATOM     11  O   UNL     1     -14.082  16.428  73.312  0.00  0.00    -0.245 OA
ENDBRANCH   7   9
ENDBRANCH   4   7
BRANCH   1  12
ATOM     12  C   UNL     1     -10.374  14.817  67.788  0.00  0.00    +0.026 C 
BRANCH  12  14
ATOM     13  C   UNL     1     -10.504  15.851  65.865  0.00  0.00    +0.000 C 
ATOM     14  C   UNL     1     -10.493  16.080  66.958  0.00  0.00    +0.004 C 
ATOM     15  C   UNL     1      -9.237  16.889  67.256  0.00  0.00    +0.000 C 
ENDBRANCH  12  14
ENDBRANCH   1  12
TORSDOF 4
ENDMDL
MODEL 8
REMARK VINA RESULT:      -5.1      4.162      6.097
REMARK  Name = 
REMARK  4 active torsions:
REMARK  status: ('A' for Active; 'I' for Inactive)
REMARK    1  A    between atoms: C_2  and  C_4
REMARK    2  A    between atoms: C_4  and  C_5
REMARK    3  A    between atoms: C_8  and  C_9
REMARK    4  A    between atoms: C_9  and  C_11
REMARK                            x       y       z     vdW  Elec       q    Type
REMARK                         _______ _______ _______ _____ _____    ______ ____
ROOT
ATOM      1  C   UNL     1     -12.226  11.031  70.592  0.00  0.00    -0.022 A 
ATOM      2  C   UNL     1     -13.002  11.420  71.673  0.00  0.00    -0.005 A 
ATOM      3  C   UNL     1     -13.339  12.755  71.855  0.00  0.00    -0.004 A 
ATOM      4  C   UNL     1     -12.583  13.760  71.258  0.00  0.00    -0.012 A 
ATOM      5  C   UNL     1     -11.929  13.384  70.097  0.00  0.00    -0.004 A 
ATOM      6  C   UNL     1     -11.825  12.052  69.743  0.00  0.00    -0.005 A 
ENDROOT
BRANCH   4   7
ATOM      7  C   UNL     1     -13.449  15.121  71.021  0.00  0.00    +0.126 C 
ATOM      8  C   UNL     1     -12.096  15.964  70.552  0.00  0.00    +0.017 C 
BRANCH   7   9
ATOM      9  C   UNL     1     -13.254  15.577  72.573  0.00  0.00    +0.368 C 
ATOM     10  O   UNL     1     -14.333  16.367  72.982  0.00  0.00    -0.245 OA
ATOM     11  O   UNL     1     -12.109  16.096  72.736  0.00  0.00    -0.245 OA
ENDBRANCH   7   9
ENDBRANCH   4   7
BRANCH   1  12
ATOM     12  C   UNL     1     -11.371   9.819  70.773  0.00  0.00    +0.026 C 
BRANCH  12  14
ATOM     13  C   UNL     1     -10.780   8.731  68.971  0.00  0.00    +0.000 C 
ATOM     14  C   UNL     1     -10.448   9.598  69.591  0.00  0.00    +0.004 C 
ATOM     15  C   UNL     1      -9.089   9.256  70.188  0.00  0.00    +0.000 C 
ENDBRANCH  12  14
ENDBRANCH   1  12
TORSDOF 4
ENDMDL
MODEL 9
REMARK VINA RESULT:      -5.1      2.882      4.215
REMARK  Name = 
REMARK  4 active torsions:
REMARK  status: ('A' for Active; 'I' for Inactive)
REMARK    1  A    between atoms: C_2  and  C_4
REMARK    2  A    between atoms: C_4  and  C_5
REMARK    3  A    between atoms: C_8  and  C_9
REMARK    4  A    between atoms: C_9  and  C_11
REMARK                            x       y       z     vdW  Elec       q    Type
REMARK                         _______ _______ _______ _____ _____    ______ ____
ROOT
ATOM      1  C   UNL     1      -9.662  16.242  67.204  0.00  0.00    -0.022 A 
ATOM      2  C   UNL     1     -10.920  15.910  67.684  0.00  0.00    -0.005 A 
ATOM      3  C   UNL     1     -11.646  14.876  67.106  0.00  0.00    -0.004 A 
ATOM      4  C   UNL     1     -11.360  14.454  65.811  0.00  0.00    -0.012 A 
ATOM      5  C   UNL     1     -10.054  14.668  65.403  0.00  0.00    -0.004 A 
ATOM      6  C   UNL     1      -9.211  15.485  66.132  0.00  0.00    -0.005 A 
ENDROOT
BRANCH   4   7
ATOM      7  C   UNL     1     -11.799  12.903  65.560  0.00  0.00    +0.126 C 
ATOM      8  C   UNL     1     -10.238  12.464  65.199  0.00  0.00    +0.017 C 
BRANCH   7   9
ATOM      9  C   UNL     1     -12.130  13.197  63.991  0.00  0.00    +0.368 C 
ATOM     10  O   UNL     1     -12.735  14.449  63.854  0.00  0.00    -0.245 OA
ATOM     11  O   UNL     1     -12.772  12.225  63.490  0.00  0.00    -0.245 OA
ENDBRANCH   7   9
ENDBRANCH   4   7
BRANCH   1  12
ATOM     12  C   UNL     1      -9.232  17.664  67.359  0.00  0.00    +0.026 C 
BRANCH  12  14
ATOM     13  C   UNL     1     -10.389  19.023  66.096  0.00  0.00    +0.000 C 
ATOM     14  C   UNL     1     -10.381  18.628  67.141  0.00  0.00    +0.004 C 
ATOM     15  C   UNL     1     -10.123  19.798  68.083  0.00  0.00    +0.000 C 
ENDBRANCH  12  14
ENDBRANCH   1  12
TORSDOF 4
ENDMDL
