MODEL 1
REMARK VINA RESULT:      -4.1      0.000      0.000
REMARK  Name = 
REMARK  3 active torsions:
REMARK  status: ('A' for Active; 'I' for Inactive)
REMARK    1  A    between atoms: CG1_2  and  CB_3
REMARK    2  A    between atoms: CB_3  and  CA_5
REMARK    3  A    between atoms: CA_5  and  C_7
REMARK                            x       y       z     vdW  Elec       q    Type
REMARK                         _______ _______ _______ _____ _____    ______ ____
ROOT
ATOM      1  CA  ILE A   1     -11.750  14.495  65.320  0.00  0.00    +0.194 C 
ATOM      2  N   ILE A   1     -12.576  14.633  63.995  0.00  0.00    -0.121 NA
ENDROOT
BRANCH   1   3
ATOM      3  C   ILE A   1     -10.941  15.860  65.134  0.00  0.00    +0.382 C 
ATOM      4  OXT ILE A   1     -11.241  16.783  64.218  0.00  0.00    -0.244 OA
ATOM      5  O   ILE A   1     -10.606  16.248  66.296  0.00  0.00    -0.244 OA
ENDBRANCH   1   3
BRANCH   1   6
ATOM      6  CB  ILE A   1     -10.590  13.526  64.534  0.00  0.00    +0.029 C 
ATOM      7  CG2 ILE A   1      -9.877  12.970  65.875  0.00  0.00    +0.002 C 
BRANCH   6   9
ATOM      8  CD1 ILE A   1     -11.049  11.348  63.728  0.00  0.00    +0.000 C 
ATOM      9  CG1 ILE A   1     -11.619  12.277  64.483  0.00  0.00    +0.002 C 
ENDBRANCH   6   9
ENDBRANCH   1   6
TORSDOF 3
ENDMDL
MODEL 2
REMARK VINA RESULT:      -4.1      6.874      7.516
REMARK  Name = 
REMARK  3 active torsions:
REMARK  status: ('A' for Active; 'I' for Inactive)
REMARK    1  A    between atoms: CG1_2  and  CB_3
REMARK    2  A    between atoms: CB_3  and  CA_5
REMARK    3  A    between atoms: CA_5  and  C_7
REMARK                            x       y       z     vdW  Elec       q    Type
REMARK                         _______ _______ _______ _____ _____    ______ ____
ROOT
ATOM      1  CA  ILE A   1     -12.719  14.423  72.478  0.00  0.00    +0.194 C 
ATOM      2  N   ILE A   1     -14.174  13.841  72.426  0.00  0.00    -0.121 NA
ENDROOT
BRANCH   1   3
ATOM      3  C   ILE A   1     -13.131  15.789  73.196  0.00  0.00    +0.382 C 
ATOM      4  OXT ILE A   1     -14.338  16.351  73.090  0.00  0.00    -0.244 OA
ATOM      5  O   ILE A   1     -12.560  15.793  74.330  0.00  0.00    -0.244 OA
ENDBRANCH   1   3
BRANCH   1   6
ATOM      6  CB  ILE A   1     -12.874  15.035  70.894  0.00  0.00    +0.029 C 
ATOM      7  CG2 ILE A   1     -11.478  15.851  70.877  0.00  0.00    +0.002 C 
BRANCH   6   9
ATOM      8  CD1 ILE A   1     -11.992  13.945  68.988  0.00  0.00    +0.000 C 
ATOM      9  CG1 ILE A   1     -12.183  13.707  70.278  0.00  0.00    +0.002 C 
ENDBRANCH   6   9
ENDBRANCH   1   6
TORSDOF 3
ENDMDL
MODEL 3
REMARK VINA RESULT:      -4.0      2.002      2.571
REMARK  Name = 
REMARK  3 active torsions:
REMARK  status: ('A' for Active; 'I' for Inactive)
REMARK    1  A    between atoms: CG1_2  and  CB_3
REMARK    2  A    between atoms: CB_3  and  CA_5
REMARK    3  A    between atoms: CA_5  and  C_7
REMARK                            x       y       z     vdW  Elec       q    Type
REMARK                         _______ _______ _______ _____ _____    ______ ____
ROOT
ATOM      1  CA  ILE A   1     -10.523  14.835  65.046  0.00  0.00    +0.194 C 
ATOM      2  N   ILE A   1      -9.299  15.118  65.984  0.00  0.00    -0.121 NA
ENDROOT
BRANCH   1   3
ATOM      3  C   ILE A   1     -11.029  16.349  65.001  0.00  0.00    +0.382 C 
ATOM      4  OXT ILE A   1     -10.369  17.371  65.552  0.00  0.00    -0.244 OA
ATOM      5  O   ILE A   1     -11.570  16.521  63.865  0.00  0.00    -0.244 OA
ENDBRANCH   1   3
BRANCH   1   6
ATOM      6  CB  ILE A   1     -11.486  14.396  66.382  0.00  0.00    +0.029 C 
ATOM      7  CG2 ILE A   1     -12.767  13.900  65.529  0.00  0.00    +0.002 C 
BRANCH   6   9
ATOM      8  CD1 ILE A   1     -11.511  12.219  67.312  0.00  0.00    +0.000 C 
ATOM      9  CG1 ILE A   1     -10.840  12.911  66.401  0.00  0.00    +0.002 C 
ENDBRANCH   6   9
ENDBRANCH   1   6
TORSDOF 3
ENDMDL
MODEL 4
REMARK VINA RESULT:      -4.0      2.727      3.604
REMARK  Name = 
REMARK  3 active torsions:
REMARK  status: ('A' for Active; 'I' for Inactive)
REMARK    1  A    between atoms: CG1_2  and  CB_3
REMARK    2  A    between atoms: CB_3  and  CA_5
REMARK    3  A    between atoms: CA_5  and  C_7
REMARK                            x       y       z     vdW  Elec       q    Type
REMARK                         _______ _______ _______ _____ _____    ______ ____
ROOT
ATOM      1  CA  ILE A   1     -11.337  13.611  64.599  0.00  0.00    +0.194 C 
ATOM      2  N   ILE A   1     -12.551  14.449  64.068  0.00  0.00    -0.121 NA
ENDROOT
BRANCH   1   3
ATOM      3  C   ILE A   1     -11.712  12.282  63.796  0.00  0.00    +0.382 C 
ATOM      4  OXT ILE A   1     -12.902  12.066  63.230  0.00  0.00    -0.244 OA
ATOM      5  O   ILE A   1     -10.669  11.929  63.164  0.00  0.00    -0.244 OA
ENDBRANCH   1   3
BRANCH   1   6
ATOM      6  CB  ILE A   1     -12.206  13.186  66.003  0.00  0.00    +0.029 C 
ATOM      7  CG2 ILE A   1     -11.081  12.205  66.623  0.00  0.00    +0.002 C 
BRANCH   6   9
ATOM      8  CD1 ILE A   1     -11.855  14.261  68.083  0.00  0.00    +0.000 C 
ATOM      9  CG1 ILE A   1     -11.618  14.470  66.795  0.00  0.00    +0.002 C 
ENDBRANCH   6   9
ENDBRANCH   1   6
TORSDOF 3
ENDMDL
MODEL 5
REMARK VINA RESULT:      -3.9      1.776      2.053
REMARK  Name = 
REMARK  3 active torsions:
REMARK  status: ('A' for Active; 'I' for Inactive)
REMARK    1  A    between atoms: CG1_2  and  CB_3
REMARK    2  A    between atoms: CB_3  and  CA_5
REMARK    3  A    between atoms: CA_5  and  C_7
REMARK                            x       y       z     vdW  Elec       q    Type
REMARK                         _______ _______ _______ _____ _____    ______ ____
ROOT
ATOM      1  CA  ILE A   1     -12.130  12.413  64.839  0.00  0.00    +0.194 C 
ATOM      2  N   ILE A   1     -12.691  12.356  63.376  0.00  0.00    -0.121 NA
ENDROOT
BRANCH   1   3
ATOM      3  C   ILE A   1     -12.248  13.999  64.982  0.00  0.00    +0.382 C 
ATOM      4  OXT ILE A   1     -12.658  14.806  64.000  0.00  0.00    -0.244 OA
ATOM      5  O   ILE A   1     -12.652  14.232  66.163  0.00  0.00    -0.244 OA
ENDBRANCH   1   3
BRANCH   1   6
ATOM      6  CB  ILE A   1     -10.528  12.434  64.257  0.00  0.00    +0.029 C 
ATOM      7  CG2 ILE A   1      -9.808  12.377  65.704  0.00  0.00    +0.002 C 
BRANCH   6   9
ATOM      8  CD1 ILE A   1      -9.578  10.522  63.235  0.00  0.00    +0.000 C 
ATOM      9  CG1 ILE A   1     -10.523  10.821  64.116  0.00  0.00    +0.002 C 
ENDBRANCH   6   9
ENDBRANCH   1   6
TORSDOF 3
ENDMDL
MODEL 6
REMARK VINA RESULT:      -3.9      9.808     10.759
REMARK  Name = 
REMARK  3 active torsions:
REMARK  status: ('A' for Active; 'I' for Inactive)
REMARK    1  A    between atoms: CG1_2  and  CB_3
REMARK    2  A    between atoms: CB_3  and  CA_5
REMARK    3  A    between atoms: CA_5  and  C_7
REMARK                            x       y       z     vdW  Elec       q    Type
REMARK                         _______ _______ _______ _____ _____    ______ ____
ROOT
ATOM      1  CA  ILE A   1      -5.050  19.947  71.023  0.00  0.00    +0.194 C 
ATOM      2  N   ILE A   1      -6.362  20.547  71.638  0.00  0.00    -0.121 NA
ENDROOT
BRANCH   1   3
ATOM      3  C   ILE A   1      -4.058  20.913  71.819  0.00  0.00    +0.382 C 
ATOM      4  OXT ILE A   1      -4.416  22.100  72.316  0.00  0.00    -0.244 OA
ATOM      5  O   ILE A   1      -3.302  20.169  72.516  0.00  0.00    -0.244 OA
ENDBRANCH   1   3
BRANCH   1   6
ATOM      6  CB  ILE A   1      -5.187  20.962  69.661  0.00  0.00    +0.029 C 
ATOM      7  CG2 ILE A   1      -3.926  20.351  68.852  0.00  0.00    +0.002 C 
BRANCH   6   9
ATOM      8  CD1 ILE A   1      -6.542  20.464  67.785  0.00  0.00    +0.000 C 
ATOM      9  CG1 ILE A   1      -6.221  19.934  68.957  0.00  0.00    +0.002 C 
ENDBRANCH   6   9
ENDBRANCH   1   6
TORSDOF 3
ENDMDL
MODEL 7
REMARK VINA RESULT:      -3.9      7.021      8.001
REMARK  Name = 
REMARK  3 active torsions:
REMARK  status: ('A' for Active; 'I' for Inactive)
REMARK    1  A    between atoms: CG1_2  and  CB_3
REMARK    2  A    between atoms: CB_3  and  CA_5
REMARK    3  A    between atoms: CA_5  and  C_7
REMARK                            x       y       z     vdW  Elec       q    Type
REMARK                         _______ _______ _______ _____ _____    ______ ____
ROOT
ATOM      1  CA  ILE A   1     -13.310  14.306  71.364  0.00  0.00    +0.194 C 
ATOM      2  N   ILE A   1     -13.716  13.226  72.424  0.00  0.00    -0.121 NA
ENDROOT
BRANCH   1   3
ATOM      3  C   ILE A   1     -12.358  13.338  70.523  0.00  0.00    +0.382 C 
ATOM      4  OXT ILE A   1     -12.264  12.023  70.730  0.00  0.00    -0.244 OA
ATOM      5  O   ILE A   1     -12.370  13.762  69.326  0.00  0.00    -0.244 OA
ENDBRANCH   1   3
BRANCH   1   6
ATOM      6  CB  ILE A   1     -12.071  14.885  72.382  0.00  0.00    +0.029 C 
ATOM      7  CG2 ILE A   1     -11.719  16.201  71.511  0.00  0.00    +0.002 C 
BRANCH   6   9
ATOM      8  CD1 ILE A   1     -12.520  16.026  74.407  0.00  0.00    +0.000 C 
ATOM      9  CG1 ILE A   1     -13.146  15.690  73.287  0.00  0.00    +0.002 C 
ENDBRANCH   6   9
ENDBRANCH   1   6
TORSDOF 3
ENDMDL
MODEL 8
REMARK VINA RESULT:      -3.9      2.183      3.087
REMARK  Name = 
REMARK  3 active torsions:
REMARK  status: ('A' for Active; 'I' for Inactive)
REMARK    1  A    between atoms: CG1_2  and  CB_3
REMARK    2  A    between atoms: CB_3  and  CA_5
REMARK    3  A    between atoms: CA_5  and  C_7
REMARK                            x       y       z     vdW  Elec       q    Type
REMARK                         _______ _______ _______ _____ _____    ______ ____
ROOT
ATOM      1  CA  ILE A   1     -10.816  14.391  64.992  0.00  0.00    +0.194 C 
ATOM      2  N   ILE A   1     -10.206  15.828  65.140  0.00  0.00    -0.121 NA
ENDROOT
BRANCH   1   3
ATOM      3  C   ILE A   1     -12.160  14.873  64.276  0.00  0.00    +0.382 C 
ATOM      4  OXT ILE A   1     -12.369  16.121  63.851  0.00  0.00    -0.244 OA
ATOM      5  O   ILE A   1     -12.550  13.912  63.544  0.00  0.00    -0.244 OA
ENDBRANCH   1   3
BRANCH   1   6
ATOM      6  CB  ILE A   1     -11.454  14.466  66.572  0.00  0.00    +0.029 C 
ATOM      7  CG2 ILE A   1     -11.883  12.910  66.668  0.00  0.00    +0.002 C 
BRANCH   6   9
ATOM      8  CD1 ILE A   1     -10.184  13.971  68.507  0.00  0.00    +0.000 C 
ATOM      9  CG1 ILE A   1      -9.995  14.173  67.210  0.00  0.00    +0.002 C 
ENDBRANCH   6   9
ENDBRANCH   1   6
TORSDOF 3
ENDMDL
MODEL 9
REMARK VINA RESULT:      -3.8      6.240      6.866
REMARK  Name = 
REMARK  3 active torsions:
REMARK  status: ('A' for Active; 'I' for Inactive)
REMARK    1  A    between atoms: CG1_2  and  CB_3
REMARK    2  A    between atoms: CB_3  and  CA_5
REMARK    3  A    between atoms: CA_5  and  C_7
REMARK                            x       y       z     vdW  Elec       q    Type
REMARK                         _______ _______ _______ _____ _____    ______ ____
ROOT
ATOM      1  CA  ILE A   1     -13.069  15.363  70.910  0.00  0.00    +0.194 C 
ATOM      2  N   ILE A   1     -11.841  16.253  70.514  0.00  0.00    -0.121 NA
ENDROOT
BRANCH   1   3
ATOM      3  C   ILE A   1     -13.084  15.804  72.445  0.00  0.00    +0.382 C 
ATOM      4  OXT ILE A   1     -12.104  16.499  73.028  0.00  0.00    -0.244 OA
ATOM      5  O   ILE A   1     -14.286  16.097  72.731  0.00  0.00    -0.244 OA
ENDBRANCH   1   3
BRANCH   1   6
ATOM      6  CB  ILE A   1     -12.053  14.015  71.152  0.00  0.00    +0.029 C 
ATOM      7  CG2 ILE A   1     -13.216  12.992  71.617  0.00  0.00    +0.002 C 
BRANCH   6   9
ATOM      8  CD1 ILE A   1     -11.760  12.336  69.510  0.00  0.00    +0.000 C 
ATOM      9  CG1 ILE A   1     -12.201  13.583  69.599  0.00  0.00    +0.002 C 
ENDBRANCH   6   9
ENDBRANCH   1   6
TORSDOF 3
ENDMDL
