MODEL 1
REMARK VINA RESULT:      -7.5      0.000      0.000
REMARK  Name = 
REMARK  3 active torsions:
REMARK  status: ('A' for Active; 'I' for Inactive)
REMARK    1  A    between atoms: N_10  and  N_11
REMARK    2  A    between atoms: C_12  and  C_14
REMARK    3  A    between atoms: C_19  and  S_20
REMARK                            x       y       z     vdW  Elec       q    Type
REMARK                         _______ _______ _______ _____ _____    ______ ____
ROOT
ATOM      1  N   UNL     1     -11.734  11.708  70.242  0.00  0.00    -0.106 NA
ATOM      2  C   UNL     1     -11.913  12.079  68.874  0.00  0.00    +0.283 C 
ATOM      3  O   UNL     1     -12.177  11.207  68.022  0.00  0.00    -0.267 OA
ENDROOT
BRANCH   1   6
ATOM      4  C   UNL     1     -10.587   8.588  69.300  0.00  0.00    +0.024 C 
ATOM      5  C   UNL     1     -10.071   9.740  70.362  0.00  0.00    +0.099 C 
ATOM      6  N   UNL     1     -11.513  10.358  70.503  0.00  0.00    -0.219 N 
ATOM      7  C   UNL     1     -12.338   9.339  70.978  0.00  0.00    +0.063 A 
ATOM      8  C   UNL     1     -11.636   8.228  71.359  0.00  0.00    -0.006 A 
ATOM      9  C   UNL     1     -12.332   7.115  71.726  0.00  0.00    -0.003 A 
ATOM     10  C   UNL     1     -13.713   7.125  71.706  0.00  0.00    -0.000 A 
ATOM     11  C   UNL     1     -14.351   8.350  71.867  0.00  0.00    +0.001 A 
ATOM     12  C   UNL     1     -13.687   9.434  71.308  0.00  0.00    +0.016 A 
ATOM     13  C   UNL     1     -10.279   8.749  71.659  0.00  0.00    +0.049 C 
ENDBRANCH   1   6
BRANCH   2  14
ATOM     14  C   UNL     1     -11.746  13.463  68.486  0.00  0.00    +0.058 A 
ATOM     15  C   UNL     1     -11.285  13.824  67.230  0.00  0.00    +0.025 A 
ATOM     16  C   UNL     1     -10.806  15.095  67.027  0.00  0.00    +0.136 A 
ATOM     17  C   UNL     1     -11.061  16.041  68.000  0.00  0.00    +0.076 A 
ATOM     18 CL   UNL     1     -10.397  17.659  67.825  0.00  0.00    -0.081 Cl
ATOM     19  C   UNL     1     -11.845  15.731  69.092  0.00  0.00    +0.013 A 
ATOM     20  C   UNL     1     -12.166  14.432  69.375  0.00  0.00    +0.006 A 
BRANCH  16  21
ATOM     21  S   UNL     1     -10.191  15.638  65.479  0.00  0.00    +0.094 S 
ATOM     22  O   UNL     1     -10.111  14.433  64.568  0.00  0.00    -0.150 OA
ATOM     23  O   UNL     1      -8.821  16.228  65.669  0.00  0.00    -0.150 OA
ATOM     24  N   UNL     1     -11.275  16.776  64.778  0.00  0.00    +0.039 NA
ENDBRANCH  16  21
ENDBRANCH   2  14
TORSDOF 3
ENDMDL
MODEL 2
REMARK VINA RESULT:      -7.3      4.437      9.069
REMARK  Name = 
REMARK  3 active torsions:
REMARK  status: ('A' for Active; 'I' for Inactive)
REMARK    1  A    between atoms: N_10  and  N_11
REMARK    2  A    between atoms: C_12  and  C_14
REMARK    3  A    between atoms: C_19  and  S_20
REMARK                            x       y       z     vdW  Elec       q    Type
REMARK                         _______ _______ _______ _____ _____    ______ ____
ROOT
ATOM      1  N   UNL     1     -10.194  17.061  69.136  0.00  0.00    -0.106 NA
ATOM      2  C   UNL     1     -10.350  15.779  68.525  0.00  0.00    +0.283 C 
ATOM      3  O   UNL     1      -9.806  15.543  67.427  0.00  0.00    -0.267 OA
ENDROOT
BRANCH   1   6
ATOM      4  C   UNL     1      -9.970  18.613  66.058  0.00  0.00    +0.024 C 
ATOM      5  C   UNL     1     -10.761  18.944  67.467  0.00  0.00    +0.099 C 
ATOM      6  N   UNL     1      -9.744  18.096  68.320  0.00  0.00    -0.219 N 
ATOM      7  C   UNL     1      -8.485  18.661  68.116  0.00  0.00    +0.063 A 
ATOM      8  C   UNL     1      -8.545  19.849  67.440  0.00  0.00    -0.006 A 
ATOM      9  C   UNL     1      -7.375  20.442  67.067  0.00  0.00    -0.003 A 
ATOM     10  C   UNL     1      -6.168  19.844  67.372  0.00  0.00    -0.000 A 
ATOM     11  C   UNL     1      -6.126  19.007  68.482  0.00  0.00    +0.001 A 
ATOM     12  C   UNL     1      -7.286  18.279  68.711  0.00  0.00    +0.016 A 
ATOM     13  C   UNL     1      -9.920  20.340  67.702  0.00  0.00    +0.049 C 
ENDBRANCH   1   6
BRANCH   2  14
ATOM     14  C   UNL     1     -11.171  14.779  69.172  0.00  0.00    +0.058 A 
ATOM     15  C   UNL     1     -12.010  15.089  70.230  0.00  0.00    +0.025 A 
ATOM     16  C   UNL     1     -12.484  14.081  71.033  0.00  0.00    +0.136 A 
ATOM     17  C   UNL     1     -12.335  12.781  70.589  0.00  0.00    +0.076 A 
ATOM     18 CL   UNL     1     -12.850  11.453  71.619  0.00  0.00    -0.081 Cl
ATOM     19  C   UNL     1     -11.805  12.523  69.342  0.00  0.00    +0.013 A 
ATOM     20  C   UNL     1     -11.178  13.508  68.630  0.00  0.00    +0.006 A 
BRANCH  16  21
ATOM     21  S   UNL     1     -13.538  14.377  72.401  0.00  0.00    +0.094 S 
ATOM     22  O   UNL     1     -12.681  14.389  73.647  0.00  0.00    -0.150 OA
ATOM     23  O   UNL     1     -14.557  13.273  72.490  0.00  0.00    -0.150 OA
ATOM     24  N   UNL     1     -14.291  15.916  72.245  0.00  0.00    +0.039 NA
ENDBRANCH  16  21
ENDBRANCH   2  14
TORSDOF 3
ENDMDL
MODEL 3
REMARK VINA RESULT:      -7.2      4.273      8.939
REMARK  Name = 
REMARK  3 active torsions:
REMARK  status: ('A' for Active; 'I' for Inactive)
REMARK    1  A    between atoms: N_10  and  N_11
REMARK    2  A    between atoms: C_12  and  C_14
REMARK    3  A    between atoms: C_19  and  S_20
REMARK                            x       y       z     vdW  Elec       q    Type
REMARK                         _______ _______ _______ _____ _____    ______ ____
ROOT
ATOM      1  N   UNL     1      -9.913  16.722  68.627  0.00  0.00    -0.106 NA
ATOM      2  C   UNL     1     -10.572  15.617  68.007  0.00  0.00    +0.283 C 
ATOM      3  O   UNL     1     -10.518  15.475  66.768  0.00  0.00    -0.267 OA
ENDROOT
BRANCH   1   6
ATOM      4  C   UNL     1     -10.560  18.903  66.027  0.00  0.00    +0.024 C 
ATOM      5  C   UNL     1     -10.460  19.052  67.667  0.00  0.00    +0.099 C 
ATOM      6  N   UNL     1      -9.543  17.778  67.798  0.00  0.00    -0.219 N 
ATOM      7  C   UNL     1      -8.402  18.029  67.037  0.00  0.00    +0.063 A 
ATOM      8  C   UNL     1      -8.333  19.324  66.602  0.00  0.00    -0.006 A 
ATOM      9  C   UNL     1      -7.330  19.668  65.746  0.00  0.00    -0.003 A 
ATOM     10  C   UNL     1      -6.414  18.719  65.335  0.00  0.00    -0.000 A 
ATOM     11  C   UNL     1      -6.178  17.643  66.183  0.00  0.00    +0.001 A 
ATOM     12  C   UNL     1      -7.286  17.208  66.900  0.00  0.00    +0.016 A 
ATOM     13  C   UNL     1      -9.170  20.071  67.573  0.00  0.00    +0.049 C 
ENDBRANCH   1   6
BRANCH   2  14
ATOM     14  C   UNL     1     -11.330  14.692  68.823  0.00  0.00    +0.058 A 
ATOM     15  C   UNL     1     -12.112  15.120  69.883  0.00  0.00    +0.025 A 
ATOM     16  C   UNL     1     -12.514  14.213  70.833  0.00  0.00    +0.136 A 
ATOM     17  C   UNL     1     -12.359  12.870  70.547  0.00  0.00    +0.076 A 
ATOM     18 CL   UNL     1     -12.780  11.675  71.765  0.00  0.00    -0.081 Cl
ATOM     19  C   UNL     1     -11.897  12.466  69.312  0.00  0.00    +0.013 A 
ATOM     20  C   UNL     1     -11.338  13.364  68.446  0.00  0.00    +0.006 A 
BRANCH  16  21
ATOM     21  S   UNL     1     -13.493  14.661  72.215  0.00  0.00    +0.094 S 
ATOM     22  O   UNL     1     -14.469  13.535  72.472  0.00  0.00    -0.150 OA
ATOM     23  O   UNL     1     -14.243  15.928  71.902  0.00  0.00    -0.150 OA
ATOM     24  N   UNL     1     -12.500  14.847  73.609  0.00  0.00    +0.039 NA
ENDBRANCH  16  21
ENDBRANCH   2  14
TORSDOF 3
ENDMDL
MODEL 4
REMARK VINA RESULT:      -7.2      4.146      8.383
REMARK  Name = 
REMARK  3 active torsions:
REMARK  status: ('A' for Active; 'I' for Inactive)
REMARK    1  A    between atoms: N_10  and  N_11
REMARK    2  A    between atoms: C_12  and  C_14
REMARK    3  A    between atoms: C_19  and  S_20
REMARK                            x       y       z     vdW  Elec       q    Type
REMARK                         _______ _______ _______ _____ _____    ______ ____
ROOT
ATOM      1  N   UNL     1      -9.132  15.385  68.890  0.00  0.00    -0.106 NA
ATOM      2  C   UNL     1     -10.146  14.626  68.231  0.00  0.00    +0.283 C 
ATOM      3  O   UNL     1     -10.255  14.678  66.989  0.00  0.00    -0.267 OA
ENDROOT
BRANCH   1   6
ATOM      4  C   UNL     1      -6.512  17.553  68.279  0.00  0.00    +0.024 C 
ATOM      5  C   UNL     1      -7.121  16.226  67.511  0.00  0.00    +0.099 C 
ATOM      6  N   UNL     1      -8.544  16.415  68.160  0.00  0.00    -0.219 N 
ATOM      7  C   UNL     1      -8.996  17.675  67.768  0.00  0.00    +0.063 A 
ATOM      8  C   UNL     1      -8.199  18.247  66.815  0.00  0.00    -0.006 A 
ATOM      9  C   UNL     1      -8.460  19.531  66.436  0.00  0.00    -0.003 A 
ATOM     10  C   UNL     1      -9.507  20.223  67.012  0.00  0.00    -0.000 A 
ATOM     11  C   UNL     1     -10.574  19.481  67.507  0.00  0.00    +0.001 A 
ATOM     12  C   UNL     1     -10.230  18.253  68.056  0.00  0.00    +0.016 A 
ATOM     13  C   UNL     1      -7.527  17.092  66.171  0.00  0.00    +0.049 C 
ENDBRANCH   1   6
BRANCH   2  14
ATOM     14  C   UNL     1     -11.064  13.831  69.019  0.00  0.00    +0.058 A 
ATOM     15  C   UNL     1     -11.862  14.392  70.003  0.00  0.00    +0.025 A 
ATOM     16  C   UNL     1     -12.435  13.578  70.950  0.00  0.00    +0.136 A 
ATOM     17  C   UNL     1     -12.422  12.216  70.722  0.00  0.00    +0.076 A 
ATOM     18 CL   UNL     1     -13.067  11.130  71.944  0.00  0.00    -0.081 Cl
ATOM     19  C   UNL     1     -11.926  11.709  69.539  0.00  0.00    +0.013 A 
ATOM     20  C   UNL     1     -11.204  12.498  68.687  0.00  0.00    +0.006 A 
BRANCH  16  21
ATOM     21  S   UNL     1     -13.447  14.196  72.240  0.00  0.00    +0.094 S 
ATOM     22  O   UNL     1     -12.617  14.220  73.504  0.00  0.00    -0.150 OA
ATOM     23  O   UNL     1     -14.631  13.286  72.421  0.00  0.00    -0.150 OA
ATOM     24  N   UNL     1     -13.941  15.806  71.885  0.00  0.00    +0.039 NA
ENDBRANCH  16  21
ENDBRANCH   2  14
TORSDOF 3
ENDMDL
MODEL 5
REMARK VINA RESULT:      -7.1      3.471      5.106
REMARK  Name = 
REMARK  3 active torsions:
REMARK  status: ('A' for Active; 'I' for Inactive)
REMARK    1  A    between atoms: N_10  and  N_11
REMARK    2  A    between atoms: C_12  and  C_14
REMARK    3  A    between atoms: C_19  and  S_20
REMARK                            x       y       z     vdW  Elec       q    Type
REMARK                         _______ _______ _______ _____ _____    ______ ____
ROOT
ATOM      1  N   UNL     1     -11.535  16.102  69.258  0.00  0.00    -0.106 NA
ATOM      2  C   UNL     1     -10.111  16.195  69.180  0.00  0.00    +0.283 C 
ATOM      3  O   UNL     1      -9.400  15.346  69.756  0.00  0.00    -0.267 OA
ENDROOT
BRANCH   1   6
ATOM      4  C   UNL     1     -11.750  15.116  72.562  0.00  0.00    +0.024 C 
ATOM      5  C   UNL     1     -12.754  15.913  71.522  0.00  0.00    +0.099 C 
ATOM      6  N   UNL     1     -12.058  15.285  70.257  0.00  0.00    -0.219 N 
ATOM      7  C   UNL     1     -12.188  13.902  70.376  0.00  0.00    +0.063 A 
ATOM      8  C   UNL     1     -13.023  13.538  71.397  0.00  0.00    -0.006 A 
ATOM      9  C   UNL     1     -13.139  12.214  71.699  0.00  0.00    -0.003 A 
ATOM     10  C   UNL     1     -12.422  11.275  70.983  0.00  0.00    -0.000 A 
ATOM     11  C   UNL     1     -12.065  11.596  69.677  0.00  0.00    +0.001 A 
ATOM     12  C   UNL     1     -11.773  12.936  69.462  0.00  0.00    +0.016 A 
ATOM     13  C   UNL     1     -13.892  14.725  71.588  0.00  0.00    +0.049 C 
ENDBRANCH   1   6
BRANCH   2  14
ATOM     14  C   UNL     1      -9.509  17.298  68.463  0.00  0.00    +0.058 A 
ATOM     15  C   UNL     1      -8.355  17.144  67.713  0.00  0.00    +0.025 A 
ATOM     16  C   UNL     1      -7.630  18.254  67.355  0.00  0.00    +0.136 A 
ATOM     17  C   UNL     1      -8.224  19.490  67.516  0.00  0.00    +0.076 A 
ATOM     18 CL   UNL     1      -7.305  20.943  67.152  0.00  0.00    -0.081 Cl
ATOM     19  C   UNL     1      -9.533  19.588  67.940  0.00  0.00    +0.013 A 
ATOM     20  C   UNL     1     -10.184  18.503  68.458  0.00  0.00    +0.006 A 
BRANCH  16  21
ATOM     21  S   UNL     1      -6.152  18.157  66.419  0.00  0.00    +0.094 S 
ATOM     22  O   UNL     1      -5.744  16.702  66.352  0.00  0.00    -0.150 OA
ATOM     23  O   UNL     1      -5.078  18.959  67.103  0.00  0.00    -0.150 OA
ATOM     24  N   UNL     1      -6.429  18.717  64.816  0.00  0.00    +0.039 NA
ENDBRANCH  16  21
ENDBRANCH   2  14
TORSDOF 3
ENDMDL
MODEL 6
REMARK VINA RESULT:      -7.0      4.531      7.671
REMARK  Name = 
REMARK  3 active torsions:
REMARK  status: ('A' for Active; 'I' for Inactive)
REMARK    1  A    between atoms: N_10  and  N_11
REMARK    2  A    between atoms: C_12  and  C_14
REMARK    3  A    between atoms: C_19  and  S_20
REMARK                            x       y       z     vdW  Elec       q    Type
REMARK                         _______ _______ _______ _____ _____    ______ ____
ROOT
ATOM      1  N   UNL     1     -12.060  11.761  67.103  0.00  0.00    -0.106 NA
ATOM      2  C   UNL     1     -11.132  11.734  68.189  0.00  0.00    +0.283 C 
ATOM      3  O   UNL     1      -9.992  12.220  68.045  0.00  0.00    -0.267 OA
ENDROOT
BRANCH   1   6
ATOM      4  C   UNL     1     -12.450  12.612  63.778  0.00  0.00    +0.024 C 
ATOM      5  C   UNL     1     -11.820  13.369  65.102  0.00  0.00    +0.099 C 
ATOM      6  N   UNL     1     -11.538  12.004  65.836  0.00  0.00    -0.219 N 
ATOM      7  C   UNL     1     -10.677  11.279  65.012  0.00  0.00    +0.063 A 
ATOM      8  C   UNL     1     -10.195  12.023  63.970  0.00  0.00    -0.006 A 
ATOM      9  C   UNL     1      -9.441  11.399  63.021  0.00  0.00    -0.003 A 
ATOM     10  C   UNL     1      -9.180  10.046  63.124  0.00  0.00    -0.000 A 
ATOM     11  C   UNL     1      -9.187   9.484  64.396  0.00  0.00    +0.001 A 
ATOM     12  C   UNL     1     -10.110  10.035  65.276  0.00  0.00    +0.016 A 
ATOM     13  C   UNL     1     -10.310  13.423  64.448  0.00  0.00    +0.049 C 
ENDBRANCH   1   6
BRANCH   2  14
ATOM     14  C   UNL     1     -11.515  11.106  69.436  0.00  0.00    +0.058 A 
ATOM     15  C   UNL     1     -11.023   9.869  69.817  0.00  0.00    +0.025 A 
ATOM     16  C   UNL     1     -11.668   9.160  70.800  0.00  0.00    +0.136 A 
ATOM     17  C   UNL     1     -12.610   9.826  71.560  0.00  0.00    +0.076 A 
ATOM     18 CL   UNL     1     -13.522   8.940  72.774  0.00  0.00    -0.081 Cl
ATOM     19  C   UNL     1     -12.823  11.177  71.386  0.00  0.00    +0.013 A 
ATOM     20  C   UNL     1     -12.313  11.831  70.299  0.00  0.00    +0.006 A 
BRANCH  16  21
ATOM     21  S   UNL     1     -11.128   7.583  71.339  0.00  0.00    +0.094 S 
ATOM     22  O   UNL     1      -9.925   7.200  70.506  0.00  0.00    -0.150 OA
ATOM     23  O   UNL     1     -12.233   6.583  71.134  0.00  0.00    -0.150 OA
ATOM     24  N   UNL     1     -10.644   7.655  72.989  0.00  0.00    +0.039 NA
ENDBRANCH  16  21
ENDBRANCH   2  14
TORSDOF 3
ENDMDL
MODEL 7
REMARK VINA RESULT:      -6.9      5.408      9.120
REMARK  Name = 
REMARK  3 active torsions:
REMARK  status: ('A' for Active; 'I' for Inactive)
REMARK    1  A    between atoms: N_10  and  N_11
REMARK    2  A    between atoms: C_12  and  C_14
REMARK    3  A    between atoms: C_19  and  S_20
REMARK                            x       y       z     vdW  Elec       q    Type
REMARK                         _______ _______ _______ _____ _____    ______ ____
ROOT
ATOM      1  N   UNL     1      -7.712  17.270  65.980  0.00  0.00    -0.106 NA
ATOM      2  C   UNL     1      -8.950  16.774  66.493  0.00  0.00    +0.283 C 
ATOM      3  O   UNL     1      -9.701  17.529  67.143  0.00  0.00    -0.267 OA
ENDROOT
BRANCH   1   6
ATOM      4  C   UNL     1      -5.891  20.196  65.744  0.00  0.00    +0.024 C 
ATOM      5  C   UNL     1      -7.499  19.834  65.800  0.00  0.00    +0.099 C 
ATOM      6  N   UNL     1      -7.237  18.461  66.525  0.00  0.00    -0.219 N 
ATOM      7  C   UNL     1      -6.582  18.759  67.719  0.00  0.00    +0.063 A 
ATOM      8  C   UNL     1      -6.556  20.101  67.984  0.00  0.00    -0.006 A 
ATOM      9  C   UNL     1      -5.837  20.536  69.058  0.00  0.00    -0.003 A 
ATOM     10  C   UNL     1      -5.156  19.631  69.848  0.00  0.00    -0.000 A 
ATOM     11  C   UNL     1      -5.641  18.328  69.899  0.00  0.00    +0.001 A 
ATOM     12  C   UNL     1      -6.199  17.864  68.715  0.00  0.00    +0.016 A 
ATOM     13  C   UNL     1      -7.710  20.638  67.222  0.00  0.00    +0.049 C 
ENDBRANCH   1   6
BRANCH   2  14
ATOM     14  C   UNL     1      -9.300  15.386  66.284  0.00  0.00    +0.058 A 
ATOM     15  C   UNL     1     -10.234  14.999  65.336  0.00  0.00    +0.025 A 
ATOM     16  C   UNL     1     -10.794  13.747  65.413  0.00  0.00    +0.136 A 
ATOM     17  C   UNL     1     -10.203  12.829  66.259  0.00  0.00    +0.076 A 
ATOM     18 CL   UNL     1     -10.933  11.242  66.456  0.00  0.00    -0.081 Cl
ATOM     19  C   UNL     1      -9.040  13.143  66.931  0.00  0.00    +0.013 A 
ATOM     20  C   UNL     1      -8.591  14.434  66.989  0.00  0.00    +0.006 A 
BRANCH  16  21
ATOM     21  S   UNL     1     -11.991  13.174  64.269  0.00  0.00    +0.094 S 
ATOM     22  O   UNL     1     -12.462  14.364  63.463  0.00  0.00    -0.150 OA
ATOM     23  O   UNL     1     -13.148  12.573  65.021  0.00  0.00    -0.150 OA
ATOM     24  N   UNL     1     -11.282  12.035  63.192  0.00  0.00    +0.039 NA
ENDBRANCH  16  21
ENDBRANCH   2  14
TORSDOF 3
ENDMDL
MODEL 8
REMARK VINA RESULT:      -6.9      1.971      2.873
REMARK  Name = 
REMARK  3 active torsions:
REMARK  status: ('A' for Active; 'I' for Inactive)
REMARK    1  A    between atoms: N_10  and  N_11
REMARK    2  A    between atoms: C_12  and  C_14
REMARK    3  A    between atoms: C_19  and  S_20
REMARK                            x       y       z     vdW  Elec       q    Type
REMARK                         _______ _______ _______ _____ _____    ______ ____
ROOT
ATOM      1  N   UNL     1     -10.452  10.593  69.681  0.00  0.00    -0.106 NA
ATOM      2  C   UNL     1     -11.627  11.226  69.169  0.00  0.00    +0.283 C 
ATOM      3  O   UNL     1     -12.753  10.778  69.465  0.00  0.00    -0.267 OA
ENDROOT
BRANCH   1   6
ATOM      4  C   UNL     1      -9.607   8.105  71.923  0.00  0.00    +0.024 C 
ATOM      5  C   UNL     1     -10.921   9.081  71.716  0.00  0.00    +0.099 C 
ATOM      6  N   UNL     1     -10.603   9.306  70.190  0.00  0.00    -0.219 N 
ATOM      7  C   UNL     1     -10.611   8.046  69.592  0.00  0.00    +0.063 A 
ATOM      8  C   UNL     1     -11.078   7.069  70.428  0.00  0.00    -0.006 A 
ATOM      9  C   UNL     1     -11.021   5.774  70.008  0.00  0.00    -0.003 A 
ATOM     10  C   UNL     1     -10.500   5.472  68.765  0.00  0.00    -0.000 A 
ATOM     11  C   UNL     1     -10.571   6.453  67.781  0.00  0.00    +0.001 A 
ATOM     12  C   UNL     1     -10.435   7.756  68.242  0.00  0.00    +0.016 A 
ATOM     13  C   UNL     1     -11.916   7.807  71.406  0.00  0.00    +0.049 C 
ENDBRANCH   1   6
BRANCH   2  14
ATOM     14  C   UNL     1     -11.493  12.360  68.280  0.00  0.00    +0.058 A 
ATOM     15  C   UNL     1     -11.942  12.323  66.970  0.00  0.00    +0.025 A 
ATOM     16  C   UNL     1     -11.484  13.258  66.074  0.00  0.00    +0.136 A 
ATOM     17  C   UNL     1     -10.818  14.359  66.577  0.00  0.00    +0.076 A 
ATOM     18 CL   UNL     1     -10.141  15.539  65.465  0.00  0.00    -0.081 Cl
ATOM     19  C   UNL     1     -10.699  14.544  67.938  0.00  0.00    +0.013 A 
ATOM     20  C   UNL     1     -10.996  13.534  68.811  0.00  0.00    +0.006 A 
BRANCH  16  21
ATOM     21  S   UNL     1     -11.984  13.284  64.395  0.00  0.00    +0.094 S 
ATOM     22  O   UNL     1     -13.137  12.316  64.244  0.00  0.00    -0.150 OA
ATOM     23  O   UNL     1     -10.834  12.849  63.528  0.00  0.00    -0.150 OA
ATOM     24  N   UNL     1     -12.536  14.856  63.966  0.00  0.00    +0.039 NA
ENDBRANCH  16  21
ENDBRANCH   2  14
TORSDOF 3
ENDMDL
MODEL 9
REMARK VINA RESULT:      -6.8      3.077      4.146
REMARK  Name = 
REMARK  3 active torsions:
REMARK  status: ('A' for Active; 'I' for Inactive)
REMARK    1  A    between atoms: N_10  and  N_11
REMARK    2  A    between atoms: C_12  and  C_14
REMARK    3  A    between atoms: C_19  and  S_20
REMARK                            x       y       z     vdW  Elec       q    Type
REMARK                         _______ _______ _______ _____ _____    ______ ____
ROOT
ATOM      1  N   UNL     1      -9.944   8.443  68.923  0.00  0.00    -0.106 NA
ATOM      2  C   UNL     1     -10.734   9.620  68.743  0.00  0.00    +0.283 C 
ATOM      3  O   UNL     1     -11.495  10.004  69.654  0.00  0.00    -0.267 OA
ENDROOT
BRANCH   1   6
ATOM      4  C   UNL     1     -12.357   6.865  70.826  0.00  0.00    +0.024 C 
ATOM      5  C   UNL     1     -11.279   6.371  69.679  0.00  0.00    +0.099 C 
ATOM      6  N   UNL     1     -10.318   7.587  69.956  0.00  0.00    -0.219 N 
ATOM      7  C   UNL     1      -9.946   7.503  71.297  0.00  0.00    +0.063 A 
ATOM      8  C   UNL     1     -10.339   6.330  71.880  0.00  0.00    -0.006 A 
ATOM      9  C   UNL     1     -10.146   6.175  73.221  0.00  0.00    -0.003 A 
ATOM     10  C   UNL     1      -9.567   7.189  73.958  0.00  0.00    -0.000 A 
ATOM     11  C   UNL     1      -8.711   8.060  73.293  0.00  0.00    +0.001 A 
ATOM     12  C   UNL     1      -9.059   8.334  71.977  0.00  0.00    +0.016 A 
ATOM     13  C   UNL     1     -10.483   5.394  70.738  0.00  0.00    +0.049 C 
ENDBRANCH   1   6
BRANCH   2  14
ATOM     14  C   UNL     1     -10.670  10.332  67.485  0.00  0.00    +0.058 A 
ATOM     15  C   UNL     1     -11.093  11.646  67.363  0.00  0.00    +0.025 A 
ATOM     16  C   UNL     1     -11.351  12.158  66.114  0.00  0.00    +0.136 A 
ATOM     17  C   UNL     1     -10.914  11.437  65.020  0.00  0.00    +0.076 A 
ATOM     18 CL   UNL     1     -11.295  12.008  63.402  0.00  0.00    -0.081 Cl
ATOM     19  C   UNL     1     -10.169  10.289  65.190  0.00  0.00    +0.013 A 
ATOM     20  C   UNL     1     -10.068   9.695  66.418  0.00  0.00    +0.006 A 
BRANCH  16  21
ATOM     21  S   UNL     1     -11.902  13.802  65.861  0.00  0.00    +0.094 S 
ATOM     22  O   UNL     1     -12.099  14.435  67.221  0.00  0.00    -0.150 OA
ATOM     23  O   UNL     1     -13.207  13.778  65.113  0.00  0.00    -0.150 OA
ATOM     24  N   UNL     1     -10.706  14.702  65.012  0.00  0.00    +0.039 NA
ENDBRANCH  16  21
ENDBRANCH   2  14
TORSDOF 3
ENDMDL
