MODEL 1
REMARK VINA RESULT:      -5.5      0.000      0.000
REMARK  Name = 
REMARK  12 active torsions:
REMARK  status: ('A' for Active; 'I' for Inactive)
REMARK    1  A    between atoms: C_2  and  N_4
REMARK    2  A    between atoms: N_4  and  C_5
REMARK    3  A    between atoms: C_5  and  C_6
REMARK    4  A    between atoms: C_6  and  C_8
REMARK    5  A    between atoms: C_8  and  O_9
REMARK    6  A    between atoms: O_9  and  C_10
REMARK    7  A    between atoms: C_13  and  C_14
REMARK    8  A    between atoms: C_14  and  O_15
REMARK    9  A    between atoms: O_15  and  C_16
REMARK   10  A    between atoms: C_16  and  C_17
REMARK   11  A    between atoms: C_17  and  O_18
REMARK   12  A    between atoms: O_18  and  C_19
REMARK                            x       y       z     vdW  Elec       q    Type
REMARK                         _______ _______ _______ _____ _____    ______ ____
ROOT
ATOM      1  C   UNL     1     -10.948  10.289  68.925  0.00  0.00    +0.139 A 
ATOM      2  C   UNL     1     -11.118  10.802  67.644  0.00  0.00    +0.037 A 
ATOM      3  C   UNL     1     -11.487  12.114  67.423  0.00  0.00    +0.001 A 
ATOM      4  C   UNL     1     -11.641  12.956  68.513  0.00  0.00    +0.007 A 
ATOM      5  C   UNL     1     -11.809  12.361  69.738  0.00  0.00    +0.001 A 
ATOM      6  C   UNL     1     -11.584  11.004  69.932  0.00  0.00    +0.037 A 
ENDROOT
BRANCH   1   7
ATOM      7  O   UNL     1     -10.838   8.900  69.034  0.00  0.00    -0.473 OA
BRANCH   7   8
ATOM      8  C   UNL     1     -10.731   8.292  70.297  0.00  0.00    +0.240 C 
BRANCH   8   9
ATOM      9  C   UNL     1     -11.248   6.747  70.016  0.00  0.00    +0.213 C 
ATOM     10  O   UNL     1     -10.336   6.180  71.095  0.00  0.00    -0.218 OA
BRANCH   9  11
ATOM     11  C   UNL     1     -12.512   6.899  71.068  0.00  0.00    +0.125 C 
BRANCH  11  12
ATOM     12  N   UNL     1     -12.284   8.092  71.821  0.00  0.00    -0.217 NA
BRANCH  12  14
ATOM     13  C   UNL     1     -13.615   9.168  72.314  0.00  0.00    +0.019 C 
ATOM     14  C   UNL     1     -13.547   8.660  72.282  0.00  0.00    +0.073 C 
ATOM     15  C   UNL     1     -14.648   7.812  71.655  0.00  0.00    +0.019 C 
ENDBRANCH  12  14
ENDBRANCH  11  12
ENDBRANCH   9  11
ENDBRANCH   8   9
ENDBRANCH   7   8
ENDBRANCH   1   7
BRANCH   4  16
ATOM     16  C   UNL     1     -11.707  14.422  68.298  0.00  0.00    +0.169 C 
BRANCH  16  17
ATOM     17  O   UNL     1     -12.436  14.990  69.355  0.00  0.00    -0.346 OA
BRANCH  17  18
ATOM     18  C   UNL     1     -11.568  15.896  69.977  0.00  0.00    +0.175 C 
BRANCH  18  19
ATOM     19  C   UNL     1     -11.851  16.012  71.459  0.00  0.00    +0.174 C 
BRANCH  19  20
ATOM     20  O   UNL     1     -13.245  15.980  71.615  0.00  0.00    -0.354 OA
BRANCH  20  21
ATOM     21  C   UNL     1     -13.496  15.205  72.731  0.00  0.00    +0.115 C 
ATOM     22  C   UNL     1     -13.733  13.757  72.432  0.00  0.00    +0.032 C 
ATOM     23  C   UNL     1     -12.536  15.448  73.859  0.00  0.00    +0.032 C 
ENDBRANCH  20  21
ENDBRANCH  19  20
ENDBRANCH  18  19
ENDBRANCH  17  18
ENDBRANCH  16  17
ENDBRANCH   4  16
TORSDOF 12
ENDMDL
MODEL 2
REMARK VINA RESULT:      -5.5      3.429      7.042
REMARK  Name = 
REMARK  12 active torsions:
REMARK  status: ('A' for Active; 'I' for Inactive)
REMARK    1  A    between atoms: C_2  and  N_4
REMARK    2  A    between atoms: N_4  and  C_5
REMARK    3  A    between atoms: C_5  and  C_6
REMARK    4  A    between atoms: C_6  and  C_8
REMARK    5  A    between atoms: C_8  and  O_9
REMARK    6  A    between atoms: O_9  and  C_10
REMARK    7  A    between atoms: C_13  and  C_14
REMARK    8  A    between atoms: C_14  and  O_15
REMARK    9  A    between atoms: O_15  and  C_16
REMARK   10  A    between atoms: C_16  and  C_17
REMARK   11  A    between atoms: C_17  and  O_18
REMARK   12  A    between atoms: O_18  and  C_19
REMARK                            x       y       z     vdW  Elec       q    Type
REMARK                         _______ _______ _______ _____ _____    ______ ____
ROOT
ATOM      1  C   UNL     1     -11.370  14.631  66.913  0.00  0.00    +0.139 A 
ATOM      2  C   UNL     1     -12.419  13.860  66.428  0.00  0.00    +0.037 A 
ATOM      3  C   UNL     1     -12.321  13.143  65.253  0.00  0.00    +0.001 A 
ATOM      4  C   UNL     1     -11.118  13.154  64.564  0.00  0.00    +0.007 A 
ATOM      5  C   UNL     1     -10.243  14.168  64.861  0.00  0.00    +0.001 A 
ATOM      6  C   UNL     1     -10.422  14.993  65.965  0.00  0.00    +0.037 A 
ENDROOT
BRANCH   1   7
ATOM      7  O   UNL     1     -11.669  15.513  67.956  0.00  0.00    -0.473 OA
BRANCH   7   8
ATOM      8  C   UNL     1     -11.962  15.023  69.240  0.00  0.00    +0.240 C 
BRANCH   8   9
ATOM      9  C   UNL     1     -10.750  15.656  70.169  0.00  0.00    +0.213 C 
ATOM     10  O   UNL     1     -10.906  17.035  69.544  0.00  0.00    -0.218 OA
BRANCH   9  11
ATOM     11  C   UNL     1     -11.786  16.022  71.403  0.00  0.00    +0.125 C 
BRANCH  11  12
ATOM     12  N   UNL     1     -13.099  15.674  70.958  0.00  0.00    -0.217 NA
BRANCH  12  14
ATOM     13  C   UNL     1     -14.362  15.125  72.088  0.00  0.00    +0.019 C 
ATOM     14  C   UNL     1     -13.995  15.484  72.095  0.00  0.00    +0.073 C 
ATOM     15  C   UNL     1     -13.131  15.621  73.343  0.00  0.00    +0.019 C 
ENDBRANCH  12  14
ENDBRANCH  11  12
ENDBRANCH   9  11
ENDBRANCH   8   9
ENDBRANCH   7   8
ENDBRANCH   1   7
BRANCH   4  16
ATOM     16  C   UNL     1     -10.878  12.149  63.500  0.00  0.00    +0.169 C 
BRANCH  16  17
ATOM     17  O   UNL     1     -10.896  10.873  64.087  0.00  0.00    -0.346 OA
BRANCH  17  18
ATOM     18  C   UNL     1      -9.556  10.535  64.311  0.00  0.00    +0.175 C 
BRANCH  18  19
ATOM     19  C   UNL     1      -9.313  10.138  65.750  0.00  0.00    +0.174 C 
BRANCH  19  20
ATOM     20  O   UNL     1     -10.551  10.201  66.408  0.00  0.00    -0.354 OA
BRANCH  20  21
ATOM     21  C   UNL     1     -10.292  10.664  67.684  0.00  0.00    +0.115 C 
ATOM     22  C   UNL     1      -9.249  11.738  67.748  0.00  0.00    +0.032 C 
ATOM     23  C   UNL     1     -11.529  10.964  68.478  0.00  0.00    +0.032 C 
ENDBRANCH  20  21
ENDBRANCH  19  20
ENDBRANCH  18  19
ENDBRANCH  17  18
ENDBRANCH  16  17
ENDBRANCH   4  16
TORSDOF 12
ENDMDL
MODEL 3
REMARK VINA RESULT:      -5.4      2.518      7.372
REMARK  Name = 
REMARK  12 active torsions:
REMARK  status: ('A' for Active; 'I' for Inactive)
REMARK    1  A    between atoms: C_2  and  N_4
REMARK    2  A    between atoms: N_4  and  C_5
REMARK    3  A    between atoms: C_5  and  C_6
REMARK    4  A    between atoms: C_6  and  C_8
REMARK    5  A    between atoms: C_8  and  O_9
REMARK    6  A    between atoms: O_9  and  C_10
REMARK    7  A    between atoms: C_13  and  C_14
REMARK    8  A    between atoms: C_14  and  O_15
REMARK    9  A    between atoms: O_15  and  C_16
REMARK   10  A    between atoms: C_16  and  C_17
REMARK   11  A    between atoms: C_17  and  O_18
REMARK   12  A    between atoms: O_18  and  C_19
REMARK                            x       y       z     vdW  Elec       q    Type
REMARK                         _______ _______ _______ _____ _____    ______ ____
ROOT
ATOM      1  C   UNL     1     -11.944  11.910  69.944  0.00  0.00    +0.139 A 
ATOM      2  C   UNL     1     -11.150  10.772  69.868  0.00  0.00    +0.037 A 
ATOM      3  C   UNL     1     -11.403   9.648  70.628  0.00  0.00    +0.001 A 
ATOM      4  C   UNL     1     -12.516   9.639  71.453  0.00  0.00    +0.007 A 
ATOM      5  C   UNL     1     -13.064  10.856  71.769  0.00  0.00    +0.001 A 
ATOM      6  C   UNL     1     -12.699  12.021  71.105  0.00  0.00    +0.037 A 
ENDROOT
BRANCH   1   7
ATOM      7  O   UNL     1     -11.445  13.066  69.337  0.00  0.00    -0.473 OA
BRANCH   7   8
ATOM      8  C   UNL     1     -12.141  14.282  69.444  0.00  0.00    +0.240 C 
BRANCH   8   9
ATOM      9  C   UNL     1     -10.949  15.367  69.813  0.00  0.00    +0.213 C 
ATOM     10  O   UNL     1     -11.670  16.498  69.094  0.00  0.00    -0.218 OA
BRANCH   9  11
ATOM     11  C   UNL     1     -11.643  15.751  71.261  0.00  0.00    +0.125 C 
BRANCH  11  12
ATOM     12  N   UNL     1     -13.059  15.682  71.073  0.00  0.00    -0.217 NA
BRANCH  12  14
ATOM     13  C   UNL     1     -14.228  15.417  72.390  0.00  0.00    +0.019 C 
ATOM     14  C   UNL     1     -13.745  15.586  72.358  0.00  0.00    +0.073 C 
ATOM     15  C   UNL     1     -12.717  15.055  73.350  0.00  0.00    +0.019 C 
ENDBRANCH  12  14
ENDBRANCH  11  12
ENDBRANCH   9  11
ENDBRANCH   8   9
ENDBRANCH   7   8
ENDBRANCH   1   7
BRANCH   4  16
ATOM     16  C   UNL     1     -12.994   8.353  72.017  0.00  0.00    +0.169 C 
BRANCH  16  17
ATOM     17  O   UNL     1     -12.626   7.322  71.137  0.00  0.00    -0.346 OA
BRANCH  17  18
ATOM     18  C   UNL     1     -12.053   6.324  71.933  0.00  0.00    +0.175 C 
BRANCH  18  19
ATOM     19  C   UNL     1     -10.585   6.135  71.620  0.00  0.00    +0.174 C 
BRANCH  19  20
ATOM     20  O   UNL     1      -9.982   5.620  72.779  0.00  0.00    -0.354 OA
BRANCH  20  21
ATOM     21  C   UNL     1     -10.037   6.624  73.726  0.00  0.00    +0.115 C 
ATOM     22  C   UNL     1      -9.815   6.154  75.132  0.00  0.00    +0.032 C 
ATOM     23  C   UNL     1      -9.245   7.844  73.358  0.00  0.00    +0.032 C 
ENDBRANCH  20  21
ENDBRANCH  19  20
ENDBRANCH  18  19
ENDBRANCH  17  18
ENDBRANCH  16  17
ENDBRANCH   4  16
TORSDOF 12
ENDMDL
MODEL 4
REMARK VINA RESULT:      -5.4      3.583      6.838
REMARK  Name = 
REMARK  12 active torsions:
REMARK  status: ('A' for Active; 'I' for Inactive)
REMARK    1  A    between atoms: C_2  and  N_4
REMARK    2  A    between atoms: N_4  and  C_5
REMARK    3  A    between atoms: C_5  and  C_6
REMARK    4  A    between atoms: C_6  and  C_8
REMARK    5  A    between atoms: C_8  and  O_9
REMARK    6  A    between atoms: O_9  and  C_10
REMARK    7  A    between atoms: C_13  and  C_14
REMARK    8  A    between atoms: C_14  and  O_15
REMARK    9  A    between atoms: O_15  and  C_16
REMARK   10  A    between atoms: C_16  and  C_17
REMARK   11  A    between atoms: C_17  and  O_18
REMARK   12  A    between atoms: O_18  and  C_19
REMARK                            x       y       z     vdW  Elec       q    Type
REMARK                         _______ _______ _______ _____ _____    ______ ____
ROOT
ATOM      1  C   UNL     1     -10.990  12.412  68.557  0.00  0.00    +0.139 A 
ATOM      2  C   UNL     1      -9.655  12.515  68.184  0.00  0.00    +0.037 A 
ATOM      3  C   UNL     1      -9.094  11.689  67.231  0.00  0.00    +0.001 A 
ATOM      4  C   UNL     1      -9.904  10.765  66.589  0.00  0.00    +0.007 A 
ATOM      5  C   UNL     1     -11.090  10.450  67.202  0.00  0.00    +0.001 A 
ATOM      6  C   UNL     1     -11.587  11.192  68.266  0.00  0.00    +0.037 A 
ENDROOT
BRANCH   1   7
ATOM      7  O   UNL     1     -11.376  13.109  69.706  0.00  0.00    -0.473 OA
BRANCH   7   8
ATOM      8  C   UNL     1     -12.177  14.259  69.604  0.00  0.00    +0.240 C 
BRANCH   8   9
ATOM      9  C   UNL     1     -11.131  15.481  69.986  0.00  0.00    +0.213 C 
ATOM     10  O   UNL     1     -11.823  16.452  69.041  0.00  0.00    -0.218 OA
BRANCH   9  11
ATOM     11  C   UNL     1     -12.050  15.967  71.270  0.00  0.00    +0.125 C 
BRANCH  11  12
ATOM     12  N   UNL     1     -11.554  15.276  72.419  0.00  0.00    -0.217 NA
BRANCH  12  14
ATOM     13  C   UNL     1     -12.483  15.232  73.937  0.00  0.00    +0.019 C 
ATOM     14  C   UNL     1     -12.591  15.165  73.440  0.00  0.00    +0.073 C 
ATOM     15  C   UNL     1     -13.830  15.838  72.862  0.00  0.00    +0.019 C 
ENDBRANCH  12  14
ENDBRANCH  11  12
ENDBRANCH   9  11
ENDBRANCH   8   9
ENDBRANCH   7   8
ENDBRANCH   1   7
BRANCH   4  16
ATOM     16  C   UNL     1      -9.420  10.108  65.351  0.00  0.00    +0.169 C 
BRANCH  16  17
ATOM     17  O   UNL     1      -9.304  11.086  64.350  0.00  0.00    -0.346 OA
BRANCH  17  18
ATOM     18  C   UNL     1     -10.499  11.035  63.623  0.00  0.00    +0.175 C 
BRANCH  18  19
ATOM     19  C   UNL     1     -11.201  12.375  63.608  0.00  0.00    +0.174 C 
BRANCH  19  20
ATOM     20  O   UNL     1     -10.336  13.299  64.216  0.00  0.00    -0.354 OA
BRANCH  20  21
ATOM     21  C   UNL     1     -11.101  14.018  65.113  0.00  0.00    +0.115 C 
ATOM     22  C   UNL     1     -11.029  15.503  64.929  0.00  0.00    +0.032 C 
ATOM     23  C   UNL     1     -12.496  13.489  65.274  0.00  0.00    +0.032 C 
ENDBRANCH  20  21
ENDBRANCH  19  20
ENDBRANCH  18  19
ENDBRANCH  17  18
ENDBRANCH  16  17
ENDBRANCH   4  16
TORSDOF 12
ENDMDL
MODEL 5
REMARK VINA RESULT:      -5.4      2.308      7.652
REMARK  Name = 
REMARK  12 active torsions:
REMARK  status: ('A' for Active; 'I' for Inactive)
REMARK    1  A    between atoms: C_2  and  N_4
REMARK    2  A    between atoms: N_4  and  C_5
REMARK    3  A    between atoms: C_5  and  C_6
REMARK    4  A    between atoms: C_6  and  C_8
REMARK    5  A    between atoms: C_8  and  O_9
REMARK    6  A    between atoms: O_9  and  C_10
REMARK    7  A    between atoms: C_13  and  C_14
REMARK    8  A    between atoms: C_14  and  O_15
REMARK    9  A    between atoms: O_15  and  C_16
REMARK   10  A    between atoms: C_16  and  C_17
REMARK   11  A    between atoms: C_17  and  O_18
REMARK   12  A    between atoms: O_18  and  C_19
REMARK                            x       y       z     vdW  Elec       q    Type
REMARK                         _______ _______ _______ _____ _____    ______ ____
ROOT
ATOM      1  C   UNL     1     -11.445  12.082  69.707  0.00  0.00    +0.139 A 
ATOM      2  C   UNL     1     -12.465  12.057  70.651  0.00  0.00    +0.037 A 
ATOM      3  C   UNL     1     -12.767  10.922  71.375  0.00  0.00    +0.001 A 
ATOM      4  C   UNL     1     -11.991   9.788  71.192  0.00  0.00    +0.007 A 
ATOM      5  C   UNL     1     -11.244   9.728  70.043  0.00  0.00    +0.001 A 
ATOM      6  C   UNL     1     -11.062  10.836  69.226  0.00  0.00    +0.037 A 
ENDROOT
BRANCH   1   7
ATOM      7  O   UNL     1     -11.404  13.189  68.855  0.00  0.00    -0.473 OA
BRANCH   7   8
ATOM      8  C   UNL     1     -12.112  14.360  69.176  0.00  0.00    +0.240 C 
BRANCH   8   9
ATOM      9  C   UNL     1     -10.929  15.376  69.727  0.00  0.00    +0.213 C 
ATOM     10  O   UNL     1     -11.601  16.593  69.110  0.00  0.00    -0.218 OA
BRANCH   9  11
ATOM     11  C   UNL     1     -11.693  15.601  71.174  0.00  0.00    +0.125 C 
BRANCH  11  12
ATOM     12  N   UNL     1     -13.080  15.789  70.885  0.00  0.00    -0.217 NA
BRANCH  12  14
ATOM     13  C   UNL     1     -14.283  15.141  72.027  0.00  0.00    +0.019 C 
ATOM     14  C   UNL     1     -13.897  15.478  72.054  0.00  0.00    +0.073 C 
ATOM     15  C   UNL     1     -12.935  15.395  73.234  0.00  0.00    +0.019 C 
ENDBRANCH  12  14
ENDBRANCH  11  12
ENDBRANCH   9  11
ENDBRANCH   8   9
ENDBRANCH   7   8
ENDBRANCH   1   7
BRANCH   4  16
ATOM     16  C   UNL     1     -12.075   8.681  72.175  0.00  0.00    +0.169 C 
BRANCH  16  17
ATOM     17  O   UNL     1     -10.768   8.310  72.532  0.00  0.00    -0.346 OA
BRANCH  17  18
ATOM     18  C   UNL     1     -10.865   7.014  73.053  0.00  0.00    +0.175 C 
BRANCH  18  19
ATOM     19  C   UNL     1     -11.558   6.076  72.089  0.00  0.00    +0.174 C 
BRANCH  19  20
ATOM     20  O   UNL     1     -10.630   5.080  71.747  0.00  0.00    -0.354 OA
BRANCH  20  21
ATOM     21  C   UNL     1     -10.214   5.360  70.460  0.00  0.00    +0.115 C 
ATOM     22  C   UNL     1      -9.544   4.212  69.768  0.00  0.00    +0.032 C 
ATOM     23  C   UNL     1     -11.254   6.053  69.628  0.00  0.00    +0.032 C 
ENDBRANCH  20  21
ENDBRANCH  19  20
ENDBRANCH  18  19
ENDBRANCH  17  18
ENDBRANCH  16  17
ENDBRANCH   4  16
TORSDOF 12
ENDMDL
MODEL 6
REMARK VINA RESULT:      -5.3      1.960      4.373
REMARK  Name = 
REMARK  12 active torsions:
REMARK  status: ('A' for Active; 'I' for Inactive)
REMARK    1  A    between atoms: C_2  and  N_4
REMARK    2  A    between atoms: N_4  and  C_5
REMARK    3  A    between atoms: C_5  and  C_6
REMARK    4  A    between atoms: C_6  and  C_8
REMARK    5  A    between atoms: C_8  and  O_9
REMARK    6  A    between atoms: O_9  and  C_10
REMARK    7  A    between atoms: C_13  and  C_14
REMARK    8  A    between atoms: C_14  and  O_15
REMARK    9  A    between atoms: O_15  and  C_16
REMARK   10  A    between atoms: C_16  and  C_17
REMARK   11  A    between atoms: C_17  and  O_18
REMARK   12  A    between atoms: O_18  and  C_19
REMARK                            x       y       z     vdW  Elec       q    Type
REMARK                         _______ _______ _______ _____ _____    ______ ____
ROOT
ATOM      1  C   UNL     1     -12.915  12.104  71.760  0.00  0.00    +0.139 A 
ATOM      2  C   UNL     1     -12.261  12.234  70.541  0.00  0.00    +0.037 A 
ATOM      3  C   UNL     1     -11.950  13.467  70.003  0.00  0.00    +0.001 A 
ATOM      4  C   UNL     1     -12.256  14.607  70.730  0.00  0.00    +0.007 A 
ATOM      5  C   UNL     1     -13.186  14.475  71.729  0.00  0.00    +0.001 A 
ATOM      6  C   UNL     1     -13.616  13.230  72.173  0.00  0.00    +0.037 A 
ENDROOT
BRANCH   1   7
ATOM      7  O   UNL     1     -13.410  10.835  72.075  0.00  0.00    -0.473 OA
BRANCH   7   8
ATOM      8  C   UNL     1     -13.120   9.734  71.250  0.00  0.00    +0.240 C 
BRANCH   8   9
ATOM      9  C   UNL     1     -12.787   8.530  72.333  0.00  0.00    +0.213 C 
ATOM     10  O   UNL     1     -13.030   7.445  71.295  0.00  0.00    -0.218 OA
BRANCH   9  11
ATOM     11  C   UNL     1     -11.169   8.580  72.004  0.00  0.00    +0.125 C 
BRANCH  11  12
ATOM     12  N   UNL     1     -11.039   8.865  70.609  0.00  0.00    -0.217 NA
BRANCH  12  14
ATOM     13  C   UNL     1      -9.309   9.276  70.496  0.00  0.00    +0.019 C 
ATOM     14  C   UNL     1      -9.747   9.484  70.328  0.00  0.00    +0.073 C 
ATOM     15  C   UNL     1      -9.817   9.975  68.886  0.00  0.00    +0.019 C 
ENDBRANCH  12  14
ENDBRANCH  11  12
ENDBRANCH   9  11
ENDBRANCH   8   9
ENDBRANCH   7   8
ENDBRANCH   1   7
BRANCH   4  16
ATOM     16  C   UNL     1     -11.647  15.903  70.342  0.00  0.00    +0.169 C 
BRANCH  16  17
ATOM     17  O   UNL     1     -12.087  16.227  69.048  0.00  0.00    -0.346 OA
BRANCH  17  18
ATOM     18  C   UNL     1     -10.935  16.535  68.316  0.00  0.00    +0.175 C 
BRANCH  18  19
ATOM     19  C   UNL     1     -10.640  15.484  67.270  0.00  0.00    +0.174 C 
BRANCH  19  20
ATOM     20  O   UNL     1     -11.869  14.918  66.898  0.00  0.00    -0.354 OA
BRANCH  20  21
ATOM     21  C   UNL     1     -11.590  13.990  65.913  0.00  0.00    +0.115 C 
ATOM     22  C   UNL     1     -10.359  14.295  65.114  0.00  0.00    +0.032 C 
ATOM     23  C   UNL     1     -11.676  12.568  66.384  0.00  0.00    +0.032 C 
ENDBRANCH  20  21
ENDBRANCH  19  20
ENDBRANCH  18  19
ENDBRANCH  17  18
ENDBRANCH  16  17
ENDBRANCH   4  16
TORSDOF 12
ENDMDL
MODEL 7
REMARK VINA RESULT:      -5.2      3.670      8.164
REMARK  Name = 
REMARK  12 active torsions:
REMARK  status: ('A' for Active; 'I' for Inactive)
REMARK    1  A    between atoms: C_2  and  N_4
REMARK    2  A    between atoms: N_4  and  C_5
REMARK    3  A    between atoms: C_5  and  C_6
REMARK    4  A    between atoms: C_6  and  C_8
REMARK    5  A    between atoms: C_8  and  O_9
REMARK    6  A    between atoms: O_9  and  C_10
REMARK    7  A    between atoms: C_13  and  C_14
REMARK    8  A    between atoms: C_14  and  O_15
REMARK    9  A    between atoms: O_15  and  C_16
REMARK   10  A    between atoms: C_16  and  C_17
REMARK   11  A    between atoms: C_17  and  O_18
REMARK   12  A    between atoms: O_18  and  C_19
REMARK                            x       y       z     vdW  Elec       q    Type
REMARK                         _______ _______ _______ _____ _____    ______ ____
ROOT
ATOM      1  C   UNL     1     -11.336  13.727  67.878  0.00  0.00    +0.139 A 
ATOM      2  C   UNL     1     -11.792  13.821  69.187  0.00  0.00    +0.037 A 
ATOM      3  C   UNL     1     -12.038  12.704  69.960  0.00  0.00    +0.001 A 
ATOM      4  C   UNL     1     -11.771  11.453  69.427  0.00  0.00    +0.007 A 
ATOM      5  C   UNL     1     -11.663  11.371  68.062  0.00  0.00    +0.001 A 
ATOM      6  C   UNL     1     -11.567  12.503  67.263  0.00  0.00    +0.037 A 
ENDROOT
BRANCH   1   7
ATOM      7  O   UNL     1     -11.376  14.897  67.113  0.00  0.00    -0.473 OA
BRANCH   7   8
ATOM      8  C   UNL     1     -11.625  14.836  65.732  0.00  0.00    +0.240 C 
BRANCH   8   9
ATOM      9  C   UNL     1     -10.381  15.712  65.086  0.00  0.00    +0.213 C 
ATOM     10  O   UNL     1     -11.334  16.605  64.305  0.00  0.00    -0.218 OA
BRANCH   9  11
ATOM     11  C   UNL     1     -10.348  16.752  66.369  0.00  0.00    +0.125 C 
BRANCH  11  12
ATOM     12  N   UNL     1     -10.224  18.070  65.831  0.00  0.00    -0.217 NA
BRANCH  12  14
ATOM     13  C   UNL     1     -10.718  19.427  66.873  0.00  0.00    +0.019 C 
ATOM     14  C   UNL     1     -10.348  19.072  66.885  0.00  0.00    +0.073 C 
ATOM     15  C   UNL     1     -10.079  18.342  68.196  0.00  0.00    +0.019 C 
ENDBRANCH  12  14
ENDBRANCH  11  12
ENDBRANCH   9  11
ENDBRANCH   8   9
ENDBRANCH   7   8
ENDBRANCH   1   7
BRANCH   4  16
ATOM     16  C   UNL     1     -11.709  10.276  70.327  0.00  0.00    +0.169 C 
BRANCH  16  17
ATOM     17  O   UNL     1     -12.411  10.584  71.504  0.00  0.00    -0.346 OA
BRANCH  17  18
ATOM     18  C   UNL     1     -13.300   9.522  71.710  0.00  0.00    +0.175 C 
BRANCH  18  19
ATOM     19  C   UNL     1     -12.583   8.190  71.730  0.00  0.00    +0.174 C 
BRANCH  19  20
ATOM     20  O   UNL     1     -11.915   8.102  72.961  0.00  0.00    -0.354 OA
BRANCH  20  21
ATOM     21  C   UNL     1     -10.894   7.189  72.787  0.00  0.00    +0.115 C 
ATOM     22  C   UNL     1     -10.644   6.813  71.358  0.00  0.00    +0.032 C 
ATOM     23  C   UNL     1      -9.650   7.521  73.558  0.00  0.00    +0.032 C 
ENDBRANCH  20  21
ENDBRANCH  19  20
ENDBRANCH  18  19
ENDBRANCH  17  18
ENDBRANCH  16  17
ENDBRANCH   4  16
TORSDOF 12
ENDMDL
MODEL 8
REMARK VINA RESULT:      -5.2      2.462      3.721
REMARK  Name = 
REMARK  12 active torsions:
REMARK  status: ('A' for Active; 'I' for Inactive)
REMARK    1  A    between atoms: C_2  and  N_4
REMARK    2  A    between atoms: N_4  and  C_5
REMARK    3  A    between atoms: C_5  and  C_6
REMARK    4  A    between atoms: C_6  and  C_8
REMARK    5  A    between atoms: C_8  and  O_9
REMARK    6  A    between atoms: O_9  and  C_10
REMARK    7  A    between atoms: C_13  and  C_14
REMARK    8  A    between atoms: C_14  and  O_15
REMARK    9  A    between atoms: O_15  and  C_16
REMARK   10  A    between atoms: C_16  and  C_17
REMARK   11  A    between atoms: C_17  and  O_18
REMARK   12  A    between atoms: O_18  and  C_19
REMARK                            x       y       z     vdW  Elec       q    Type
REMARK                         _______ _______ _______ _____ _____    ______ ____
ROOT
ATOM      1  C   UNL     1     -11.558  12.621  66.857  0.00  0.00    +0.139 A 
ATOM      2  C   UNL     1     -10.257  13.097  66.744  0.00  0.00    +0.037 A 
ATOM      3  C   UNL     1      -9.951  14.231  66.019  0.00  0.00    +0.001 A 
ATOM      4  C   UNL     1     -10.983  14.945  65.431  0.00  0.00    +0.007 A 
ATOM      5  C   UNL     1     -12.175  14.286  65.264  0.00  0.00    +0.001 A 
ATOM      6  C   UNL     1     -12.432  13.064  65.873  0.00  0.00    +0.037 A 
ENDROOT
BRANCH   1   7
ATOM      7  O   UNL     1     -11.712  11.336  67.384  0.00  0.00    -0.473 OA
BRANCH   7   8
ATOM      8  C   UNL     1     -11.743  11.136  68.775  0.00  0.00    +0.240 C 
BRANCH   8   9
ATOM      9  C   UNL     1     -10.813   9.784  68.981  0.00  0.00    +0.213 C 
ATOM     10  O   UNL     1      -9.533  10.603  69.069  0.00  0.00    -0.218 OA
BRANCH   9  11
ATOM     11  C   UNL     1     -11.019   9.802  70.620  0.00  0.00    +0.125 C 
BRANCH  11  12
ATOM     12  N   UNL     1     -12.349  10.263  70.866  0.00  0.00    -0.217 NA
BRANCH  12  14
ATOM     13  C   UNL     1     -13.465   9.450  71.991  0.00  0.00    +0.019 C 
ATOM     14  C   UNL     1     -12.957   9.520  71.966  0.00  0.00    +0.073 C 
ATOM     15  C   UNL     1     -12.041   8.331  72.232  0.00  0.00    +0.019 C 
ENDBRANCH  12  14
ENDBRANCH  11  12
ENDBRANCH   9  11
ENDBRANCH   8   9
ENDBRANCH   7   8
ENDBRANCH   1   7
BRANCH   4  16
ATOM     16  C   UNL     1     -10.730  16.321  64.939  0.00  0.00    +0.169 C 
BRANCH  16  17
ATOM     17  O   UNL     1      -9.694  16.879  65.705  0.00  0.00    -0.346 OA
BRANCH  17  18
ATOM     18  C   UNL     1     -10.290  17.872  66.491  0.00  0.00    +0.175 C 
BRANCH  18  19
ATOM     19  C   UNL     1     -10.152  17.574  67.968  0.00  0.00    +0.174 C 
BRANCH  19  20
ATOM     20  O   UNL     1     -11.359  16.988  68.382  0.00  0.00    -0.354 OA
BRANCH  20  21
ATOM     21  C   UNL     1     -11.018  15.925  69.195  0.00  0.00    +0.115 C 
ATOM     22  C   UNL     1      -9.542  15.723  69.355  0.00  0.00    +0.032 C 
ATOM     23  C   UNL     1     -11.785  15.881  70.484  0.00  0.00    +0.032 C 
ENDBRANCH  20  21
ENDBRANCH  19  20
ENDBRANCH  18  19
ENDBRANCH  17  18
ENDBRANCH  16  17
ENDBRANCH   4  16
TORSDOF 12
ENDMDL
MODEL 9
REMARK VINA RESULT:      -5.2      4.325      6.392
REMARK  Name = 
REMARK  12 active torsions:
REMARK  status: ('A' for Active; 'I' for Inactive)
REMARK    1  A    between atoms: C_2  and  N_4
REMARK    2  A    between atoms: N_4  and  C_5
REMARK    3  A    between atoms: C_5  and  C_6
REMARK    4  A    between atoms: C_6  and  C_8
REMARK    5  A    between atoms: C_8  and  O_9
REMARK    6  A    between atoms: O_9  and  C_10
REMARK    7  A    between atoms: C_13  and  C_14
REMARK    8  A    between atoms: C_14  and  O_15
REMARK    9  A    between atoms: O_15  and  C_16
REMARK   10  A    between atoms: C_16  and  C_17
REMARK   11  A    between atoms: C_17  and  O_18
REMARK   12  A    between atoms: O_18  and  C_19
REMARK                            x       y       z     vdW  Elec       q    Type
REMARK                         _______ _______ _______ _____ _____    ______ ____
ROOT
ATOM      1  C   UNL     1      -9.620  14.512  67.810  0.00  0.00    +0.139 A 
ATOM      2  C   UNL     1      -9.327  14.837  66.491  0.00  0.00    +0.037 A 
ATOM      3  C   UNL     1      -9.636  16.070  65.953  0.00  0.00    +0.001 A 
ATOM      4  C   UNL     1     -10.209  17.030  66.773  0.00  0.00    +0.007 A 
ATOM      5  C   UNL     1     -10.793  16.586  67.933  0.00  0.00    +0.001 A 
ATOM      6  C   UNL     1     -10.606  15.292  68.401  0.00  0.00    +0.037 A 
ENDROOT
BRANCH   1   7
ATOM      7  O   UNL     1      -9.506  13.165  68.165  0.00  0.00    -0.473 OA
BRANCH   7   8
ATOM      8  C   UNL     1     -10.657  12.385  68.374  0.00  0.00    +0.240 C 
BRANCH   8   9
ATOM      9  C   UNL     1     -10.235  10.916  67.743  0.00  0.00    +0.213 C 
ATOM     10  O   UNL     1     -11.612  10.331  68.026  0.00  0.00    -0.218 OA
BRANCH   9  11
ATOM     11  C   UNL     1     -10.664  11.366  66.213  0.00  0.00    +0.125 C 
BRANCH  11  12
ATOM     12  N   UNL     1     -11.942  12.000  66.311  0.00  0.00    -0.217 NA
BRANCH  12  14
ATOM     13  C   UNL     1     -12.434  12.545  64.688  0.00  0.00    +0.019 C 
ATOM     14  C   UNL     1     -12.230  12.768  65.103  0.00  0.00    +0.073 C 
ATOM     15  C   UNL     1     -12.800  14.101  65.574  0.00  0.00    +0.019 C 
ENDBRANCH  12  14
ENDBRANCH  11  12
ENDBRANCH   9  11
ENDBRANCH   8   9
ENDBRANCH   7   8
ENDBRANCH   1   7
BRANCH   4  16
ATOM     16  C   UNL     1     -10.245  18.444  66.325  0.00  0.00    +0.169 C 
BRANCH  16  17
ATOM     17  O   UNL     1     -10.556  19.249  67.433  0.00  0.00    -0.346 OA
BRANCH  17  18
ATOM     18  C   UNL     1      -9.733  20.377  67.331  0.00  0.00    +0.175 C 
BRANCH  18  19
ATOM     19  C   UNL     1      -8.268  20.001  67.316  0.00  0.00    +0.174 C 
BRANCH  19  20
ATOM     20  O   UNL     1      -7.989  19.388  68.548  0.00  0.00    -0.354 OA
BRANCH  20  21
ATOM     21  C   UNL     1      -6.981  18.474  68.309  0.00  0.00    +0.115 C 
ATOM     22  C   UNL     1      -7.198  17.140  68.955  0.00  0.00    +0.032 C 
ATOM     23  C   UNL     1      -6.567  18.397  66.869  0.00  0.00    +0.032 C 
ENDBRANCH  20  21
ENDBRANCH  19  20
ENDBRANCH  18  19
ENDBRANCH  17  18
ENDBRANCH  16  17
ENDBRANCH   4  16
TORSDOF 12
ENDMDL
