MODEL 1
REMARK VINA RESULT:      -5.4      0.000      0.000
REMARK  Name = 
REMARK  23 active torsions:
REMARK  status: ('A' for Active; 'I' for Inactive)
REMARK    1  A    between atoms: C_2  and  C_3
REMARK    2  A    between atoms: C_3  and  C_4
REMARK    3  A    between atoms: C_4  and  C_5
REMARK    4  A    between atoms: C_5  and  C_6
REMARK    5  A    between atoms: C_6  and  C_7
REMARK    6  A    between atoms: C_7  and  C_8
REMARK    7  A    between atoms: C_8  and  C_9
REMARK    8  A    between atoms: C_9  and  C_10
REMARK    9  A    between atoms: C_10  and  C_11
REMARK   10  A    between atoms: C_11  and  C_12
REMARK   11  A    between atoms: C_12  and  C_13
REMARK   12  A    between atoms: C_12  and  O_25
REMARK   13  A    between atoms: C_13  and  C_14
REMARK   14  A    between atoms: C_18  and  C_19
REMARK   15  A    between atoms: C_19  and  C_20
REMARK   16  A    between atoms: C_20  and  C_21
REMARK   17  A    between atoms: C_21  and  C_22
REMARK   18  A    between atoms: C_22  and  C_23
REMARK   19  A    between atoms: O_25  and  C_26
REMARK   20  A    between atoms: C_26  and  C_28
REMARK   21  A    between atoms: C_28  and  C_29
REMARK   22  A    between atoms: C_28  and  N_33
REMARK   23  A    between atoms: C_29  and  C_30
REMARK                            x       y       z     vdW  Elec       q    Type
REMARK                         _______ _______ _______ _____ _____    ______ ____
ROOT
ATOM      1  C   UNL     1      -9.357  16.331  68.900  0.00  0.00    +0.173 C 
ENDROOT
BRANCH   1   2
ATOM      2  C   UNL     1      -8.107  15.466  68.267  0.00  0.00    +0.044 C 
BRANCH   2   3
ATOM      3  C   UNL     1      -6.902  15.705  69.112  0.00  0.00    +0.004 C 
BRANCH   3   4
ATOM      4  C   UNL     1      -6.237  16.931  68.484  0.00  0.00    +0.000 C 
BRANCH   4   5
ATOM      5  C   UNL     1      -5.965  16.479  67.049  0.00  0.00    +0.000 C 
BRANCH   5   6
ATOM      6  C   UNL     1      -5.650  17.781  66.317  0.00  0.00    +0.000 C 
BRANCH   6   7
ATOM      7  C   UNL     1      -6.991  18.350  65.878  0.00  0.00    +0.000 C 
BRANCH   7   8
ATOM      8  C   UNL     1      -6.947  19.844  65.741  0.00  0.00    +0.000 C 
BRANCH   8   9
ATOM      9  C   UNL     1      -7.335  20.452  67.077  0.00  0.00    +0.000 C 
BRANCH   9  10
ATOM     10  C   UNL     1      -8.511  19.687  67.631  0.00  0.00    +0.000 C 
BRANCH  10  12
ATOM     11  C   UNL     1     -10.539  19.790  66.201  0.00  0.00    +0.000 C 
ATOM     12  C   UNL     1      -9.767  20.480  67.297  0.00  0.00    +0.000 C 
ENDBRANCH  10  12
ENDBRANCH   9  10
ENDBRANCH   8   9
ENDBRANCH   7   8
ENDBRANCH   6   7
ENDBRANCH   5   6
ENDBRANCH   4   5
ENDBRANCH   3   4
ENDBRANCH   2   3
ENDBRANCH   1   2
BRANCH   1  13
ATOM     13  O   UNL     1     -10.118  15.068  69.329  0.00  0.00    -0.451 OA
BRANCH  13  14
ATOM     14  C   UNL     1     -11.111  15.186  70.213  0.00  0.00    +0.337 C 
ATOM     15  O   UNL     1     -11.254  16.182  70.966  0.00  0.00    -0.248 OA
BRANCH  14  16
ATOM     16  C   UNL     1     -11.988  13.898  70.626  0.00  0.00    +0.194 C 
BRANCH  16  17
ATOM     17  N   UNL     1     -13.324  14.712  70.799  0.00  0.00    -0.188 NA
ATOM     18  C   UNL     1     -14.255  14.420  71.748  0.00  0.00    +0.321 C 
ATOM     19  O   UNL     1     -14.027  13.566  72.620  0.00  0.00    -0.263 OA
ENDBRANCH  16  17
BRANCH  16  20
ATOM     20  C   UNL     1     -12.241  13.441  69.061  0.00  0.00    +0.033 C 
BRANCH  20  21
ATOM     21  C   UNL     1     -11.916  11.974  69.080  0.00  0.00    +0.002 C 
ATOM     22  C   UNL     1     -12.077  11.433  70.479  0.00  0.00    +0.000 C 
ATOM     23  C   UNL     1     -10.496  11.801  68.594  0.00  0.00    +0.000 C 
ENDBRANCH  20  21
ENDBRANCH  16  20
ENDBRANCH  14  16
ENDBRANCH  13  14
ENDBRANCH   1  13
BRANCH   1  24
ATOM     24  C   UNL     1     -10.134  16.438  67.455  0.00  0.00    +0.088 C 
BRANCH  24  25
ATOM     25  C   UNL     1      -9.676  15.046  66.713  0.00  0.00    +0.183 C 
ATOM     26  C   UNL     1     -11.201  14.836  65.984  0.00  0.00    +0.139 C 
ATOM     27  C   UNL     1     -10.698  16.060  65.094  0.00  0.00    +0.320 C 
ATOM     28  O   UNL     1     -11.303  16.796  64.308  0.00  0.00    -0.250 OA
ATOM     29  O   UNL     1      -9.365  15.704  65.365  0.00  0.00    -0.451 OA
BRANCH  26  30
ATOM     30  C   UNL     1     -10.631  13.753  64.912  0.00  0.00    +0.015 C 
BRANCH  30  31
ATOM     31  C   UNL     1     -11.748  13.274  64.071  0.00  0.00    +0.001 C 
BRANCH  31  32
ATOM     32  C   UNL     1     -11.383  11.835  63.711  0.00  0.00    +0.000 C 
BRANCH  32  33
ATOM     33  C   UNL     1     -10.604  11.269  64.894  0.00  0.00    +0.000 C 
BRANCH  33  34
ATOM     34  C   UNL     1      -9.581  10.255  64.479  0.00  0.00    +0.000 C 
ATOM     35  C   UNL     1      -9.487  10.094  62.968  0.00  0.00    +0.000 C 
ENDBRANCH  33  34
ENDBRANCH  32  33
ENDBRANCH  31  32
ENDBRANCH  30  31
ENDBRANCH  26  30
ENDBRANCH  24  25
ENDBRANCH   1  24
TORSDOF 23
ENDMDL
MODEL 2
REMARK VINA RESULT:      -5.4      3.008      7.030
REMARK  Name = 
REMARK  23 active torsions:
REMARK  status: ('A' for Active; 'I' for Inactive)
REMARK    1  A    between atoms: C_2  and  C_3
REMARK    2  A    between atoms: C_3  and  C_4
REMARK    3  A    between atoms: C_4  and  C_5
REMARK    4  A    between atoms: C_5  and  C_6
REMARK    5  A    between atoms: C_6  and  C_7
REMARK    6  A    between atoms: C_7  and  C_8
REMARK    7  A    between atoms: C_8  and  C_9
REMARK    8  A    between atoms: C_9  and  C_10
REMARK    9  A    between atoms: C_10  and  C_11
REMARK   10  A    between atoms: C_11  and  C_12
REMARK   11  A    between atoms: C_12  and  C_13
REMARK   12  A    between atoms: C_12  and  O_25
REMARK   13  A    between atoms: C_13  and  C_14
REMARK   14  A    between atoms: C_18  and  C_19
REMARK   15  A    between atoms: C_19  and  C_20
REMARK   16  A    between atoms: C_20  and  C_21
REMARK   17  A    between atoms: C_21  and  C_22
REMARK   18  A    between atoms: C_22  and  C_23
REMARK   19  A    between atoms: O_25  and  C_26
REMARK   20  A    between atoms: C_26  and  C_28
REMARK   21  A    between atoms: C_28  and  C_29
REMARK   22  A    between atoms: C_28  and  N_33
REMARK   23  A    between atoms: C_29  and  C_30
REMARK                            x       y       z     vdW  Elec       q    Type
REMARK                         _______ _______ _______ _____ _____    ______ ____
ROOT
ATOM      1  C   UNL     1      -8.607  15.644  66.692  0.00  0.00    +0.173 C 
ENDROOT
BRANCH   1   2
ATOM      2  C   UNL     1      -9.722  16.409  67.633  0.00  0.00    +0.044 C 
BRANCH   2   3
ATOM      3  C   UNL     1      -9.546  15.940  69.037  0.00  0.00    +0.004 C 
BRANCH   3   4
ATOM      4  C   UNL     1     -10.755  16.510  69.780  0.00  0.00    +0.000 C 
BRANCH   4   5
ATOM      5  C   UNL     1     -11.892  15.580  69.357  0.00  0.00    +0.000 C 
BRANCH   5   6
ATOM      6  C   UNL     1     -11.449  14.214  69.872  0.00  0.00    +0.000 C 
BRANCH   6   7
ATOM      7  C   UNL     1     -12.721  13.491  70.288  0.00  0.00    +0.000 C 
BRANCH   7   8
ATOM      8  C   UNL     1     -12.928  13.531  71.775  0.00  0.00    +0.000 C 
BRANCH   8   9
ATOM      9  C   UNL     1     -14.201  14.309  72.052  0.00  0.00    +0.000 C 
BRANCH   9  10
ATOM     10  C   UNL     1     -13.828  15.665  72.599  0.00  0.00    +0.000 C 
BRANCH  10  12
ATOM     11  C   UNL     1     -12.456  15.753  74.668  0.00  0.00    +0.000 C 
ATOM     12  C   UNL     1     -12.423  15.551  73.174  0.00  0.00    +0.000 C 
ENDBRANCH  10  12
ENDBRANCH   9  10
ENDBRANCH   8   9
ENDBRANCH   7   8
ENDBRANCH   6   7
ENDBRANCH   5   6
ENDBRANCH   4   5
ENDBRANCH   3   4
ENDBRANCH   2   3
ENDBRANCH   1   2
BRANCH   1  13
ATOM     13  O   UNL     1      -8.300  16.914  65.885  0.00  0.00    -0.451 OA
BRANCH  13  14
ATOM     14  C   UNL     1      -7.165  17.572  66.130  0.00  0.00    +0.337 C 
ATOM     15  O   UNL     1      -6.025  17.053  66.018  0.00  0.00    -0.248 OA
BRANCH  14  16
ATOM     16  C   UNL     1      -7.193  18.970  66.931  0.00  0.00    +0.194 C 
BRANCH  16  17
ATOM     17  N   UNL     1      -6.136  19.666  65.995  0.00  0.00    -0.188 NA
ATOM     18  C   UNL     1      -5.743  20.961  66.150  0.00  0.00    +0.321 C 
ATOM     19  O   UNL     1      -6.110  21.622  67.136  0.00  0.00    -0.263 OA
ENDBRANCH  16  17
BRANCH  16  20
ATOM     20  C   UNL     1      -8.536  19.513  66.141  0.00  0.00    +0.033 C 
BRANCH  20  21
ATOM     21  C   UNL     1      -9.364  20.105  67.247  0.00  0.00    +0.002 C 
ATOM     22  C   UNL     1      -8.840  19.636  68.583  0.00  0.00    +0.000 C 
ATOM     23  C   UNL     1     -10.797  19.668  67.047  0.00  0.00    +0.000 C 
ENDBRANCH  20  21
ENDBRANCH  16  20
ENDBRANCH  14  16
ENDBRANCH  13  14
ENDBRANCH   1  13
BRANCH   1  24
ATOM     24  C   UNL     1      -9.739  15.111  65.626  0.00  0.00    +0.088 C 
BRANCH  24  25
ATOM     25  C   UNL     1      -9.659  13.482  65.823  0.00  0.00    +0.183 C 
ATOM     26  C   UNL     1     -11.233  13.400  66.466  0.00  0.00    +0.139 C 
ATOM     27  C   UNL     1     -11.629  13.696  64.950  0.00  0.00    +0.320 C 
ATOM     28  O   UNL     1     -12.706  14.022  64.441  0.00  0.00    -0.250 OA
ATOM     29  O   UNL     1     -10.405  13.149  64.528  0.00  0.00    -0.451 OA
BRANCH  26  30
ATOM     30  C   UNL     1     -11.333  11.793  66.234  0.00  0.00    +0.015 C 
BRANCH  30  31
ATOM     31  C   UNL     1     -11.563  11.131  67.535  0.00  0.00    +0.001 C 
BRANCH  31  32
ATOM     32  C   UNL     1     -10.208  10.542  67.925  0.00  0.00    +0.000 C 
BRANCH  32  33
ATOM     33  C   UNL     1     -10.463   9.579  69.079  0.00  0.00    +0.000 C 
BRANCH  33  34
ATOM     34  C   UNL     1     -11.181  10.228  70.224  0.00  0.00    +0.000 C 
ATOM     35  C   UNL     1     -11.304   9.316  71.438  0.00  0.00    +0.000 C 
ENDBRANCH  33  34
ENDBRANCH  32  33
ENDBRANCH  31  32
ENDBRANCH  30  31
ENDBRANCH  26  30
ENDBRANCH  24  25
ENDBRANCH   1  24
TORSDOF 23
ENDMDL
MODEL 3
REMARK VINA RESULT:      -5.4      2.341      7.106
REMARK  Name = 
REMARK  23 active torsions:
REMARK  status: ('A' for Active; 'I' for Inactive)
REMARK    1  A    between atoms: C_2  and  C_3
REMARK    2  A    between atoms: C_3  and  C_4
REMARK    3  A    between atoms: C_4  and  C_5
REMARK    4  A    between atoms: C_5  and  C_6
REMARK    5  A    between atoms: C_6  and  C_7
REMARK    6  A    between atoms: C_7  and  C_8
REMARK    7  A    between atoms: C_8  and  C_9
REMARK    8  A    between atoms: C_9  and  C_10
REMARK    9  A    between atoms: C_10  and  C_11
REMARK   10  A    between atoms: C_11  and  C_12
REMARK   11  A    between atoms: C_12  and  C_13
REMARK   12  A    between atoms: C_12  and  O_25
REMARK   13  A    between atoms: C_13  and  C_14
REMARK   14  A    between atoms: C_18  and  C_19
REMARK   15  A    between atoms: C_19  and  C_20
REMARK   16  A    between atoms: C_20  and  C_21
REMARK   17  A    between atoms: C_21  and  C_22
REMARK   18  A    between atoms: C_22  and  C_23
REMARK   19  A    between atoms: O_25  and  C_26
REMARK   20  A    between atoms: C_26  and  C_28
REMARK   21  A    between atoms: C_28  and  C_29
REMARK   22  A    between atoms: C_28  and  N_33
REMARK   23  A    between atoms: C_29  and  C_30
REMARK                            x       y       z     vdW  Elec       q    Type
REMARK                         _______ _______ _______ _____ _____    ______ ____
ROOT
ATOM      1  C   UNL     1     -11.152  16.428  68.735  0.00  0.00    +0.173 C 
ENDROOT
BRANCH   1   2
ATOM      2  C   UNL     1      -9.995  15.261  68.632  0.00  0.00    +0.044 C 
BRANCH   2   3
ATOM      3  C   UNL     1      -9.965  14.759  67.228  0.00  0.00    +0.004 C 
BRANCH   3   4
ATOM      4  C   UNL     1      -9.347  13.364  67.339  0.00  0.00    +0.000 C 
BRANCH   4   5
ATOM      5  C   UNL     1     -10.364  12.602  68.189  0.00  0.00    +0.000 C 
BRANCH   5   6
ATOM      6  C   UNL     1     -10.975  11.606  67.208  0.00  0.00    +0.000 C 
BRANCH   6   7
ATOM      7  C   UNL     1      -9.864  11.241  66.234  0.00  0.00    +0.000 C 
BRANCH   7   8
ATOM      8  C   UNL     1     -10.406  10.771  64.915  0.00  0.00    +0.000 C 
BRANCH   8   9
ATOM      9  C   UNL     1     -10.391  11.946  63.955  0.00  0.00    +0.000 C 
BRANCH   9  10
ATOM     10  C   UNL     1     -11.813  12.385  63.708  0.00  0.00    +0.000 C 
BRANCH  10  12
ATOM     11  C   UNL     1     -12.923  13.878  65.355  0.00  0.00    +0.000 C 
ATOM     12  C   UNL     1     -11.940  13.816  64.214  0.00  0.00    +0.000 C 
ENDBRANCH  10  12
ENDBRANCH   9  10
ENDBRANCH   8   9
ENDBRANCH   7   8
ENDBRANCH   6   7
ENDBRANCH   5   6
ENDBRANCH   4   5
ENDBRANCH   3   4
ENDBRANCH   2   3
ENDBRANCH   1   2
BRANCH   1  13
ATOM     13  O   UNL     1     -10.123  17.538  68.993  0.00  0.00    -0.451 OA
BRANCH  13  14
ATOM     14  C   UNL     1      -9.946  18.478  68.061  0.00  0.00    +0.337 C 
ATOM     15  O   UNL     1     -10.890  19.130  67.546  0.00  0.00    -0.248 OA
BRANCH  14  16
ATOM     16  C   UNL     1      -8.543  18.588  67.275  0.00  0.00    +0.194 C 
BRANCH  16  17
ATOM     17  N   UNL     1      -8.323  20.104  67.635  0.00  0.00    -0.188 NA
ATOM     18  C   UNL     1      -7.272  20.834  67.169  0.00  0.00    +0.321 C 
ATOM     19  O   UNL     1      -6.500  20.364  66.317  0.00  0.00    -0.263 OA
ENDBRANCH  16  17
BRANCH  16  20
ATOM     20  C   UNL     1      -7.674  17.964  68.531  0.00  0.00    +0.033 C 
BRANCH  20  21
ATOM     21  C   UNL     1      -6.612  17.156  67.840  0.00  0.00    +0.002 C 
ATOM     22  C   UNL     1      -7.024  16.885  66.414  0.00  0.00    +0.000 C 
ATOM     23  C   UNL     1      -6.433  15.864  68.604  0.00  0.00    +0.000 C 
ENDBRANCH  20  21
ENDBRANCH  16  20
ENDBRANCH  14  16
ENDBRANCH  13  14
ENDBRANCH   1  13
BRANCH   1  24
ATOM     24  C   UNL     1     -11.415  16.154  70.335  0.00  0.00    +0.088 C 
BRANCH  24  25
ATOM     25  C   UNL     1     -12.763  15.214  70.307  0.00  0.00    +0.183 C 
ATOM     26  C   UNL     1     -12.142  14.145  71.478  0.00  0.00    +0.139 C 
ATOM     27  C   UNL     1     -12.423  15.386  72.439  0.00  0.00    +0.320 C 
ATOM     28  O   UNL     1     -12.069  15.609  73.601  0.00  0.00    -0.250 OA
ATOM     29  O   UNL     1     -13.401  15.853  71.544  0.00  0.00    -0.451 OA
BRANCH  26  30
ATOM     30  C   UNL     1     -13.605  13.505  71.789  0.00  0.00    +0.015 C 
BRANCH  30  31
ATOM     31  C   UNL     1     -13.450  12.062  72.066  0.00  0.00    +0.001 C 
BRANCH  31  32
ATOM     32  C   UNL     1     -12.467  11.559  71.011  0.00  0.00    +0.000 C 
BRANCH  32  33
ATOM     33  C   UNL     1     -12.477  10.036  71.091  0.00  0.00    +0.000 C 
BRANCH  33  34
ATOM     34  C   UNL     1     -11.104   9.458  71.266  0.00  0.00    +0.000 C 
ATOM     35  C   UNL     1     -10.366   9.279  69.947  0.00  0.00    +0.000 C 
ENDBRANCH  33  34
ENDBRANCH  32  33
ENDBRANCH  31  32
ENDBRANCH  30  31
ENDBRANCH  26  30
ENDBRANCH  24  25
ENDBRANCH   1  24
TORSDOF 23
ENDMDL
MODEL 4
REMARK VINA RESULT:      -5.4      2.311      6.838
REMARK  Name = 
REMARK  23 active torsions:
REMARK  status: ('A' for Active; 'I' for Inactive)
REMARK    1  A    between atoms: C_2  and  C_3
REMARK    2  A    between atoms: C_3  and  C_4
REMARK    3  A    between atoms: C_4  and  C_5
REMARK    4  A    between atoms: C_5  and  C_6
REMARK    5  A    between atoms: C_6  and  C_7
REMARK    6  A    between atoms: C_7  and  C_8
REMARK    7  A    between atoms: C_8  and  C_9
REMARK    8  A    between atoms: C_9  and  C_10
REMARK    9  A    between atoms: C_10  and  C_11
REMARK   10  A    between atoms: C_11  and  C_12
REMARK   11  A    between atoms: C_12  and  C_13
REMARK   12  A    between atoms: C_12  and  O_25
REMARK   13  A    between atoms: C_13  and  C_14
REMARK   14  A    between atoms: C_18  and  C_19
REMARK   15  A    between atoms: C_19  and  C_20
REMARK   16  A    between atoms: C_20  and  C_21
REMARK   17  A    between atoms: C_21  and  C_22
REMARK   18  A    between atoms: C_22  and  C_23
REMARK   19  A    between atoms: O_25  and  C_26
REMARK   20  A    between atoms: C_26  and  C_28
REMARK   21  A    between atoms: C_28  and  C_29
REMARK   22  A    between atoms: C_28  and  N_33
REMARK   23  A    between atoms: C_29  and  C_30
REMARK                            x       y       z     vdW  Elec       q    Type
REMARK                         _______ _______ _______ _____ _____    ______ ____
ROOT
ATOM      1  C   UNL     1     -10.969  15.688  69.006  0.00  0.00    +0.173 C 
ENDROOT
BRANCH   1   2
ATOM      2  C   UNL     1     -12.236  15.722  70.058  0.00  0.00    +0.044 C 
BRANCH   2   3
ATOM      3  C   UNL     1     -11.715  16.109  71.400  0.00  0.00    +0.004 C 
BRANCH   3   4
ATOM      4  C   UNL     1     -12.031  14.904  72.289  0.00  0.00    +0.000 C 
BRANCH   4   5
ATOM      5  C   UNL     1     -13.520  14.670  72.038  0.00  0.00    +0.000 C 
BRANCH   5   6
ATOM      6  C   UNL     1     -13.709  13.189  72.354  0.00  0.00    +0.000 C 
BRANCH   6   7
ATOM      7  C   UNL     1     -12.841  12.435  71.357  0.00  0.00    +0.000 C 
BRANCH   7   8
ATOM      8  C   UNL     1     -12.975  10.947  71.511  0.00  0.00    +0.000 C 
BRANCH   8   9
ATOM      9  C   UNL     1     -11.925  10.287  70.636  0.00  0.00    +0.000 C 
BRANCH   9  10
ATOM     10  C   UNL     1     -11.371  11.319  69.686  0.00  0.00    +0.000 C 
BRANCH  10  12
ATOM     11  C   UNL     1     -10.697   9.489  68.147  0.00  0.00    +0.000 C 
ATOM     12  C   UNL     1     -10.210  10.673  68.942  0.00  0.00    +0.000 C 
ENDBRANCH  10  12
ENDBRANCH   9  10
ENDBRANCH   8   9
ENDBRANCH   7   8
ENDBRANCH   6   7
ENDBRANCH   5   6
ENDBRANCH   4   5
ENDBRANCH   3   4
ENDBRANCH   2   3
ENDBRANCH   1   2
BRANCH   1  13
ATOM     13  O   UNL     1     -11.394  16.999  68.328  0.00  0.00    -0.451 OA
BRANCH  13  14
ATOM     14  C   UNL     1     -10.455  17.768  67.773  0.00  0.00    +0.337 C 
ATOM     15  O   UNL     1     -10.605  18.365  66.677  0.00  0.00    -0.248 OA
BRANCH  14  16
ATOM     16  C   UNL     1      -8.932  17.696  68.299  0.00  0.00    +0.194 C 
BRANCH  16  17
ATOM     17  N   UNL     1      -8.322  17.470  66.866  0.00  0.00    -0.188 NA
ATOM     18  C   UNL     1      -7.571  16.381  66.541  0.00  0.00    +0.321 C 
ATOM     19  O   UNL     1      -7.443  15.437  67.337  0.00  0.00    -0.263 OA
ENDBRANCH  16  17
BRANCH  16  20
ATOM     20  C   UNL     1      -8.756  19.336  68.326  0.00  0.00    +0.033 C 
BRANCH  20  21
ATOM     21  C   UNL     1      -7.271  19.520  68.187  0.00  0.00    +0.002 C 
ATOM     22  C   UNL     1      -6.643  19.651  69.553  0.00  0.00    +0.000 C 
ATOM     23  C   UNL     1      -7.027  20.761  67.360  0.00  0.00    +0.000 C 
ENDBRANCH  20  21
ENDBRANCH  16  20
ENDBRANCH  14  16
ENDBRANCH  13  14
ENDBRANCH   1  13
BRANCH   1  24
ATOM     24  C   UNL     1     -11.773  14.744  67.926  0.00  0.00    +0.088 C 
BRANCH  24  25
ATOM     25  C   UNL     1     -10.541  13.983  67.149  0.00  0.00    +0.183 C 
ATOM     26  C   UNL     1     -11.597  12.910  66.353  0.00  0.00    +0.139 C 
ATOM     27  C   UNL     1     -11.962  14.227  65.533  0.00  0.00    +0.320 C 
ATOM     28  O   UNL     1     -12.889  14.468  64.753  0.00  0.00    -0.250 OA
ATOM     29  O   UNL     1     -10.700  14.765  65.841  0.00  0.00    -0.451 OA
BRANCH  26  30
ATOM     30  C   UNL     1     -10.470  12.479  65.263  0.00  0.00    +0.015 C 
BRANCH  30  31
ATOM     31  C   UNL     1     -11.040  11.461  64.356  0.00  0.00    +0.001 C 
BRANCH  31  32
ATOM     32  C   UNL     1      -9.832  10.768  63.728  0.00  0.00    +0.000 C 
BRANCH  32  33
ATOM     33  C   UNL     1      -9.391   9.683  64.704  0.00  0.00    +0.000 C 
BRANCH  33  34
ATOM     34  C   UNL     1      -7.916   9.710  64.970  0.00  0.00    +0.000 C 
ATOM     35  C   UNL     1      -7.560  10.458  66.248  0.00  0.00    +0.000 C 
ENDBRANCH  33  34
ENDBRANCH  32  33
ENDBRANCH  31  32
ENDBRANCH  30  31
ENDBRANCH  26  30
ENDBRANCH  24  25
ENDBRANCH   1  24
TORSDOF 23
ENDMDL
MODEL 5
REMARK VINA RESULT:      -5.3      2.239      7.933
REMARK  Name = 
REMARK  23 active torsions:
REMARK  status: ('A' for Active; 'I' for Inactive)
REMARK    1  A    between atoms: C_2  and  C_3
REMARK    2  A    between atoms: C_3  and  C_4
REMARK    3  A    between atoms: C_4  and  C_5
REMARK    4  A    between atoms: C_5  and  C_6
REMARK    5  A    between atoms: C_6  and  C_7
REMARK    6  A    between atoms: C_7  and  C_8
REMARK    7  A    between atoms: C_8  and  C_9
REMARK    8  A    between atoms: C_9  and  C_10
REMARK    9  A    between atoms: C_10  and  C_11
REMARK   10  A    between atoms: C_11  and  C_12
REMARK   11  A    between atoms: C_12  and  C_13
REMARK   12  A    between atoms: C_12  and  O_25
REMARK   13  A    between atoms: C_13  and  C_14
REMARK   14  A    between atoms: C_18  and  C_19
REMARK   15  A    between atoms: C_19  and  C_20
REMARK   16  A    between atoms: C_20  and  C_21
REMARK   17  A    between atoms: C_21  and  C_22
REMARK   18  A    between atoms: C_22  and  C_23
REMARK   19  A    between atoms: O_25  and  C_26
REMARK   20  A    between atoms: C_26  and  C_28
REMARK   21  A    between atoms: C_28  and  C_29
REMARK   22  A    between atoms: C_28  and  N_33
REMARK   23  A    between atoms: C_29  and  C_30
REMARK                            x       y       z     vdW  Elec       q    Type
REMARK                         _______ _______ _______ _____ _____    ______ ____
ROOT
ATOM      1  C   UNL     1     -12.092  14.092  65.174  0.00  0.00    +0.173 C 
ENDROOT
BRANCH   1   2
ATOM      2  C   UNL     1     -11.702  13.041  63.967  0.00  0.00    +0.044 C 
BRANCH   2   3
ATOM      3  C   UNL     1     -10.603  12.160  64.456  0.00  0.00    +0.004 C 
BRANCH   3   4
ATOM      4  C   UNL     1     -10.423  11.128  63.341  0.00  0.00    +0.000 C 
BRANCH   4   5
ATOM      5  C   UNL     1      -9.606  10.027  64.017  0.00  0.00    +0.000 C 
BRANCH   5   6
ATOM      6  C   UNL     1      -8.933  10.745  65.184  0.00  0.00    +0.000 C 
BRANCH   6   7
ATOM      7  C   UNL     1      -8.850   9.726  66.311  0.00  0.00    +0.000 C 
BRANCH   7   8
ATOM      8  C   UNL     1     -10.169   9.050  66.552  0.00  0.00    +0.000 C 
BRANCH   8   9
ATOM      9  C   UNL     1     -10.387   8.964  68.052  0.00  0.00    +0.000 C 
BRANCH   9  10
ATOM     10  C   UNL     1      -9.046   8.816  68.727  0.00  0.00    +0.000 C 
BRANCH  10  12
ATOM     11  C   UNL     1     -10.484   9.512  70.629  0.00  0.00    +0.000 C 
ATOM     12  C   UNL     1      -9.303   8.669  70.220  0.00  0.00    +0.000 C 
ENDBRANCH  10  12
ENDBRANCH   9  10
ENDBRANCH   8   9
ENDBRANCH   7   8
ENDBRANCH   6   7
ENDBRANCH   5   6
ENDBRANCH   4   5
ENDBRANCH   3   4
ENDBRANCH   2   3
ENDBRANCH   1   2
BRANCH   1  13
ATOM     13  O   UNL     1     -10.815  14.921  64.971  0.00  0.00    -0.451 OA
BRANCH  13  14
ATOM     14  C   UNL     1     -10.869  16.241  65.169  0.00  0.00    +0.337 C 
ATOM     15  O   UNL     1     -11.217  17.061  64.283  0.00  0.00    -0.248 OA
BRANCH  14  16
ATOM     16  C   UNL     1     -10.147  16.899  66.451  0.00  0.00    +0.194 C 
BRANCH  16  17
ATOM     17  N   UNL     1      -8.704  16.830  65.825  0.00  0.00    -0.188 NA
ATOM     18  C   UNL     1      -7.633  16.306  66.481  0.00  0.00    +0.321 C 
ATOM     19  O   UNL     1      -7.776  15.728  67.571  0.00  0.00    -0.263 OA
ENDBRANCH  16  17
BRANCH  16  20
ATOM     20  C   UNL     1     -10.489  18.442  65.979  0.00  0.00    +0.033 C 
BRANCH  20  21
ATOM     21  C   UNL     1     -10.559  19.187  67.282  0.00  0.00    +0.002 C 
ATOM     22  C   UNL     1      -9.565  20.322  67.277  0.00  0.00    +0.000 C 
ATOM     23  C   UNL     1     -10.258  18.213  68.397  0.00  0.00    +0.000 C 
ENDBRANCH  20  21
ENDBRANCH  16  20
ENDBRANCH  14  16
ENDBRANCH  13  14
ENDBRANCH   1  13
BRANCH   1  24
ATOM     24  C   UNL     1     -11.421  13.146  66.339  0.00  0.00    +0.088 C 
BRANCH  24  25
ATOM     25  C   UNL     1     -12.034  13.805  67.714  0.00  0.00    +0.183 C 
ATOM     26  C   UNL     1     -11.747  12.390  68.617  0.00  0.00    +0.139 C 
ATOM     27  C   UNL     1     -10.233  12.869  68.471  0.00  0.00    +0.320 C 
ATOM     28  O   UNL     1      -9.170  12.284  68.702  0.00  0.00    -0.250 OA
ATOM     29  O   UNL     1     -10.673  14.193  68.298  0.00  0.00    -0.451 OA
BRANCH  26  30
ATOM     30  C   UNL     1     -11.910  13.166  70.038  0.00  0.00    +0.015 C 
BRANCH  30  31
ATOM     31  C   UNL     1     -12.771  12.361  70.930  0.00  0.00    +0.001 C 
BRANCH  31  32
ATOM     32  C   UNL     1     -12.922  13.201  72.197  0.00  0.00    +0.000 C 
BRANCH  32  33
ATOM     33  C   UNL     1     -14.244  13.951  72.072  0.00  0.00    +0.000 C 
BRANCH  33  34
ATOM     34  C   UNL     1     -14.081  15.434  72.216  0.00  0.00    +0.000 C 
ATOM     35  C   UNL     1     -13.114  15.818  73.328  0.00  0.00    +0.000 C 
ENDBRANCH  33  34
ENDBRANCH  32  33
ENDBRANCH  31  32
ENDBRANCH  30  31
ENDBRANCH  26  30
ENDBRANCH  24  25
ENDBRANCH   1  24
TORSDOF 23
ENDMDL
MODEL 6
REMARK VINA RESULT:      -5.3      2.622      7.758
REMARK  Name = 
REMARK  23 active torsions:
REMARK  status: ('A' for Active; 'I' for Inactive)
REMARK    1  A    between atoms: C_2  and  C_3
REMARK    2  A    between atoms: C_3  and  C_4
REMARK    3  A    between atoms: C_4  and  C_5
REMARK    4  A    between atoms: C_5  and  C_6
REMARK    5  A    between atoms: C_6  and  C_7
REMARK    6  A    between atoms: C_7  and  C_8
REMARK    7  A    between atoms: C_8  and  C_9
REMARK    8  A    between atoms: C_9  and  C_10
REMARK    9  A    between atoms: C_10  and  C_11
REMARK   10  A    between atoms: C_11  and  C_12
REMARK   11  A    between atoms: C_12  and  C_13
REMARK   12  A    between atoms: C_12  and  O_25
REMARK   13  A    between atoms: C_13  and  C_14
REMARK   14  A    between atoms: C_18  and  C_19
REMARK   15  A    between atoms: C_19  and  C_20
REMARK   16  A    between atoms: C_20  and  C_21
REMARK   17  A    between atoms: C_21  and  C_22
REMARK   18  A    between atoms: C_22  and  C_23
REMARK   19  A    between atoms: O_25  and  C_26
REMARK   20  A    between atoms: C_26  and  C_28
REMARK   21  A    between atoms: C_28  and  C_29
REMARK   22  A    between atoms: C_28  and  N_33
REMARK   23  A    between atoms: C_29  and  C_30
REMARK                            x       y       z     vdW  Elec       q    Type
REMARK                         _______ _______ _______ _____ _____    ______ ____
ROOT
ATOM      1  C   UNL     1     -10.717  15.807  69.096  0.00  0.00    +0.173 C 
ENDROOT
BRANCH   1   2
ATOM      2  C   UNL     1     -11.804  15.740  70.332  0.00  0.00    +0.044 C 
BRANCH   2   3
ATOM      3  C   UNL     1     -12.443  14.393  70.316  0.00  0.00    +0.004 C 
BRANCH   3   4
ATOM      4  C   UNL     1     -12.909  14.179  71.757  0.00  0.00    +0.000 C 
BRANCH   4   5
ATOM      5  C   UNL     1     -13.177  12.676  71.815  0.00  0.00    +0.000 C 
BRANCH   5   6
ATOM      6  C   UNL     1     -12.301  12.112  70.701  0.00  0.00    +0.000 C 
BRANCH   6   7
ATOM      7  C   UNL     1     -12.575  10.615  70.669  0.00  0.00    +0.000 C 
BRANCH   7   8
ATOM      8  C   UNL     1     -13.255  10.144  71.922  0.00  0.00    +0.000 C 
BRANCH   8   9
ATOM      9  C   UNL     1     -12.914   8.678  72.119  0.00  0.00    +0.000 C 
BRANCH   9  10
ATOM     10  C   UNL     1     -11.659   8.366  71.344  0.00  0.00    +0.000 C 
BRANCH  10  12
ATOM     11  C   UNL     1     -11.145   5.961  71.698  0.00  0.00    +0.000 C 
ATOM     12  C   UNL     1     -11.810   6.959  70.783  0.00  0.00    +0.000 C 
ENDBRANCH  10  12
ENDBRANCH   9  10
ENDBRANCH   8   9
ENDBRANCH   7   8
ENDBRANCH   6   7
ENDBRANCH   5   6
ENDBRANCH   4   5
ENDBRANCH   3   4
ENDBRANCH   2   3
ENDBRANCH   1   2
BRANCH   1  13
ATOM     13  O   UNL     1     -11.341  17.084  68.512  0.00  0.00    -0.451 OA
BRANCH  13  14
ATOM     14  C   UNL     1     -10.535  18.087  68.156  0.00  0.00    +0.337 C 
ATOM     15  O   UNL     1     -10.933  19.114  67.551  0.00  0.00    -0.248 OA
BRANCH  14  16
ATOM     16  C   UNL     1      -8.936  17.883  68.160  0.00  0.00    +0.194 C 
BRANCH  16  17
ATOM     17  N   UNL     1      -8.874  17.383  66.669  0.00  0.00    -0.188 NA
ATOM     18  C   UNL     1      -7.976  16.458  66.232  0.00  0.00    +0.321 C 
ATOM     19  O   UNL     1      -7.240  15.859  67.033  0.00  0.00    -0.263 OA
ENDBRANCH  16  17
BRANCH  16  20
ATOM     20  C   UNL     1      -8.630  19.473  67.843  0.00  0.00    +0.033 C 
BRANCH  20  21
ATOM     21  C   UNL     1      -7.131  19.549  67.906  0.00  0.00    +0.002 C 
ATOM     22  C   UNL     1      -6.666  19.308  69.321  0.00  0.00    +0.000 C 
ATOM     23  C   UNL     1      -6.709  20.919  67.426  0.00  0.00    +0.000 C 
ENDBRANCH  20  21
ENDBRANCH  16  20
ENDBRANCH  14  16
ENDBRANCH  13  14
ENDBRANCH   1  13
BRANCH   1  24
ATOM     24  C   UNL     1     -11.606  14.808  68.139  0.00  0.00    +0.088 C 
BRANCH  24  25
ATOM     25  C   UNL     1     -10.441  13.959  67.351  0.00  0.00    +0.183 C 
ATOM     26  C   UNL     1     -11.514  12.697  66.954  0.00  0.00    +0.139 C 
ATOM     27  C   UNL     1     -12.087  13.797  65.953  0.00  0.00    +0.320 C 
ATOM     28  O   UNL     1     -13.129  13.829  65.291  0.00  0.00    -0.250 OA
ATOM     29  O   UNL     1     -10.839  14.444  65.954  0.00  0.00    -0.451 OA
BRANCH  26  30
ATOM     30  C   UNL     1     -10.519  12.100  65.813  0.00  0.00    +0.015 C 
BRANCH  30  31
ATOM     31  C   UNL     1     -10.372  10.644  66.016  0.00  0.00    +0.001 C 
BRANCH  31  32
ATOM     32  C   UNL     1     -11.027  10.364  67.367  0.00  0.00    +0.000 C 
BRANCH  32  33
ATOM     33  C   UNL     1     -10.062   9.478  68.149  0.00  0.00    +0.000 C 
BRANCH  33  34
ATOM     34  C   UNL     1      -8.972  10.261  68.816  0.00  0.00    +0.000 C 
ATOM     35  C   UNL     1      -8.518   9.639  70.130  0.00  0.00    +0.000 C 
ENDBRANCH  33  34
ENDBRANCH  32  33
ENDBRANCH  31  32
ENDBRANCH  30  31
ENDBRANCH  26  30
ENDBRANCH  24  25
ENDBRANCH   1  24
TORSDOF 23
ENDMDL
MODEL 7
REMARK VINA RESULT:      -5.3      2.388      7.299
REMARK  Name = 
REMARK  23 active torsions:
REMARK  status: ('A' for Active; 'I' for Inactive)
REMARK    1  A    between atoms: C_2  and  C_3
REMARK    2  A    between atoms: C_3  and  C_4
REMARK    3  A    between atoms: C_4  and  C_5
REMARK    4  A    between atoms: C_5  and  C_6
REMARK    5  A    between atoms: C_6  and  C_7
REMARK    6  A    between atoms: C_7  and  C_8
REMARK    7  A    between atoms: C_8  and  C_9
REMARK    8  A    between atoms: C_9  and  C_10
REMARK    9  A    between atoms: C_10  and  C_11
REMARK   10  A    between atoms: C_11  and  C_12
REMARK   11  A    between atoms: C_12  and  C_13
REMARK   12  A    between atoms: C_12  and  O_25
REMARK   13  A    between atoms: C_13  and  C_14
REMARK   14  A    between atoms: C_18  and  C_19
REMARK   15  A    between atoms: C_19  and  C_20
REMARK   16  A    between atoms: C_20  and  C_21
REMARK   17  A    between atoms: C_21  and  C_22
REMARK   18  A    between atoms: C_22  and  C_23
REMARK   19  A    between atoms: O_25  and  C_26
REMARK   20  A    between atoms: C_26  and  C_28
REMARK   21  A    between atoms: C_28  and  C_29
REMARK   22  A    between atoms: C_28  and  N_33
REMARK   23  A    between atoms: C_29  and  C_30
REMARK                            x       y       z     vdW  Elec       q    Type
REMARK                         _______ _______ _______ _____ _____    ______ ____
ROOT
ATOM      1  C   UNL     1     -10.117  15.142  68.197  0.00  0.00    +0.173 C 
ENDROOT
BRANCH   1   2
ATOM      2  C   UNL     1     -11.539  15.299  69.013  0.00  0.00    +0.044 C 
BRANCH   2   3
ATOM      3  C   UNL     1     -11.308  16.200  70.178  0.00  0.00    +0.004 C 
BRANCH   3   4
ATOM      4  C   UNL     1     -12.393  15.805  71.182  0.00  0.00    +0.000 C 
BRANCH   4   5
ATOM      5  C   UNL     1     -12.821  14.418  70.700  0.00  0.00    +0.000 C 
BRANCH   5   6
ATOM      6  C   UNL     1     -13.455  13.789  71.937  0.00  0.00    +0.000 C 
BRANCH   6   7
ATOM      7  C   UNL     1     -13.156  12.299  71.849  0.00  0.00    +0.000 C 
BRANCH   7   8
ATOM      8  C   UNL     1     -12.286  11.972  70.669  0.00  0.00    +0.000 C 
BRANCH   8   9
ATOM      9  C   UNL     1     -12.344  10.472  70.444  0.00  0.00    +0.000 C 
BRANCH   9  10
ATOM     10  C   UNL     1     -12.966   9.825  71.656  0.00  0.00    +0.000 C 
BRANCH  10  12
ATOM     11  C   UNL     1     -11.474   8.077  72.600  0.00  0.00    +0.000 C 
ATOM     12  C   UNL     1     -12.592   8.350  71.626  0.00  0.00    +0.000 C 
ENDBRANCH  10  12
ENDBRANCH   9  10
ENDBRANCH   8   9
ENDBRANCH   7   8
ENDBRANCH   6   7
ENDBRANCH   5   6
ENDBRANCH   4   5
ENDBRANCH   3   4
ENDBRANCH   2   3
ENDBRANCH   1   2
BRANCH   1  13
ATOM     13  O   UNL     1     -10.743  15.576  66.863  0.00  0.00    -0.451 OA
BRANCH  13  14
ATOM     14  C   UNL     1     -10.363  16.737  66.324  0.00  0.00    +0.337 C 
ATOM     15  O   UNL     1     -10.634  17.075  65.144  0.00  0.00    -0.248 OA
BRANCH  14  16
ATOM     16  C   UNL     1      -9.226  17.629  67.037  0.00  0.00    +0.194 C 
BRANCH  16  17
ATOM     17  N   UNL     1      -8.119  17.286  65.972  0.00  0.00    -0.188 NA
ATOM     18  C   UNL     1      -6.811  17.090  66.296  0.00  0.00    +0.321 C 
ATOM     19  O   UNL     1      -6.451  17.042  67.483  0.00  0.00    -0.263 OA
ENDBRANCH  16  17
BRANCH  16  20
ATOM     20  C   UNL     1      -9.741  19.030  66.335  0.00  0.00    +0.033 C 
BRANCH  20  21
ATOM     21  C   UNL     1      -9.468  20.061  67.395  0.00  0.00    +0.002 C 
ATOM     22  C   UNL     1      -8.029  20.507  67.313  0.00  0.00    +0.000 C 
ATOM     23  C   UNL     1      -9.764  19.440  68.740  0.00  0.00    +0.000 C 
ENDBRANCH  20  21
ENDBRANCH  16  20
ENDBRANCH  14  16
ENDBRANCH  13  14
ENDBRANCH   1  13
BRANCH   1  24
ATOM     24  C   UNL     1     -10.354  13.540  67.909  0.00  0.00    +0.088 C 
BRANCH  24  25
ATOM     25  C   UNL     1     -11.605  13.562  66.845  0.00  0.00    +0.183 C 
ATOM     26  C   UNL     1     -10.785  12.565  65.734  0.00  0.00    +0.139 C 
ATOM     27  C   UNL     1     -11.095  11.458  66.839  0.00  0.00    +0.320 C 
ATOM     28  O   UNL     1     -10.662  10.310  66.981  0.00  0.00    -0.250 OA
ATOM     29  O   UNL     1     -12.188  12.218  67.289  0.00  0.00    -0.451 OA
BRANCH  26  30
ATOM     30  C   UNL     1     -12.148  12.210  64.920  0.00  0.00    +0.015 C 
BRANCH  30  31
ATOM     31  C   UNL     1     -11.822  12.024  63.491  0.00  0.00    +0.001 C 
BRANCH  31  32
ATOM     32  C   UNL     1     -10.295  12.021  63.431  0.00  0.00    +0.000 C 
BRANCH  32  33
ATOM     33  C   UNL     1      -9.870  10.589  63.121  0.00  0.00    +0.000 C 
BRANCH  33  34
ATOM     34  C   UNL     1      -8.577  10.215  63.780  0.00  0.00    +0.000 C 
ATOM     35  C   UNL     1      -8.645   8.872  64.495  0.00  0.00    +0.000 C 
ENDBRANCH  33  34
ENDBRANCH  32  33
ENDBRANCH  31  32
ENDBRANCH  30  31
ENDBRANCH  26  30
ENDBRANCH  24  25
ENDBRANCH   1  24
TORSDOF 23
ENDMDL
MODEL 8
REMARK VINA RESULT:      -5.3      2.329      7.285
REMARK  Name = 
REMARK  23 active torsions:
REMARK  status: ('A' for Active; 'I' for Inactive)
REMARK    1  A    between atoms: C_2  and  C_3
REMARK    2  A    between atoms: C_3  and  C_4
REMARK    3  A    between atoms: C_4  and  C_5
REMARK    4  A    between atoms: C_5  and  C_6
REMARK    5  A    between atoms: C_6  and  C_7
REMARK    6  A    between atoms: C_7  and  C_8
REMARK    7  A    between atoms: C_8  and  C_9
REMARK    8  A    between atoms: C_9  and  C_10
REMARK    9  A    between atoms: C_10  and  C_11
REMARK   10  A    between atoms: C_11  and  C_12
REMARK   11  A    between atoms: C_12  and  C_13
REMARK   12  A    between atoms: C_12  and  O_25
REMARK   13  A    between atoms: C_13  and  C_14
REMARK   14  A    between atoms: C_18  and  C_19
REMARK   15  A    between atoms: C_19  and  C_20
REMARK   16  A    between atoms: C_20  and  C_21
REMARK   17  A    between atoms: C_21  and  C_22
REMARK   18  A    between atoms: C_22  and  C_23
REMARK   19  A    between atoms: O_25  and  C_26
REMARK   20  A    between atoms: C_26  and  C_28
REMARK   21  A    between atoms: C_28  and  C_29
REMARK   22  A    between atoms: C_28  and  N_33
REMARK   23  A    between atoms: C_29  and  C_30
REMARK                            x       y       z     vdW  Elec       q    Type
REMARK                         _______ _______ _______ _____ _____    ______ ____
ROOT
ATOM      1  C   UNL     1     -10.265  16.511  68.234  0.00  0.00    +0.173 C 
ENDROOT
BRANCH   1   2
ATOM      2  C   UNL     1     -10.888  15.161  67.525  0.00  0.00    +0.044 C 
BRANCH   2   3
ATOM      3  C   UNL     1      -9.952  14.727  66.448  0.00  0.00    +0.004 C 
BRANCH   3   4
ATOM      4  C   UNL     1     -10.769  14.860  65.162  0.00  0.00    +0.000 C 
BRANCH   4   5
ATOM      5  C   UNL     1     -11.859  13.802  65.334  0.00  0.00    +0.000 C 
BRANCH   5   6
ATOM      6  C   UNL     1     -11.966  13.168  63.951  0.00  0.00    +0.000 C 
BRANCH   6   7
ATOM      7  C   UNL     1     -10.676  12.386  63.748  0.00  0.00    +0.000 C 
BRANCH   7   8
ATOM      8  C   UNL     1     -10.654  11.122  64.557  0.00  0.00    +0.000 C 
BRANCH   8   9
ATOM      9  C   UNL     1      -9.292  11.010  65.219  0.00  0.00    +0.000 C 
BRANCH   9  10
ATOM     10  C   UNL     1      -9.470  11.131  66.711  0.00  0.00    +0.000 C 
BRANCH  10  12
ATOM     11  C   UNL     1     -11.493  11.501  68.104  0.00  0.00    +0.000 C 
ATOM     12  C   UNL     1     -10.868  10.630  67.044  0.00  0.00    +0.000 C 
ENDBRANCH  10  12
ENDBRANCH   9  10
ENDBRANCH   8   9
ENDBRANCH   7   8
ENDBRANCH   6   7
ENDBRANCH   5   6
ENDBRANCH   4   5
ENDBRANCH   3   4
ENDBRANCH   2   3
ENDBRANCH   1   2
BRANCH   1  13
ATOM     13  O   UNL     1      -8.820  16.008  68.105  0.00  0.00    -0.451 OA
BRANCH  13  14
ATOM     14  C   UNL     1      -7.835  16.903  68.002  0.00  0.00    +0.337 C 
ATOM     15  O   UNL     1      -6.619  16.593  67.933  0.00  0.00    -0.248 OA
BRANCH  14  16
ATOM     16  C   UNL     1      -8.117  18.459  68.319  0.00  0.00    +0.194 C 
BRANCH  16  17
ATOM     17  N   UNL     1      -6.594  18.857  68.326  0.00  0.00    -0.188 NA
ATOM     18  C   UNL     1      -6.039  19.657  69.279  0.00  0.00    +0.321 C 
ATOM     19  O   UNL     1      -6.694  20.005  70.275  0.00  0.00    -0.263 OA
ENDBRANCH  16  17
BRANCH  16  20
ATOM     20  C   UNL     1      -8.407  18.834  66.738  0.00  0.00    +0.033 C 
BRANCH  20  21
ATOM     21  C   UNL     1      -9.458  19.904  66.832  0.00  0.00    +0.002 C 
ATOM     22  C   UNL     1      -9.981  19.984  68.245  0.00  0.00    +0.000 C 
ATOM     23  C   UNL     1     -10.567  19.558  65.865  0.00  0.00    +0.000 C 
ENDBRANCH  20  21
ENDBRANCH  16  20
ENDBRANCH  14  16
ENDBRANCH  13  14
ENDBRANCH   1  13
BRANCH   1  24
ATOM     24  C   UNL     1     -10.452  15.911  69.753  0.00  0.00    +0.088 C 
BRANCH  24  25
ATOM     25  C   UNL     1     -11.888  15.119  69.637  0.00  0.00    +0.183 C 
ATOM     26  C   UNL     1     -11.725  14.428  71.185  0.00  0.00    +0.139 C 
ATOM     27  C   UNL     1     -12.021  15.926  71.643  0.00  0.00    +0.320 C 
ATOM     28  O   UNL     1     -11.911  16.475  72.744  0.00  0.00    -0.250 OA
ATOM     29  O   UNL     1     -12.683  16.163  70.426  0.00  0.00    -0.451 OA
BRANCH  26  30
ATOM     30  C   UNL     1     -13.301  14.035  71.266  0.00  0.00    +0.015 C 
BRANCH  30  31
ATOM     31  C   UNL     1     -13.453  12.815  72.084  0.00  0.00    +0.001 C 
BRANCH  31  32
ATOM     32  C   UNL     1     -12.767  11.711  71.281  0.00  0.00    +0.000 C 
BRANCH  32  33
ATOM     33  C   UNL     1     -13.187  10.386  71.908  0.00  0.00    +0.000 C 
BRANCH  33  34
ATOM     34  C   UNL     1     -12.447   9.215  71.333  0.00  0.00    +0.000 C 
ATOM     35  C   UNL     1     -10.954   9.476  71.181  0.00  0.00    +0.000 C 
ENDBRANCH  33  34
ENDBRANCH  32  33
ENDBRANCH  31  32
ENDBRANCH  30  31
ENDBRANCH  26  30
ENDBRANCH  24  25
ENDBRANCH   1  24
TORSDOF 23
ENDMDL
MODEL 9
REMARK VINA RESULT:      -5.2      2.193      7.316
REMARK  Name = 
REMARK  23 active torsions:
REMARK  status: ('A' for Active; 'I' for Inactive)
REMARK    1  A    between atoms: C_2  and  C_3
REMARK    2  A    between atoms: C_3  and  C_4
REMARK    3  A    between atoms: C_4  and  C_5
REMARK    4  A    between atoms: C_5  and  C_6
REMARK    5  A    between atoms: C_6  and  C_7
REMARK    6  A    between atoms: C_7  and  C_8
REMARK    7  A    between atoms: C_8  and  C_9
REMARK    8  A    between atoms: C_9  and  C_10
REMARK    9  A    between atoms: C_10  and  C_11
REMARK   10  A    between atoms: C_11  and  C_12
REMARK   11  A    between atoms: C_12  and  C_13
REMARK   12  A    between atoms: C_12  and  O_25
REMARK   13  A    between atoms: C_13  and  C_14
REMARK   14  A    between atoms: C_18  and  C_19
REMARK   15  A    between atoms: C_19  and  C_20
REMARK   16  A    between atoms: C_20  and  C_21
REMARK   17  A    between atoms: C_21  and  C_22
REMARK   18  A    between atoms: C_22  and  C_23
REMARK   19  A    between atoms: O_25  and  C_26
REMARK   20  A    between atoms: C_26  and  C_28
REMARK   21  A    between atoms: C_28  and  C_29
REMARK   22  A    between atoms: C_28  and  N_33
REMARK   23  A    between atoms: C_29  and  C_30
REMARK                            x       y       z     vdW  Elec       q    Type
REMARK                         _______ _______ _______ _____ _____    ______ ____
ROOT
ATOM      1  C   UNL     1     -10.456  15.436  69.040  0.00  0.00    +0.173 C 
ENDROOT
BRANCH   1   2
ATOM      2  C   UNL     1     -11.873  15.896  69.741  0.00  0.00    +0.044 C 
BRANCH   2   3
ATOM      3  C   UNL     1     -11.922  15.316  71.114  0.00  0.00    +0.004 C 
BRANCH   3   4
ATOM      4  C   UNL     1     -13.249  14.554  71.154  0.00  0.00    +0.000 C 
BRANCH   4   5
ATOM      5  C   UNL     1     -13.178  13.807  72.486  0.00  0.00    +0.000 C 
BRANCH   5   6
ATOM      6  C   UNL     1     -13.475  12.361  72.101  0.00  0.00    +0.000 C 
BRANCH   6   7
ATOM      7  C   UNL     1     -12.508  12.018  70.978  0.00  0.00    +0.000 C 
BRANCH   7   8
ATOM      8  C   UNL     1     -12.532  10.555  70.644  0.00  0.00    +0.000 C 
BRANCH   8   9
ATOM      9  C   UNL     1     -13.135   9.813  71.823  0.00  0.00    +0.000 C 
BRANCH   9  10
ATOM     10  C   UNL     1     -12.309   8.580  72.090  0.00  0.00    +0.000 C 
BRANCH  10  12
ATOM     11  C   UNL     1      -9.907   8.183  72.583  0.00  0.00    +0.000 C 
ATOM     12  C   UNL     1     -10.878   8.893  71.675  0.00  0.00    +0.000 C 
ENDBRANCH  10  12
ENDBRANCH   9  10
ENDBRANCH   8   9
ENDBRANCH   7   8
ENDBRANCH   6   7
ENDBRANCH   5   6
ENDBRANCH   4   5
ENDBRANCH   3   4
ENDBRANCH   2   3
ENDBRANCH   1   2
BRANCH   1  13
ATOM     13  O   UNL     1      -9.851  16.843  69.152  0.00  0.00    -0.451 OA
BRANCH  13  14
ATOM     14  C   UNL     1      -8.693  17.095  68.538  0.00  0.00    +0.337 C 
ATOM     15  O   UNL     1      -7.617  16.511  68.820  0.00  0.00    -0.248 OA
BRANCH  14  16
ATOM     16  C   UNL     1      -8.525  18.420  67.636  0.00  0.00    +0.194 C 
BRANCH  16  17
ATOM     17  N   UNL     1     -10.016  18.886  67.828  0.00  0.00    -0.188 NA
ATOM     18  C   UNL     1     -10.688  19.626  66.903  0.00  0.00    +0.321 C 
ATOM     19  O   UNL     1     -10.189  19.857  65.790  0.00  0.00    -0.263 OA
ENDBRANCH  16  17
BRANCH  16  20
ATOM     20  C   UNL     1      -7.886  19.304  68.874  0.00  0.00    +0.033 C 
BRANCH  20  21
ATOM     21  C   UNL     1      -6.591  19.807  68.298  0.00  0.00    +0.002 C 
ATOM     22  C   UNL     1      -5.741  20.399  69.394  0.00  0.00    +0.000 C 
ATOM     23  C   UNL     1      -6.916  20.845  67.248  0.00  0.00    +0.000 C 
ENDBRANCH  20  21
ENDBRANCH  16  20
ENDBRANCH  14  16
ENDBRANCH  13  14
ENDBRANCH   1  13
BRANCH   1  24
ATOM     24  C   UNL     1     -11.023  15.685  67.517  0.00  0.00    +0.088 C 
BRANCH  24  25
ATOM     25  C   UNL     1     -10.356  14.431  66.690  0.00  0.00    +0.183 C 
ATOM     26  C   UNL     1     -11.596  14.434  65.523  0.00  0.00    +0.139 C 
ATOM     27  C   UNL     1     -10.861  15.774  65.068  0.00  0.00    +0.320 C 
ATOM     28  O   UNL     1     -11.212  16.670  64.294  0.00  0.00    -0.250 OA
ATOM     29  O   UNL     1      -9.666  15.309  65.643  0.00  0.00    -0.451 OA
BRANCH  26  30
ATOM     30  C   UNL     1     -10.727  13.539  64.478  0.00  0.00    +0.015 C 
BRANCH  30  31
ATOM     31  C   UNL     1     -11.632  12.611  63.770  0.00  0.00    +0.001 C 
BRANCH  31  32
ATOM     32  C   UNL     1     -10.780  11.380  63.469  0.00  0.00    +0.000 C 
BRANCH  32  33
ATOM     33  C   UNL     1      -9.907  11.138  64.696  0.00  0.00    +0.000 C 
BRANCH  33  34
ATOM     34  C   UNL     1      -9.498   9.703  64.839  0.00  0.00    +0.000 C 
ATOM     35  C   UNL     1      -9.983   9.077  66.140  0.00  0.00    +0.000 C 
ENDBRANCH  33  34
ENDBRANCH  32  33
ENDBRANCH  31  32
ENDBRANCH  30  31
ENDBRANCH  26  30
ENDBRANCH  24  25
ENDBRANCH   1  24
TORSDOF 23
ENDMDL
