MODEL 1
REMARK VINA RESULT:      -5.6      0.000      0.000
REMARK  Name = 
REMARK  2 active torsions:
REMARK  status: ('A' for Active; 'I' for Inactive)
REMARK    1  A    between atoms: C_7  and  O_8
REMARK    2  A    between atoms: O_8  and  C_9
REMARK                            x       y       z     vdW  Elec       q    Type
REMARK                         _______ _______ _______ _____ _____    ______ ____
ROOT
ATOM      1  N   UNL     1     -10.281  13.751  64.778  0.00  0.00    -0.100 NA
ATOM      2  C   UNL     1     -10.790  14.223  66.029  0.00  0.00    +0.201 A 
ATOM      3  S   UNL     1     -10.690  15.768  66.776  0.00  0.00    -0.048 S 
ATOM      4  C   UNL     1     -11.494  15.383  68.244  0.00  0.00    +0.053 A 
ATOM      5  C   UNL     1     -11.645  14.010  68.078  0.00  0.00    +0.090 A 
ATOM      6  C   UNL     1     -12.115  13.302  69.180  0.00  0.00    +0.023 A 
ATOM      7  C   UNL     1     -12.009  13.865  70.446  0.00  0.00    +0.039 A 
ATOM      8  C   UNL     1     -12.126  15.229  70.581  0.00  0.00    +0.147 A 
ATOM      9  C   UNL     1     -11.772  15.982  69.467  0.00  0.00    +0.045 A 
ATOM     10  N   UNL     1     -11.780  13.688  66.787  0.00  0.00    -0.221 NA
ENDROOT
BRANCH   8  11
ATOM     11  O   UNL     1     -12.706  15.864  71.655  0.00  0.00    -0.404 OA
BRANCH  11  12
ATOM     12  C   UNL     1     -13.887  15.373  72.236  0.00  0.00    +0.575 C 
ATOM     13  F   UNL     1     -14.817  15.177  71.248  0.00  0.00    -0.133 F 
ATOM     14  F   UNL     1     -14.334  16.328  73.129  0.00  0.00    -0.133 F 
ATOM     15  F   UNL     1     -13.709  14.201  72.934  0.00  0.00    -0.133 F 
ENDBRANCH  11  12
ENDBRANCH   8  11
TORSDOF 2
ENDMDL
MODEL 2
REMARK VINA RESULT:      -5.5      4.740      6.127
REMARK  Name = 
REMARK  2 active torsions:
REMARK  status: ('A' for Active; 'I' for Inactive)
REMARK    1  A    between atoms: C_7  and  O_8
REMARK    2  A    between atoms: O_8  and  C_9
REMARK                            x       y       z     vdW  Elec       q    Type
REMARK                         _______ _______ _______ _____ _____    ______ ____
ROOT
ATOM      1  N   UNL     1     -11.994  16.204  71.911  0.00  0.00    -0.100 NA
ATOM      2  C   UNL     1     -11.896  15.573  70.630  0.00  0.00    +0.201 A 
ATOM      3  S   UNL     1     -12.147  13.939  70.157  0.00  0.00    -0.048 S 
ATOM      4  C   UNL     1     -11.736  14.101  68.497  0.00  0.00    +0.053 A 
ATOM      5  C   UNL     1     -11.287  15.417  68.490  0.00  0.00    +0.090 A 
ATOM      6  C   UNL     1     -10.690  15.861  67.314  0.00  0.00    +0.023 A 
ATOM      7  C   UNL     1     -10.196  14.930  66.409  0.00  0.00    +0.039 A 
ATOM      8  C   UNL     1     -10.844  13.724  66.272  0.00  0.00    +0.147 A 
ATOM      9  C   UNL     1     -11.551  13.285  67.387  0.00  0.00    +0.045 A 
ATOM     10  N   UNL     1     -11.928  16.153  69.404  0.00  0.00    -0.221 NA
ENDROOT
BRANCH   8  11
ATOM     11  O   UNL     1     -10.967  13.029  65.091  0.00  0.00    -0.404 OA
BRANCH  11  12
ATOM     12  C   UNL     1     -12.096  13.191  64.271  0.00  0.00    +0.575 C 
ATOM     13  F   UNL     1     -13.104  12.390  64.742  0.00  0.00    -0.133 F 
ATOM     14  F   UNL     1     -11.736  12.802  62.995  0.00  0.00    -0.133 F 
ATOM     15  F   UNL     1     -12.541  14.491  64.199  0.00  0.00    -0.133 F 
ENDBRANCH  11  12
ENDBRANCH   8  11
TORSDOF 2
ENDMDL
MODEL 3
REMARK VINA RESULT:      -5.5      1.638      2.055
REMARK  Name = 
REMARK  2 active torsions:
REMARK  status: ('A' for Active; 'I' for Inactive)
REMARK    1  A    between atoms: C_7  and  O_8
REMARK    2  A    between atoms: O_8  and  C_9
REMARK                            x       y       z     vdW  Elec       q    Type
REMARK                         _______ _______ _______ _____ _____    ______ ____
ROOT
ATOM      1  N   UNL     1      -9.340  17.269  65.745  0.00  0.00    -0.100 NA
ATOM      2  C   UNL     1      -9.997  16.852  66.945  0.00  0.00    +0.201 A 
ATOM      3  S   UNL     1      -9.927  17.480  68.544  0.00  0.00    -0.048 S 
ATOM      4  C   UNL     1     -10.949  16.327  69.304  0.00  0.00    +0.053 A 
ATOM      5  C   UNL     1     -11.142  15.447  68.245  0.00  0.00    +0.090 A 
ATOM      6  C   UNL     1     -11.797  14.255  68.542  0.00  0.00    +0.023 A 
ATOM      7  C   UNL     1     -11.844  13.815  69.859  0.00  0.00    +0.039 A 
ATOM      8  C   UNL     1     -11.911  14.744  70.871  0.00  0.00    +0.147 A 
ATOM      9  C   UNL     1     -11.367  15.993  70.587  0.00  0.00    +0.045 A 
ATOM     10  N   UNL     1     -11.109  16.085  67.071  0.00  0.00    -0.221 NA
ENDROOT
BRANCH   8  11
ATOM     11  O   UNL     1     -12.606  14.575  72.047  0.00  0.00    -0.404 OA
BRANCH  11  12
ATOM     12  C   UNL     1     -13.962  14.929  72.145  0.00  0.00    +0.575 C 
ATOM     13  F   UNL     1     -14.107  15.854  73.147  0.00  0.00    -0.133 F 
ATOM     14  F   UNL     1     -14.665  13.780  72.452  0.00  0.00    -0.133 F 
ATOM     15  F   UNL     1     -14.482  15.436  70.977  0.00  0.00    -0.133 F 
ENDBRANCH  11  12
ENDBRANCH   8  11
TORSDOF 2
ENDMDL
MODEL 4
REMARK VINA RESULT:      -5.5      7.906      8.767
REMARK  Name = 
REMARK  2 active torsions:
REMARK  status: ('A' for Active; 'I' for Inactive)
REMARK    1  A    between atoms: C_7  and  O_8
REMARK    2  A    between atoms: O_8  and  C_9
REMARK                            x       y       z     vdW  Elec       q    Type
REMARK                         _______ _______ _______ _____ _____    ______ ____
ROOT
ATOM      1  N   UNL     1      -3.580  20.366  72.265  0.00  0.00    -0.100 NA
ATOM      2  C   UNL     1      -4.578  20.150  71.262  0.00  0.00    +0.201 A 
ATOM      3  S   UNL     1      -5.597  18.799  70.958  0.00  0.00    -0.048 S 
ATOM      4  C   UNL     1      -6.381  19.396  69.551  0.00  0.00    +0.053 A 
ATOM      5  C   UNL     1      -5.655  20.565  69.354  0.00  0.00    +0.090 A 
ATOM      6  C   UNL     1      -5.898  21.251  68.167  0.00  0.00    +0.023 A 
ATOM      7  C   UNL     1      -6.480  20.578  67.100  0.00  0.00    +0.039 A 
ATOM      8  C   UNL     1      -7.397  19.586  67.357  0.00  0.00    +0.147 A 
ATOM      9  C   UNL     1      -7.267  18.941  68.582  0.00  0.00    +0.045 A 
ATOM     10  N   UNL     1      -5.230  21.075  70.514  0.00  0.00    -0.221 NA
ENDROOT
BRANCH   8  11
ATOM     11  O   UNL     1      -8.498  19.314  66.577  0.00  0.00    -0.404 OA
BRANCH  11  12
ATOM     12  C   UNL     1      -9.749  19.884  66.866  0.00  0.00    +0.575 C 
ATOM     13  F   UNL     1     -10.449  19.028  67.675  0.00  0.00    -0.133 F 
ATOM     14  F   UNL     1     -10.411  20.052  65.665  0.00  0.00    -0.133 F 
ATOM     15  F   UNL     1      -9.664  21.117  67.470  0.00  0.00    -0.133 F 
ENDBRANCH  11  12
ENDBRANCH   8  11
TORSDOF 2
ENDMDL
MODEL 5
REMARK VINA RESULT:      -5.4      1.335      2.096
REMARK  Name = 
REMARK  2 active torsions:
REMARK  status: ('A' for Active; 'I' for Inactive)
REMARK    1  A    between atoms: C_7  and  O_8
REMARK    2  A    between atoms: O_8  and  C_9
REMARK                            x       y       z     vdW  Elec       q    Type
REMARK                         _______ _______ _______ _____ _____    ______ ____
ROOT
ATOM      1  N   UNL     1     -11.260  13.455  64.529  0.00  0.00    -0.100 NA
ATOM      2  C   UNL     1     -11.321  13.607  65.950  0.00  0.00    +0.201 A 
ATOM      3  S   UNL     1     -11.661  12.467  67.192  0.00  0.00    -0.048 S 
ATOM      4  C   UNL     1     -11.591  13.539  68.533  0.00  0.00    +0.053 A 
ATOM      5  C   UNL     1     -11.449  14.749  67.862  0.00  0.00    +0.090 A 
ATOM      6  C   UNL     1     -11.536  15.901  68.638  0.00  0.00    +0.023 A 
ATOM      7  C   UNL     1     -12.152  15.837  69.883  0.00  0.00    +0.039 A 
ATOM      8  C   UNL     1     -12.041  14.684  70.624  0.00  0.00    +0.147 A 
ATOM      9  C   UNL     1     -11.841  13.513  69.899  0.00  0.00    +0.045 A 
ATOM     10  N   UNL     1     -10.784  14.592  66.713  0.00  0.00    -0.221 NA
ENDROOT
BRANCH   8  11
ATOM     11  O   UNL     1     -11.953  14.639  71.996  0.00  0.00    -0.404 OA
BRANCH  11  12
ATOM     12  C   UNL     1     -13.107  14.590  72.795  0.00  0.00    +0.575 C 
ATOM     13  F   UNL     1     -12.762  14.876  74.090  0.00  0.00    -0.133 F 
ATOM     14  F   UNL     1     -13.612  13.307  72.709  0.00  0.00    -0.133 F 
ATOM     15  F   UNL     1     -14.095  15.455  72.384  0.00  0.00    -0.133 F 
ENDBRANCH  11  12
ENDBRANCH   8  11
TORSDOF 2
ENDMDL
MODEL 6
REMARK VINA RESULT:      -5.4      4.501      5.244
REMARK  Name = 
REMARK  2 active torsions:
REMARK  status: ('A' for Active; 'I' for Inactive)
REMARK    1  A    between atoms: C_7  and  O_8
REMARK    2  A    between atoms: O_8  and  C_9
REMARK                            x       y       z     vdW  Elec       q    Type
REMARK                         _______ _______ _______ _____ _____    ______ ____
ROOT
ATOM      1  N   UNL     1     -12.022  12.009  66.194  0.00  0.00    -0.100 NA
ATOM      2  C   UNL     1     -11.536  13.347  66.333  0.00  0.00    +0.201 A 
ATOM      3  S   UNL     1     -10.477  14.270  65.340  0.00  0.00    -0.048 S 
ATOM      4  C   UNL     1     -10.407  15.687  66.309  0.00  0.00    +0.053 A 
ATOM      5  C   UNL     1     -11.118  15.248  67.422  0.00  0.00    +0.090 A 
ATOM      6  C   UNL     1     -11.120  16.094  68.527  0.00  0.00    +0.023 A 
ATOM      7  C   UNL     1     -10.133  17.065  68.642  0.00  0.00    +0.039 A 
ATOM      8  C   UNL     1      -9.642  17.656  67.501  0.00  0.00    +0.147 A 
ATOM      9  C   UNL     1      -9.717  16.892  66.341  0.00  0.00    +0.045 A 
ATOM     10  N   UNL     1     -12.052  14.355  67.080  0.00  0.00    -0.221 NA
ENDROOT
BRANCH   8  11
ATOM     11  O   UNL     1      -9.247  18.971  67.406  0.00  0.00    -0.404 OA
BRANCH  11  12
ATOM     12  C   UNL     1     -10.111  19.951  66.892  0.00  0.00    +0.575 C 
ATOM     13  F   UNL     1      -9.921  20.043  65.537  0.00  0.00    -0.133 F 
ATOM     14  F   UNL     1      -9.783  21.148  67.500  0.00  0.00    -0.133 F 
ATOM     15  F   UNL     1     -11.439  19.703  67.151  0.00  0.00    -0.133 F 
ENDBRANCH  11  12
ENDBRANCH   8  11
TORSDOF 2
ENDMDL
MODEL 7
REMARK VINA RESULT:      -5.3      4.484      5.578
REMARK  Name = 
REMARK  2 active torsions:
REMARK  status: ('A' for Active; 'I' for Inactive)
REMARK    1  A    between atoms: C_7  and  O_8
REMARK    2  A    between atoms: O_8  and  C_9
REMARK                            x       y       z     vdW  Elec       q    Type
REMARK                         _______ _______ _______ _____ _____    ______ ____
ROOT
ATOM      1  N   UNL     1     -13.935  13.326  72.505  0.00  0.00    -0.100 NA
ATOM      2  C   UNL     1     -13.095  14.032  71.586  0.00  0.00    +0.201 A 
ATOM      3  S   UNL     1     -12.487  15.640  71.623  0.00  0.00    -0.048 S 
ATOM      4  C   UNL     1     -11.667  15.625  70.114  0.00  0.00    +0.053 A 
ATOM      5  C   UNL     1     -12.073  14.384  69.636  0.00  0.00    +0.090 A 
ATOM      6  C   UNL     1     -11.737  14.088  68.318  0.00  0.00    +0.023 A 
ATOM      7  C   UNL     1     -11.421  15.125  67.448  0.00  0.00    +0.039 A 
ATOM      8  C   UNL     1     -10.780  16.237  67.940  0.00  0.00    +0.147 A 
ATOM      9  C   UNL     1     -10.995  16.517  69.286  0.00  0.00    +0.045 A 
ATOM     10  N   UNL     1     -12.274  13.520  70.636  0.00  0.00    -0.221 NA
ENDROOT
BRANCH   8  11
ATOM     11  O   UNL     1      -9.842  16.972  67.252  0.00  0.00    -0.404 OA
BRANCH  11  12
ATOM     12  C   UNL     1     -10.219  18.072  66.464  0.00  0.00    +0.575 C 
ATOM     13  F   UNL     1     -10.870  17.614  65.348  0.00  0.00    -0.133 F 
ATOM     14  F   UNL     1      -9.061  18.733  66.101  0.00  0.00    -0.133 F 
ATOM     15  F   UNL     1     -11.022  18.971  67.125  0.00  0.00    -0.133 F 
ENDBRANCH  11  12
ENDBRANCH   8  11
TORSDOF 2
ENDMDL
MODEL 8
REMARK VINA RESULT:      -5.2      2.143      2.712
REMARK  Name = 
REMARK  2 active torsions:
REMARK  status: ('A' for Active; 'I' for Inactive)
REMARK    1  A    between atoms: C_7  and  O_8
REMARK    2  A    between atoms: O_8  and  C_9
REMARK                            x       y       z     vdW  Elec       q    Type
REMARK                         _______ _______ _______ _____ _____    ______ ____
ROOT
ATOM      1  N   UNL     1     -12.586  12.186  63.277  0.00  0.00    -0.100 NA
ATOM      2  C   UNL     1     -12.308  12.785  64.546  0.00  0.00    +0.201 A 
ATOM      3  S   UNL     1     -12.324  14.431  65.042  0.00  0.00    -0.048 S 
ATOM      4  C   UNL     1     -11.798  14.203  66.662  0.00  0.00    +0.053 A 
ATOM      5  C   UNL     1     -11.509  12.843  66.627  0.00  0.00    +0.090 A 
ATOM      6  C   UNL     1     -10.872  12.318  67.747  0.00  0.00    +0.023 A 
ATOM      7  C   UNL     1     -10.199  13.174  68.611  0.00  0.00    +0.039 A 
ATOM      8  C   UNL     1     -10.686  14.445  68.804  0.00  0.00    +0.147 A 
ATOM      9  C   UNL     1     -11.427  14.978  67.754  0.00  0.00    +0.045 A 
ATOM     10  N   UNL     1     -12.306  12.198  65.769  0.00  0.00    -0.221 NA
ENDROOT
BRANCH   8  11
ATOM     11  O   UNL     1     -10.629  15.135  69.993  0.00  0.00    -0.404 OA
BRANCH  11  12
ATOM     12  C   UNL     1     -11.695  15.094  70.906  0.00  0.00    +0.575 C 
ATOM     13  F   UNL     1     -11.198  15.252  72.174  0.00  0.00    -0.133 F 
ATOM     14  F   UNL     1     -12.295  13.856  70.781  0.00  0.00    -0.133 F 
ATOM     15  F   UNL     1     -12.657  16.048  70.670  0.00  0.00    -0.133 F 
ENDBRANCH  11  12
ENDBRANCH   8  11
TORSDOF 2
ENDMDL
MODEL 9
REMARK VINA RESULT:      -5.1      5.142      6.254
REMARK  Name = 
REMARK  2 active torsions:
REMARK  status: ('A' for Active; 'I' for Inactive)
REMARK    1  A    between atoms: C_7  and  O_8
REMARK    2  A    between atoms: O_8  and  C_9
REMARK                            x       y       z     vdW  Elec       q    Type
REMARK                         _______ _______ _______ _____ _____    ______ ____
ROOT
ATOM      1  N   UNL     1      -7.910  17.511  68.740  0.00  0.00    -0.100 NA
ATOM      2  C   UNL     1      -8.695  16.758  67.811  0.00  0.00    +0.201 A 
ATOM      3  S   UNL     1      -8.940  16.958  66.120  0.00  0.00    -0.048 S 
ATOM      4  C   UNL     1     -10.061  15.677  65.883  0.00  0.00    +0.053 A 
ATOM      5  C   UNL     1     -10.261  15.290  67.204  0.00  0.00    +0.090 A 
ATOM      6  C   UNL     1     -11.273  14.362  67.430  0.00  0.00    +0.023 A 
ATOM      7  C   UNL     1     -12.267  14.193  66.473  0.00  0.00    +0.039 A 
ATOM      8  C   UNL     1     -11.945  14.341  65.144  0.00  0.00    +0.147 A 
ATOM      9  C   UNL     1     -10.867  15.175  64.869  0.00  0.00    +0.045 A 
ATOM     10  N   UNL     1      -9.164  15.492  67.941  0.00  0.00    -0.221 NA
ENDROOT
BRANCH   8  11
ATOM     11  O   UNL     1     -12.499  13.611  64.117  0.00  0.00    -0.404 OA
BRANCH  11  12
ATOM     12  C   UNL     1     -12.026  12.326  63.804  0.00  0.00    +0.575 C 
ATOM     13  F   UNL     1     -10.940  12.444  62.976  0.00  0.00    -0.133 F 
ATOM     14  F   UNL     1     -13.048  11.659  63.157  0.00  0.00    -0.133 F 
ATOM     15  F   UNL     1     -11.679  11.585  64.910  0.00  0.00    -0.133 F 
ENDBRANCH  11  12
ENDBRANCH   8  11
TORSDOF 2
ENDMDL
