MODEL 1
REMARK VINA RESULT:      -6.0      0.000      0.000
REMARK  Name = 
REMARK  10 active torsions:
REMARK  status: ('A' for Active; 'I' for Inactive)
REMARK    1  A    between atoms: C_2  and  C_3
REMARK    2  A    between atoms: C_3  and  C_4
REMARK    3  A    between atoms: N_6  and  C_7
REMARK    4  A    between atoms: C_10  and  O_11
REMARK    5  A    between atoms: O_11  and  C_12
REMARK    6  A    between atoms: C_12  and  C_13
REMARK    7  A    between atoms: C_13  and  C_15
REMARK    8  A    between atoms: C_15  and  N_16
REMARK    9  A    between atoms: N_16  and  C_17
REMARK   10  A    between atoms: C_20  and  C_21
REMARK                            x       y       z     vdW  Elec       q    Type
REMARK                         _______ _______ _______ _____ _____    ______ ____
ROOT
ATOM      1  C   UNL     1     -12.464  11.716  70.728  0.00  0.00    +0.074 A 
ATOM      2  C   UNL     1     -12.718  12.761  71.607  0.00  0.00    +0.022 A 
ATOM      3  C   UNL     1     -12.719  14.087  71.207  0.00  0.00    +0.070 A 
ATOM      4  C   UNL     1     -11.813  14.411  70.202  0.00  0.00    +0.141 A 
ATOM      5  C   UNL     1     -11.485  13.401  69.305  0.00  0.00    +0.038 A 
ATOM      6  C   UNL     1     -11.799  12.070  69.559  0.00  0.00    +0.020 A 
ENDROOT
BRANCH   3   7
ATOM      7  C   UNL     1     -13.711  15.059  71.687  0.00  0.00    +0.176 C 
ATOM      8  O   UNL     1     -14.914  14.777  71.402  0.00  0.00    -0.291 OA
ATOM      9  C   UNL     1     -13.470  15.785  72.958  0.00  0.00    +0.077 C 
ENDBRANCH   3   7
BRANCH   1  11
ATOM     10  C   UNL     1     -12.932   9.469  71.702  0.00  0.00    +0.246 C 
ATOM     11  N   UNL     1     -13.219  10.497  70.756  0.00  0.00    -0.179 NA
ATOM     12  O   UNL     1     -11.702   9.265  71.923  0.00  0.00    -0.273 OA
BRANCH  10  13
ATOM     13  C   UNL     1     -13.969   8.771  72.502  0.00  0.00    +0.087 C 
BRANCH  13  15
ATOM     14  C   UNL     1     -14.903   7.040  71.711  0.00  0.00    +0.001 C 
ATOM     15  C   UNL     1     -14.619   7.637  71.741  0.00  0.00    +0.010 C 
ENDBRANCH  13  15
ENDBRANCH  10  13
ENDBRANCH   1  11
BRANCH   4  16
ATOM     16  O   UNL     1     -11.862  15.749  69.794  0.00  0.00    -0.473 OA
BRANCH  16  17
ATOM     17  C   UNL     1     -11.718  16.138  68.427  0.00  0.00    +0.240 C 
BRANCH  17  18
ATOM     18  C   UNL     1     -10.238  16.916  68.616  0.00  0.00    +0.213 C 
ATOM     19  O   UNL     1     -10.799  18.208  67.979  0.00  0.00    -0.218 OA
BRANCH  18  20
ATOM     20  C   UNL     1      -9.704  16.359  67.121  0.00  0.00    +0.125 C 
BRANCH  20  21
ATOM     21  N   UNL     1     -10.895  15.725  66.607  0.00  0.00    -0.217 NA
BRANCH  21  22
ATOM     22  C   UNL     1     -10.637  14.857  65.473  0.00  0.00    +0.073 C 
ATOM     23  C   UNL     1      -9.982  13.558  65.873  0.00  0.00    +0.019 C 
ATOM     24  C   UNL     1     -11.860  14.649  64.617  0.00  0.00    +0.019 C 
ENDBRANCH  21  22
ENDBRANCH  20  21
ENDBRANCH  18  20
ENDBRANCH  17  18
ENDBRANCH  16  17
ENDBRANCH   4  16
TORSDOF 10
ENDMDL
MODEL 2
REMARK VINA RESULT:      -6.0      1.707      2.356
REMARK  Name = 
REMARK  10 active torsions:
REMARK  status: ('A' for Active; 'I' for Inactive)
REMARK    1  A    between atoms: C_2  and  C_3
REMARK    2  A    between atoms: C_3  and  C_4
REMARK    3  A    between atoms: N_6  and  C_7
REMARK    4  A    between atoms: C_10  and  O_11
REMARK    5  A    between atoms: O_11  and  C_12
REMARK    6  A    between atoms: C_12  and  C_13
REMARK    7  A    between atoms: C_13  and  C_15
REMARK    8  A    between atoms: C_15  and  N_16
REMARK    9  A    between atoms: N_16  and  C_17
REMARK   10  A    between atoms: C_20  and  C_21
REMARK                            x       y       z     vdW  Elec       q    Type
REMARK                         _______ _______ _______ _____ _____    ______ ____
ROOT
ATOM      1  C   UNL     1     -12.427  11.628  70.628  0.00  0.00    +0.074 A 
ATOM      2  C   UNL     1     -12.633  12.699  71.488  0.00  0.00    +0.022 A 
ATOM      3  C   UNL     1     -12.665  14.012  71.048  0.00  0.00    +0.070 A 
ATOM      4  C   UNL     1     -11.824  14.308  69.981  0.00  0.00    +0.141 A 
ATOM      5  C   UNL     1     -11.545  13.272  69.097  0.00  0.00    +0.038 A 
ATOM      6  C   UNL     1     -11.835  11.948  69.411  0.00  0.00    +0.020 A 
ENDROOT
BRANCH   3   7
ATOM      7  C   UNL     1     -13.632  14.995  71.557  0.00  0.00    +0.176 C 
ATOM      8  O   UNL     1     -14.848  14.711  71.335  0.00  0.00    -0.291 OA
ATOM      9  C   UNL     1     -13.330  15.744  72.802  0.00  0.00    +0.077 C 
ENDBRANCH   3   7
BRANCH   1  11
ATOM     10  C   UNL     1     -12.849   9.430  71.725  0.00  0.00    +0.246 C 
ATOM     11  N   UNL     1     -13.172  10.408  70.740  0.00  0.00    -0.179 NA
ATOM     12  O   UNL     1     -11.611   9.243  71.917  0.00  0.00    -0.273 OA
BRANCH  10  13
ATOM     13  C   UNL     1     -13.856   8.766  72.590  0.00  0.00    +0.087 C 
BRANCH  13  15
ATOM     14  C   UNL     1     -14.921   7.175  71.680  0.00  0.00    +0.001 C 
ATOM     15  C   UNL     1     -14.720   7.789  71.826  0.00  0.00    +0.010 C 
ENDBRANCH  13  15
ENDBRANCH  10  13
ENDBRANCH   1  11
BRANCH   4  16
ATOM     16  O   UNL     1     -11.904  15.632  69.535  0.00  0.00    -0.473 OA
BRANCH  16  17
ATOM     17  C   UNL     1     -10.864  16.583  69.770  0.00  0.00    +0.240 C 
BRANCH  17  18
ATOM     18  C   UNL     1     -10.006  16.264  68.359  0.00  0.00    +0.213 C 
ATOM     19  O   UNL     1      -8.804  15.732  69.173  0.00  0.00    -0.218 OA
BRANCH  18  20
ATOM     20  C   UNL     1      -9.364  17.818  68.344  0.00  0.00    +0.125 C 
BRANCH  20  21
ATOM     21  N   UNL     1     -10.535  18.611  68.053  0.00  0.00    -0.217 NA
BRANCH  21  22
ATOM     22  C   UNL     1     -10.245  19.786  67.252  0.00  0.00    +0.073 C 
ATOM     23  C   UNL     1      -8.819  20.253  67.401  0.00  0.00    +0.019 C 
ATOM     24  C   UNL     1     -10.650  19.613  65.811  0.00  0.00    +0.019 C 
ENDBRANCH  21  22
ENDBRANCH  20  21
ENDBRANCH  18  20
ENDBRANCH  17  18
ENDBRANCH  16  17
ENDBRANCH   4  16
TORSDOF 10
ENDMDL
MODEL 3
REMARK VINA RESULT:      -5.8      3.033      8.207
REMARK  Name = 
REMARK  10 active torsions:
REMARK  status: ('A' for Active; 'I' for Inactive)
REMARK    1  A    between atoms: C_2  and  C_3
REMARK    2  A    between atoms: C_3  and  C_4
REMARK    3  A    between atoms: N_6  and  C_7
REMARK    4  A    between atoms: C_10  and  O_11
REMARK    5  A    between atoms: O_11  and  C_12
REMARK    6  A    between atoms: C_12  and  C_13
REMARK    7  A    between atoms: C_13  and  C_15
REMARK    8  A    between atoms: C_15  and  N_16
REMARK    9  A    between atoms: N_16  and  C_17
REMARK   10  A    between atoms: C_20  and  C_21
REMARK                            x       y       z     vdW  Elec       q    Type
REMARK                         _______ _______ _______ _____ _____    ______ ____
ROOT
ATOM      1  C   UNL     1      -9.880  16.185  65.804  0.00  0.00    +0.074 A 
ATOM      2  C   UNL     1     -10.584  15.335  64.961  0.00  0.00    +0.022 A 
ATOM      3  C   UNL     1     -10.864  14.020  65.294  0.00  0.00    +0.070 A 
ATOM      4  C   UNL     1      -9.895  13.375  66.056  0.00  0.00    +0.141 A 
ATOM      5  C   UNL     1      -9.128  14.170  66.898  0.00  0.00    +0.038 A 
ATOM      6  C   UNL     1      -9.112  15.556  66.777  0.00  0.00    +0.020 A 
ENDROOT
BRANCH   3   7
ATOM      7  C   UNL     1     -12.160  13.389  65.009  0.00  0.00    +0.176 C 
ATOM      8  O   UNL     1     -13.172  14.064  65.368  0.00  0.00    -0.291 OA
ATOM      9  C   UNL     1     -12.310  12.535  63.805  0.00  0.00    +0.077 C 
ENDBRANCH   3   7
BRANCH   1  11
ATOM     10  C   UNL     1     -10.530  18.072  67.298  0.00  0.00    +0.246 C 
ATOM     11  N   UNL     1     -10.264  17.553  65.997  0.00  0.00    -0.179 NA
ATOM     12  O   UNL     1     -11.162  17.294  68.072  0.00  0.00    -0.273 OA
BRANCH  10  13
ATOM     13  C   UNL     1      -9.994  19.363  67.798  0.00  0.00    +0.087 C 
BRANCH  13  15
ATOM     14  C   UNL     1      -8.061  19.001  68.589  0.00  0.00    +0.001 C 
ATOM     15  C   UNL     1      -8.692  19.197  68.548  0.00  0.00    +0.010 C 
ENDBRANCH  13  15
ENDBRANCH  10  13
ENDBRANCH   1  11
BRANCH   4  16
ATOM     16  O   UNL     1     -10.222  12.060  66.407  0.00  0.00    -0.473 OA
BRANCH  16  17
ATOM     17  C   UNL     1      -9.798  11.469  67.637  0.00  0.00    +0.240 C 
BRANCH  17  18
ATOM     18  C   UNL     1     -11.009  10.303  67.703  0.00  0.00    +0.213 C 
ATOM     19  O   UNL     1     -12.060  11.370  68.086  0.00  0.00    -0.218 OA
BRANCH  18  20
ATOM     20  C   UNL     1     -10.677   9.985  69.320  0.00  0.00    +0.125 C 
BRANCH  20  21
ATOM     21  N   UNL     1     -11.860  10.504  69.965  0.00  0.00    -0.217 NA
BRANCH  21  22
ATOM     22  C   UNL     1     -12.072   9.960  71.293  0.00  0.00    +0.073 C 
ATOM     23  C   UNL     1     -13.458   9.392  71.473  0.00  0.00    +0.019 C 
ATOM     24  C   UNL     1     -10.992   8.990  71.698  0.00  0.00    +0.019 C 
ENDBRANCH  21  22
ENDBRANCH  20  21
ENDBRANCH  18  20
ENDBRANCH  17  18
ENDBRANCH  16  17
ENDBRANCH   4  16
TORSDOF 10
ENDMDL
MODEL 4
REMARK VINA RESULT:      -5.7      3.908      5.349
REMARK  Name = 
REMARK  10 active torsions:
REMARK  status: ('A' for Active; 'I' for Inactive)
REMARK    1  A    between atoms: C_2  and  C_3
REMARK    2  A    between atoms: C_3  and  C_4
REMARK    3  A    between atoms: N_6  and  C_7
REMARK    4  A    between atoms: C_10  and  O_11
REMARK    5  A    between atoms: O_11  and  C_12
REMARK    6  A    between atoms: C_12  and  C_13
REMARK    7  A    between atoms: C_13  and  C_15
REMARK    8  A    between atoms: C_15  and  N_16
REMARK    9  A    between atoms: N_16  and  C_17
REMARK   10  A    between atoms: C_20  and  C_21
REMARK                            x       y       z     vdW  Elec       q    Type
REMARK                         _______ _______ _______ _____ _____    ______ ____
ROOT
ATOM      1  C   UNL     1     -10.886  12.768  67.464  0.00  0.00    +0.074 A 
ATOM      2  C   UNL     1     -11.183  13.410  68.659  0.00  0.00    +0.022 A 
ATOM      3  C   UNL     1     -10.544  14.571  69.059  0.00  0.00    +0.070 A 
ATOM      4  C   UNL     1      -9.209  14.681  68.684  0.00  0.00    +0.141 A 
ATOM      5  C   UNL     1      -8.832  14.032  67.514  0.00  0.00    +0.038 A 
ATOM      6  C   UNL     1      -9.651  13.085  66.909  0.00  0.00    +0.020 A 
ENDROOT
BRANCH   3   7
ATOM      7  C   UNL     1     -11.255  15.689  69.694  0.00  0.00    +0.176 C 
ATOM      8  O   UNL     1     -12.070  16.301  68.940  0.00  0.00    -0.291 OA
ATOM      9  C   UNL     1     -11.596  15.616  71.137  0.00  0.00    +0.077 C 
ENDBRANCH   3   7
BRANCH   1  11
ATOM     10  C   UNL     1     -12.385  12.928  65.478  0.00  0.00    +0.246 C 
ATOM     11  N   UNL     1     -11.908  12.220  66.620  0.00  0.00    -0.179 NA
ATOM     12  O   UNL     1     -12.525  14.177  65.635  0.00  0.00    -0.273 OA
BRANCH  10  13
ATOM     13  C   UNL     1     -12.571  12.309  64.142  0.00  0.00    +0.087 C 
BRANCH  13  15
ATOM     14  C   UNL     1     -10.600  11.963  63.443  0.00  0.00    +0.001 C 
ATOM     15  C   UNL     1     -11.258  12.032  63.445  0.00  0.00    +0.010 C 
ENDBRANCH  13  15
ENDBRANCH  10  13
ENDBRANCH   1  11
BRANCH   4  16
ATOM     16  O   UNL     1      -8.600  15.880  69.071  0.00  0.00    -0.473 OA
BRANCH  16  17
ATOM     17  C   UNL     1      -7.187  16.000  69.242  0.00  0.00    +0.240 C 
BRANCH  17  18
ATOM     18  C   UNL     1      -6.973  17.238  68.123  0.00  0.00    +0.213 C 
ATOM     19  O   UNL     1      -6.225  18.097  69.168  0.00  0.00    -0.218 OA
BRANCH  18  20
ATOM     20  C   UNL     1      -8.446  17.932  68.542  0.00  0.00    +0.125 C 
BRANCH  20  21
ATOM     21  N   UNL     1      -8.708  18.769  67.395  0.00  0.00    -0.217 NA
BRANCH  21  22
ATOM     22  C   UNL     1     -10.040  18.591  66.849  0.00  0.00    +0.073 C 
ATOM     23  C   UNL     1     -10.470  19.746  65.979  0.00  0.00    +0.019 C 
ATOM     24  C   UNL     1     -10.210  17.258  66.166  0.00  0.00    +0.019 C 
ENDBRANCH  21  22
ENDBRANCH  20  21
ENDBRANCH  18  20
ENDBRANCH  17  18
ENDBRANCH  16  17
ENDBRANCH   4  16
TORSDOF 10
ENDMDL
MODEL 5
REMARK VINA RESULT:      -5.7      2.242      7.850
REMARK  Name = 
REMARK  10 active torsions:
REMARK  status: ('A' for Active; 'I' for Inactive)
REMARK    1  A    between atoms: C_2  and  C_3
REMARK    2  A    between atoms: C_3  and  C_4
REMARK    3  A    between atoms: N_6  and  C_7
REMARK    4  A    between atoms: C_10  and  O_11
REMARK    5  A    between atoms: O_11  and  C_12
REMARK    6  A    between atoms: C_12  and  C_13
REMARK    7  A    between atoms: C_13  and  C_15
REMARK    8  A    between atoms: C_15  and  N_16
REMARK    9  A    between atoms: N_16  and  C_17
REMARK   10  A    between atoms: C_20  and  C_21
REMARK                            x       y       z     vdW  Elec       q    Type
REMARK                         _______ _______ _______ _____ _____    ______ ____
ROOT
ATOM      1  C   UNL     1     -10.856  15.513  67.824  0.00  0.00    +0.074 A 
ATOM      2  C   UNL     1     -11.850  15.612  68.789  0.00  0.00    +0.022 A 
ATOM      3  C   UNL     1     -12.075  14.623  69.731  0.00  0.00    +0.070 A 
ATOM      4  C   UNL     1     -11.845  13.321  69.299  0.00  0.00    +0.141 A 
ATOM      5  C   UNL     1     -10.886  13.149  68.308  0.00  0.00    +0.038 A 
ATOM      6  C   UNL     1     -10.397  14.224  67.573  0.00  0.00    +0.020 A 
ENDROOT
BRANCH   3   7
ATOM      7  C   UNL     1     -12.380  14.921  71.136  0.00  0.00    +0.176 C 
ATOM      8  O   UNL     1     -11.422  15.431  71.793  0.00  0.00    -0.291 OA
ATOM      9  C   UNL     1     -13.754  15.332  71.518  0.00  0.00    +0.077 C 
ENDBRANCH   3   7
BRANCH   1  11
ATOM     10  C   UNL     1     -10.263  17.374  66.275  0.00  0.00    +0.246 C 
ATOM     11  N   UNL     1     -10.028  16.628  67.466  0.00  0.00    -0.179 NA
ATOM     12  O   UNL     1     -10.589  16.688  65.261  0.00  0.00    -0.273 OA
BRANCH  10  13
ATOM     13  C   UNL     1     -10.283  18.857  66.220  0.00  0.00    +0.087 C 
BRANCH  13  15
ATOM     14  C   UNL     1     -10.145  20.001  68.000  0.00  0.00    +0.001 C 
ATOM     15  C   UNL     1     -10.245  19.487  67.594  0.00  0.00    +0.010 C 
ENDBRANCH  13  15
ENDBRANCH  10  13
ENDBRANCH   1  11
BRANCH   4  16
ATOM     16  O   UNL     1     -12.047  12.345  70.282  0.00  0.00    -0.473 OA
BRANCH  16  17
ATOM     17  C   UNL     1     -11.565  11.008  70.144  0.00  0.00    +0.240 C 
BRANCH  17  18
ATOM     18  C   UNL     1     -12.958  10.254  70.711  0.00  0.00    +0.213 C 
ATOM     19  O   UNL     1     -13.126  11.324  71.814  0.00  0.00    -0.218 OA
BRANCH  18  20
ATOM     20  C   UNL     1     -12.061   9.272  71.740  0.00  0.00    +0.125 C 
BRANCH  20  21
ATOM     21  N   UNL     1     -12.422   7.955  71.271  0.00  0.00    -0.217 NA
BRANCH  21  22
ATOM     22  C   UNL     1     -11.276   7.102  71.022  0.00  0.00    +0.073 C 
ATOM     23  C   UNL     1     -10.933   6.230  72.204  0.00  0.00    +0.019 C 
ATOM     24  C   UNL     1     -11.411   6.316  69.743  0.00  0.00    +0.019 C 
ENDBRANCH  21  22
ENDBRANCH  20  21
ENDBRANCH  18  20
ENDBRANCH  17  18
ENDBRANCH  16  17
ENDBRANCH   4  16
TORSDOF 10
ENDMDL
MODEL 6
REMARK VINA RESULT:      -5.6      3.597      5.816
REMARK  Name = 
REMARK  10 active torsions:
REMARK  status: ('A' for Active; 'I' for Inactive)
REMARK    1  A    between atoms: C_2  and  C_3
REMARK    2  A    between atoms: C_3  and  C_4
REMARK    3  A    between atoms: N_6  and  C_7
REMARK    4  A    between atoms: C_10  and  O_11
REMARK    5  A    between atoms: O_11  and  C_12
REMARK    6  A    between atoms: C_12  and  C_13
REMARK    7  A    between atoms: C_13  and  C_15
REMARK    8  A    between atoms: C_15  and  N_16
REMARK    9  A    between atoms: N_16  and  C_17
REMARK   10  A    between atoms: C_20  and  C_21
REMARK                            x       y       z     vdW  Elec       q    Type
REMARK                         _______ _______ _______ _____ _____    ______ ____
ROOT
ATOM      1  C   UNL     1     -10.970  14.737  70.247  0.00  0.00    +0.074 A 
ATOM      2  C   UNL     1     -10.049  15.250  69.343  0.00  0.00    +0.022 A 
ATOM      3  C   UNL     1     -10.142  15.028  67.979  0.00  0.00    +0.070 A 
ATOM      4  C   UNL     1     -10.662  13.793  67.606  0.00  0.00    +0.141 A 
ATOM      5  C   UNL     1     -11.566  13.203  68.482  0.00  0.00    +0.038 A 
ATOM      6  C   UNL     1     -11.720  13.660  69.787  0.00  0.00    +0.020 A 
ENDROOT
BRANCH   3   7
ATOM      7  C   UNL     1      -9.866  16.075  66.986  0.00  0.00    +0.176 C 
ATOM      8  O   UNL     1     -10.507  17.155  67.158  0.00  0.00    -0.291 OA
ATOM      9  C   UNL     1      -8.511  16.181  66.390  0.00  0.00    +0.077 C 
ENDBRANCH   3   7
BRANCH   1  11
ATOM     10  C   UNL     1     -12.864  15.708  71.546  0.00  0.00    +0.246 C 
ATOM     11  N   UNL     1     -11.466  15.510  71.349  0.00  0.00    -0.179 NA
ATOM     12  O   UNL     1     -13.536  15.908  70.491  0.00  0.00    -0.273 OA
BRANCH  10  13
ATOM     13  C   UNL     1     -13.544  15.549  72.856  0.00  0.00    +0.087 C 
BRANCH  13  15
ATOM     14  C   UNL     1     -12.428  15.585  74.658  0.00  0.00    +0.001 C 
ATOM     15  C   UNL     1     -12.588  15.672  74.021  0.00  0.00    +0.010 C 
ENDBRANCH  13  15
ENDBRANCH  10  13
ENDBRANCH   1  11
BRANCH   4  16
ATOM     16  O   UNL     1     -10.777  13.612  66.223  0.00  0.00    -0.473 OA
BRANCH  16  17
ATOM     17  C   UNL     1     -11.277  12.404  65.648  0.00  0.00    +0.240 C 
BRANCH  17  18
ATOM     18  C   UNL     1     -11.874  13.106  64.241  0.00  0.00    +0.213 C 
ATOM     19  O   UNL     1     -13.293  12.568  64.538  0.00  0.00    -0.218 OA
BRANCH  18  20
ATOM     20  C   UNL     1     -11.495  11.736  63.343  0.00  0.00    +0.125 C 
BRANCH  20  21
ATOM     21  N   UNL     1     -10.054  11.807  63.302  0.00  0.00    -0.217 NA
BRANCH  21  22
ATOM     22  C   UNL     1      -9.436  10.594  62.802  0.00  0.00    +0.073 C 
ATOM     23  C   UNL     1      -8.233  10.870  61.934  0.00  0.00    +0.019 C 
ATOM     24  C   UNL     1      -9.143   9.602  63.899  0.00  0.00    +0.019 C 
ENDBRANCH  21  22
ENDBRANCH  20  21
ENDBRANCH  18  20
ENDBRANCH  17  18
ENDBRANCH  16  17
ENDBRANCH   4  16
TORSDOF 10
ENDMDL
MODEL 7
REMARK VINA RESULT:      -5.6      3.371      5.381
REMARK  Name = 
REMARK  10 active torsions:
REMARK  status: ('A' for Active; 'I' for Inactive)
REMARK    1  A    between atoms: C_2  and  C_3
REMARK    2  A    between atoms: C_3  and  C_4
REMARK    3  A    between atoms: N_6  and  C_7
REMARK    4  A    between atoms: C_10  and  O_11
REMARK    5  A    between atoms: O_11  and  C_12
REMARK    6  A    between atoms: C_12  and  C_13
REMARK    7  A    between atoms: C_13  and  C_15
REMARK    8  A    between atoms: C_15  and  N_16
REMARK    9  A    between atoms: N_16  and  C_17
REMARK   10  A    between atoms: C_20  and  C_21
REMARK                            x       y       z     vdW  Elec       q    Type
REMARK                         _______ _______ _______ _____ _____    ______ ____
ROOT
ATOM      1  C   UNL     1     -11.714  15.758  69.660  0.00  0.00    +0.074 A 
ATOM      2  C   UNL     1     -11.690  15.909  68.279  0.00  0.00    +0.022 A 
ATOM      3  C   UNL     1     -10.615  15.508  67.505  0.00  0.00    +0.070 A 
ATOM      4  C   UNL     1      -9.365  15.636  68.101  0.00  0.00    +0.141 A 
ATOM      5  C   UNL     1      -9.318  15.531  69.486  0.00  0.00    +0.038 A 
ATOM      6  C   UNL     1     -10.471  15.595  70.262  0.00  0.00    +0.020 A 
ENDROOT
BRANCH   3   7
ATOM      7  C   UNL     1     -10.778  14.841  66.206  0.00  0.00    +0.176 C 
ATOM      8  O   UNL     1     -11.398  13.735  66.248  0.00  0.00    -0.291 OA
ATOM      9  C   UNL     1     -10.938  15.658  64.977  0.00  0.00    +0.077 C 
ENDBRANCH   3   7
BRANCH   1  11
ATOM     10  C   UNL     1     -12.887  14.121  71.129  0.00  0.00    +0.246 C 
ATOM     11  N   UNL     1     -12.887  15.320  70.357  0.00  0.00    -0.179 NA
ATOM     12  O   UNL     1     -12.254  13.150  70.620  0.00  0.00    -0.273 OA
BRANCH  10  13
ATOM     13  C   UNL     1     -13.447  14.022  72.500  0.00  0.00    +0.087 C 
BRANCH  13  15
ATOM     14  C   UNL     1     -12.689  15.483  73.836  0.00  0.00    +0.001 C 
ATOM     15  C   UNL     1     -12.736  14.926  73.482  0.00  0.00    +0.010 C 
ENDBRANCH  13  15
ENDBRANCH  10  13
ENDBRANCH   1  11
BRANCH   4  16
ATOM     16  O   UNL     1      -8.301  15.190  67.309  0.00  0.00    -0.473 OA
BRANCH  16  17
ATOM     17  C   UNL     1      -7.042  15.863  67.268  0.00  0.00    +0.240 C 
BRANCH  17  18
ATOM     18  C   UNL     1      -7.509  17.054  66.175  0.00  0.00    +0.213 C 
ATOM     19  O   UNL     1      -6.042  17.272  65.738  0.00  0.00    -0.218 OA
BRANCH  18  20
ATOM     20  C   UNL     1      -7.382  18.248  67.352  0.00  0.00    +0.125 C 
BRANCH  20  21
ATOM     21  N   UNL     1      -8.026  19.364  66.702  0.00  0.00    -0.217 NA
BRANCH  21  22
ATOM     22  C   UNL     1      -9.322  19.686  67.269  0.00  0.00    +0.073 C 
ATOM     23  C   UNL     1     -10.466  19.204  66.413  0.00  0.00    +0.019 C 
ATOM     24  C   UNL     1      -9.448  19.246  68.705  0.00  0.00    +0.019 C 
ENDBRANCH  21  22
ENDBRANCH  20  21
ENDBRANCH  18  20
ENDBRANCH  17  18
ENDBRANCH  16  17
ENDBRANCH   4  16
TORSDOF 10
ENDMDL
MODEL 8
REMARK VINA RESULT:      -5.6      3.063      8.090
REMARK  Name = 
REMARK  10 active torsions:
REMARK  status: ('A' for Active; 'I' for Inactive)
REMARK    1  A    between atoms: C_2  and  C_3
REMARK    2  A    between atoms: C_3  and  C_4
REMARK    3  A    between atoms: N_6  and  C_7
REMARK    4  A    between atoms: C_10  and  O_11
REMARK    5  A    between atoms: O_11  and  C_12
REMARK    6  A    between atoms: C_12  and  C_13
REMARK    7  A    between atoms: C_13  and  C_15
REMARK    8  A    between atoms: C_15  and  N_16
REMARK    9  A    between atoms: N_16  and  C_17
REMARK   10  A    between atoms: C_20  and  C_21
REMARK                            x       y       z     vdW  Elec       q    Type
REMARK                         _______ _______ _______ _____ _____    ______ ____
ROOT
ATOM      1  C   UNL     1     -10.822  15.639  68.066  0.00  0.00    +0.074 A 
ATOM      2  C   UNL     1     -10.987  15.151  66.777  0.00  0.00    +0.022 A 
ATOM      3  C   UNL     1     -11.497  13.891  66.517  0.00  0.00    +0.070 A 
ATOM      4  C   UNL     1     -11.173  12.909  67.448  0.00  0.00    +0.141 A 
ATOM      5  C   UNL     1     -10.959  13.331  68.755  0.00  0.00    +0.038 A 
ATOM      6  C   UNL     1     -10.781  14.675  69.067  0.00  0.00    +0.020 A 
ENDROOT
BRANCH   3   7
ATOM      7  C   UNL     1     -12.448  13.629  65.428  0.00  0.00    +0.176 C 
ATOM      8  O   UNL     1     -13.518  14.309  65.480  0.00  0.00    -0.291 OA
ATOM      9  C   UNL     1     -11.940  13.272  64.081  0.00  0.00    +0.077 C 
ENDBRANCH   3   7
BRANCH   1  11
ATOM     10  C   UNL     1     -10.175  18.029  68.362  0.00  0.00    +0.246 C 
ATOM     11  N   UNL     1     -11.150  16.991  68.416  0.00  0.00    -0.179 NA
ATOM     12  O   UNL     1      -9.018  17.707  68.766  0.00  0.00    -0.273 OA
BRANCH  10  13
ATOM     13  C   UNL     1     -10.416  19.357  67.744  0.00  0.00    +0.087 C 
BRANCH  13  15
ATOM     14  C   UNL     1     -10.668  19.439  65.641  0.00  0.00    +0.001 C 
ATOM     15  C   UNL     1     -10.406  19.302  66.233  0.00  0.00    +0.010 C 
ENDBRANCH  13  15
ENDBRANCH  10  13
ENDBRANCH   1  11
BRANCH   4  16
ATOM     16  O   UNL     1     -11.732  11.654  67.179  0.00  0.00    -0.473 OA
BRANCH  16  17
ATOM     17  C   UNL     1     -11.549  10.533  68.045  0.00  0.00    +0.240 C 
BRANCH  17  18
ATOM     18  C   UNL     1     -10.071  10.049  67.404  0.00  0.00    +0.213 C 
ATOM     19  O   UNL     1     -10.659   8.679  66.998  0.00  0.00    -0.218 OA
BRANCH  18  20
ATOM     20  C   UNL     1      -9.574   9.443  68.892  0.00  0.00    +0.125 C 
BRANCH  20  21
ATOM     21  N   UNL     1     -10.514   8.367  69.095  0.00  0.00    -0.217 NA
BRANCH  21  22
ATOM     22  C   UNL     1     -10.581   7.918  70.473  0.00  0.00    +0.073 C 
ATOM     23  C   UNL     1     -10.852   9.044  71.438  0.00  0.00    +0.019 C 
ATOM     24  C   UNL     1     -11.528   6.759  70.655  0.00  0.00    +0.019 C 
ENDBRANCH  21  22
ENDBRANCH  20  21
ENDBRANCH  18  20
ENDBRANCH  17  18
ENDBRANCH  16  17
ENDBRANCH   4  16
TORSDOF 10
ENDMDL
MODEL 9
REMARK VINA RESULT:      -5.5      2.403      8.131
REMARK  Name = 
REMARK  10 active torsions:
REMARK  status: ('A' for Active; 'I' for Inactive)
REMARK    1  A    between atoms: C_2  and  C_3
REMARK    2  A    between atoms: C_3  and  C_4
REMARK    3  A    between atoms: N_6  and  C_7
REMARK    4  A    between atoms: C_10  and  O_11
REMARK    5  A    between atoms: O_11  and  C_12
REMARK    6  A    between atoms: C_12  and  C_13
REMARK    7  A    between atoms: C_13  and  C_15
REMARK    8  A    between atoms: C_15  and  N_16
REMARK    9  A    between atoms: N_16  and  C_17
REMARK   10  A    between atoms: C_20  and  C_21
REMARK                            x       y       z     vdW  Elec       q    Type
REMARK                         _______ _______ _______ _____ _____    ______ ____
ROOT
ATOM      1  C   UNL     1     -11.406  15.269  69.304  0.00  0.00    +0.074 A 
ATOM      2  C   UNL     1     -10.931  14.089  68.746  0.00  0.00    +0.022 A 
ATOM      3  C   UNL     1     -11.529  12.862  68.979  0.00  0.00    +0.070 A 
ATOM      4  C   UNL     1     -12.086  12.697  70.242  0.00  0.00    +0.141 A 
ATOM      5  C   UNL     1     -12.552  13.843  70.877  0.00  0.00    +0.038 A 
ATOM      6  C   UNL     1     -12.217  15.114  70.422  0.00  0.00    +0.020 A 
ENDROOT
BRANCH   3   7
ATOM      7  C   UNL     1     -11.712  11.856  67.924  0.00  0.00    +0.176 C 
ATOM      8  O   UNL     1     -12.117  12.315  66.813  0.00  0.00    -0.291 OA
ATOM      9  C   UNL     1     -10.820  10.670  67.879  0.00  0.00    +0.077 C 
ENDBRANCH   3   7
BRANCH   1  11
ATOM     10  C   UNL     1     -10.309  17.116  68.039  0.00  0.00    +0.246 C 
ATOM     11  N   UNL     1     -11.481  16.489  68.554  0.00  0.00    -0.179 NA
ATOM     12  O   UNL     1      -9.304  17.100  68.808  0.00  0.00    -0.273 OA
BRANCH  10  13
ATOM     13  C   UNL     1     -10.190  17.629  66.651  0.00  0.00    +0.087 C 
BRANCH  13  15
ATOM     14  C   UNL     1     -10.614  19.700  66.814  0.00  0.00    +0.001 C 
ATOM     15  C   UNL     1     -10.400  19.124  66.566  0.00  0.00    +0.010 C 
ENDBRANCH  13  15
ENDBRANCH  10  13
ENDBRANCH   1  11
BRANCH   4  16
ATOM     16  O   UNL     1     -12.714  11.461  70.437  0.00  0.00    -0.473 OA
BRANCH  16  17
ATOM     17  C   UNL     1     -12.900  10.892  71.734  0.00  0.00    +0.240 C 
BRANCH  17  18
ATOM     18  C   UNL     1     -13.113   9.309  71.208  0.00  0.00    +0.213 C 
ATOM     19  O   UNL     1     -13.953   8.972  72.462  0.00  0.00    -0.218 OA
BRANCH  18  20
ATOM     20  C   UNL     1     -11.698   8.817  71.971  0.00  0.00    +0.125 C 
BRANCH  20  21
ATOM     21  N   UNL     1     -11.042   8.080  70.918  0.00  0.00    -0.217 NA
BRANCH  21  22
ATOM     22  C   UNL     1     -11.535   6.723  70.776  0.00  0.00    +0.073 C 
ATOM     23  C   UNL     1     -11.225   6.130  69.424  0.00  0.00    +0.019 C 
ATOM     24  C   UNL     1     -11.101   5.832  71.912  0.00  0.00    +0.019 C 
ENDBRANCH  21  22
ENDBRANCH  20  21
ENDBRANCH  18  20
ENDBRANCH  17  18
ENDBRANCH  16  17
ENDBRANCH   4  16
TORSDOF 10
ENDMDL
