MODEL 1
REMARK VINA RESULT:      -6.8      0.000      0.000
REMARK  Name = 
REMARK  6 active torsions:
REMARK  status: ('A' for Active; 'I' for Inactive)
REMARK    1  A    between atoms: C_6  and  C_7
REMARK    2  A    between atoms: C_7  and  O_8
REMARK    3  A    between atoms: O_8  and  C_9
REMARK    4  A    between atoms: C_9  and  C_10
REMARK    5  A    between atoms: C_9  and  C_16
REMARK    6  A    between atoms: C_10  and  N_11
REMARK                            x       y       z     vdW  Elec       q    Type
REMARK                         _______ _______ _______ _____ _____    ______ ____
ROOT
ATOM      1  C   UNL     1     -11.566  14.864  69.646  0.00  0.00    +0.161 C 
ENDROOT
BRANCH   1   2
ATOM      2  C   UNL     1     -12.129  14.006  68.359  0.00  0.00    +0.017 A 
ATOM      3  C   UNL     1     -11.653  12.712  68.580  0.00  0.00    +0.057 A 
ATOM      4 CL   UNL     1     -11.689  11.975  70.178  0.00  0.00    -0.082 Cl
ATOM      5  C   UNL     1     -11.471  11.863  67.495  0.00  0.00    +0.023 A 
ATOM      6  C   UNL     1     -11.646  12.325  66.210  0.00  0.00    +0.058 A 
ATOM      7 CL   UNL     1     -10.913  11.495  64.841  0.00  0.00    -0.082 Cl
ATOM      8  C   UNL     1     -12.115  13.611  66.072  0.00  0.00    +0.011 A 
ATOM      9  C   UNL     1     -11.907  14.490  67.124  0.00  0.00    -0.000 A 
ENDBRANCH   1   2
BRANCH   1  10
ATOM     10  O   UNL     1     -11.730  16.253  68.981  0.00  0.00    -0.345 OA
BRANCH  10  11
ATOM     11  C   UNL     1     -10.460  16.762  69.163  0.00  0.00    +0.170 C 
BRANCH  11  14
ATOM     12 CL   UNL     1      -8.970  16.199  66.270  0.00  0.00    -0.075 Cl
ATOM     13  C   UNL     1      -9.618  17.671  66.950  0.00  0.00    +0.085 A 
ATOM     14  C   UNL     1     -10.157  17.881  68.215  0.00  0.00    +0.024 A 
ATOM     15  C   UNL     1      -9.753  19.123  68.692  0.00  0.00    +0.006 A 
ATOM     16  C   UNL     1     -10.038  20.110  67.755  0.00  0.00    +0.036 A 
ATOM     17  S   UNL     1      -9.664  19.262  66.311  0.00  0.00    -0.075 S 
ENDBRANCH  11  14
ENDBRANCH  10  11
ENDBRANCH   1  10
BRANCH   1  18
ATOM     18  C   UNL     1     -13.087  14.910  70.351  0.00  0.00    +0.142 C 
BRANCH  18  19
ATOM     19  N   UNL     1     -12.886  15.642  71.597  0.00  0.00    -0.305 N 
ATOM     20  C   UNL     1     -13.876  15.820  72.499  0.00  0.00    +0.179 A 
ATOM     21  N   UNL     1     -13.329  15.984  73.703  0.00  0.00    -0.222 NA
ATOM     22  C   UNL     1     -12.183  15.262  73.699  0.00  0.00    +0.119 A 
ATOM     23  C   UNL     1     -11.827  15.269  72.361  0.00  0.00    +0.098 A 
ENDBRANCH  18  19
ENDBRANCH   1  18
TORSDOF 6
ENDMDL
MODEL 2
REMARK VINA RESULT:      -6.5      1.426      1.641
REMARK  Name = 
REMARK  6 active torsions:
REMARK  status: ('A' for Active; 'I' for Inactive)
REMARK    1  A    between atoms: C_6  and  C_7
REMARK    2  A    between atoms: C_7  and  O_8
REMARK    3  A    between atoms: O_8  and  C_9
REMARK    4  A    between atoms: C_9  and  C_10
REMARK    5  A    between atoms: C_9  and  C_16
REMARK    6  A    between atoms: C_10  and  N_11
REMARK                            x       y       z     vdW  Elec       q    Type
REMARK                         _______ _______ _______ _____ _____    ______ ____
ROOT
ATOM      1  C   UNL     1     -10.825  14.886  68.811  0.00  0.00    +0.161 C 
ENDROOT
BRANCH   1   2
ATOM      2  C   UNL     1     -11.809  14.212  67.678  0.00  0.00    +0.017 A 
ATOM      3  C   UNL     1     -11.503  12.851  67.730  0.00  0.00    +0.057 A 
ATOM      4 CL   UNL     1     -11.268  12.015  69.261  0.00  0.00    -0.082 Cl
ATOM      5  C   UNL     1     -11.724  12.063  66.607  0.00  0.00    +0.023 A 
ATOM      6  C   UNL     1     -12.129  12.635  65.423  0.00  0.00    +0.058 A 
ATOM      7 CL   UNL     1     -11.886  11.806  63.887  0.00  0.00    -0.082 Cl
ATOM      8  C   UNL     1     -12.409  13.981  65.448  0.00  0.00    +0.011 A 
ATOM      9  C   UNL     1     -11.818  14.745  66.443  0.00  0.00    -0.000 A 
ENDBRANCH   1   2
BRANCH   1  10
ATOM     10  O   UNL     1     -10.270  15.996  67.883  0.00  0.00    -0.345 OA
BRANCH  10  11
ATOM     11  C   UNL     1      -9.565  16.750  68.800  0.00  0.00    +0.170 C 
BRANCH  11  14
ATOM     12 CL   UNL     1      -6.514  17.933  69.249  0.00  0.00    -0.075 Cl
ATOM     13  C   UNL     1      -7.859  18.567  68.334  0.00  0.00    +0.085 A 
ATOM     14  C   UNL     1      -9.159  18.080  68.246  0.00  0.00    +0.024 A 
ATOM     15  C   UNL     1     -10.053  19.144  68.232  0.00  0.00    +0.006 A 
ATOM     16  C   UNL     1      -9.695  20.057  67.247  0.00  0.00    +0.036 A 
ATOM     17  S   UNL     1      -7.987  20.001  67.400  0.00  0.00    -0.075 S 
ENDBRANCH  11  14
ENDBRANCH  10  11
ENDBRANCH   1  10
BRANCH   1  18
ATOM     18  C   UNL     1     -12.066  15.854  69.392  0.00  0.00    +0.142 C 
BRANCH  18  19
ATOM     19  N   UNL     1     -12.279  15.386  70.758  0.00  0.00    -0.305 N 
ATOM     20  C   UNL     1     -11.840  16.074  71.834  0.00  0.00    +0.179 A 
ATOM     21  N   UNL     1     -12.612  15.770  72.877  0.00  0.00    -0.222 NA
ATOM     22  C   UNL     1     -13.840  15.503  72.372  0.00  0.00    +0.119 A 
ATOM     23  C   UNL     1     -13.549  15.048  71.097  0.00  0.00    +0.098 A 
ENDBRANCH  18  19
ENDBRANCH   1  18
TORSDOF 6
ENDMDL
MODEL 3
REMARK VINA RESULT:      -6.5      2.341      4.874
REMARK  Name = 
REMARK  6 active torsions:
REMARK  status: ('A' for Active; 'I' for Inactive)
REMARK    1  A    between atoms: C_6  and  C_7
REMARK    2  A    between atoms: C_7  and  O_8
REMARK    3  A    between atoms: O_8  and  C_9
REMARK    4  A    between atoms: C_9  and  C_10
REMARK    5  A    between atoms: C_9  and  C_16
REMARK    6  A    between atoms: C_10  and  N_11
REMARK                            x       y       z     vdW  Elec       q    Type
REMARK                         _______ _______ _______ _____ _____    ______ ____
ROOT
ATOM      1  C   UNL     1     -11.123  15.887  68.982  0.00  0.00    +0.161 C 
ENDROOT
BRANCH   1   2
ATOM      2  C   UNL     1      -9.585  16.463  69.082  0.00  0.00    +0.017 A 
ATOM      3  C   UNL     1      -9.447  17.260  67.944  0.00  0.00    +0.057 A 
ATOM      4 CL   UNL     1     -10.729  18.343  67.414  0.00  0.00    -0.082 Cl
ATOM      5  C   UNL     1      -8.178  17.474  67.417  0.00  0.00    +0.023 A 
ATOM      6  C   UNL     1      -7.087  16.819  67.938  0.00  0.00    +0.058 A 
ATOM      7 CL   UNL     1      -5.613  16.622  66.994  0.00  0.00    -0.082 Cl
ATOM      8  C   UNL     1      -7.301  16.049  69.058  0.00  0.00    +0.011 A 
ATOM      9  C   UNL     1      -8.588  15.583  69.284  0.00  0.00    -0.000 A 
ENDBRANCH   1   2
BRANCH   1  10
ATOM     10  O   UNL     1     -10.733  14.531  68.344  0.00  0.00    -0.345 OA
BRANCH  10  11
ATOM     11  C   UNL     1     -11.976  14.085  67.940  0.00  0.00    +0.170 C 
BRANCH  11  14
ATOM     12 CL   UNL     1     -11.152  11.034  66.980  0.00  0.00    -0.075 Cl
ATOM     13  C   UNL     1     -11.747  12.396  66.063  0.00  0.00    +0.085 A 
ATOM     14  C   UNL     1     -11.995  13.694  66.495  0.00  0.00    +0.024 A 
ATOM     15  C   UNL     1     -11.599  14.594  65.512  0.00  0.00    +0.006 A 
ATOM     16  C   UNL     1     -12.175  14.255  64.294  0.00  0.00    +0.036 A 
ATOM     17  S   UNL     1     -12.075  12.545  64.386  0.00  0.00    -0.075 S 
ENDBRANCH  11  14
ENDBRANCH  10  11
ENDBRANCH   1  10
BRANCH   1  18
ATOM     18  C   UNL     1     -11.058  15.284  70.546  0.00  0.00    +0.142 C 
BRANCH  18  19
ATOM     19  N   UNL     1     -12.205  15.890  71.215  0.00  0.00    -0.305 N 
ATOM     20  C   UNL     1     -13.442  15.352  71.157  0.00  0.00    +0.179 A 
ATOM     21  N   UNL     1     -14.120  15.729  72.241  0.00  0.00    -0.222 NA
ATOM     22  C   UNL     1     -13.205  15.871  73.229  0.00  0.00    +0.119 A 
ATOM     23  C   UNL     1     -12.054  16.195  72.530  0.00  0.00    +0.098 A 
ENDBRANCH  18  19
ENDBRANCH   1  18
TORSDOF 6
ENDMDL
MODEL 4
REMARK VINA RESULT:      -6.3      4.132      7.317
REMARK  Name = 
REMARK  6 active torsions:
REMARK  status: ('A' for Active; 'I' for Inactive)
REMARK    1  A    between atoms: C_6  and  C_7
REMARK    2  A    between atoms: C_7  and  O_8
REMARK    3  A    between atoms: O_8  and  C_9
REMARK    4  A    between atoms: C_9  and  C_10
REMARK    5  A    between atoms: C_9  and  C_16
REMARK    6  A    between atoms: C_10  and  N_11
REMARK                            x       y       z     vdW  Elec       q    Type
REMARK                         _______ _______ _______ _____ _____    ______ ____
ROOT
ATOM      1  C   UNL     1     -11.258  13.662  69.152  0.00  0.00    +0.161 C 
ENDROOT
BRANCH   1   2
ATOM      2  C   UNL     1     -12.237  14.350  70.282  0.00  0.00    +0.017 A 
ATOM      3  C   UNL     1     -11.530  15.478  70.702  0.00  0.00    +0.057 A 
ATOM      4 CL   UNL     1     -10.688  16.518  69.558  0.00  0.00    -0.082 Cl
ATOM      5  C   UNL     1     -11.770  15.995  71.969  0.00  0.00    +0.023 A 
ATOM      6  C   UNL     1     -12.605  15.339  72.844  0.00  0.00    +0.058 A 
ATOM      7 CL   UNL     1     -12.505  15.626  74.579  0.00  0.00    -0.082 Cl
ATOM      8  C   UNL     1     -13.264  14.232  72.360  0.00  0.00    +0.011 A 
ATOM      9  C   UNL     1     -12.707  13.573  71.274  0.00  0.00    -0.000 A 
ENDBRANCH   1   2
BRANCH   1  10
ATOM     10  O   UNL     1     -11.874  12.246  69.264  0.00  0.00    -0.345 OA
BRANCH  10  11
ATOM     11  C   UNL     1     -10.769  11.474  68.965  0.00  0.00    +0.170 C 
BRANCH  11  14
ATOM     12 CL   UNL     1     -10.541   8.584  67.383  0.00  0.00    -0.075 Cl
ATOM     13  C   UNL     1     -10.573   8.950  69.090  0.00  0.00    +0.085 A 
ATOM     14  C   UNL     1     -10.763  10.179  69.714  0.00  0.00    +0.024 A 
ATOM     15  C   UNL     1     -11.557  10.009  70.843  0.00  0.00    +0.006 A 
ATOM     16  C   UNL     1     -11.029   9.010  71.652  0.00  0.00    +0.036 A 
ATOM     17  S   UNL     1     -10.500   7.905  70.450  0.00  0.00    -0.075 S 
ENDBRANCH  11  14
ENDBRANCH  10  11
ENDBRANCH   1  10
BRANCH   1  18
ATOM     18  C   UNL     1     -12.283  14.120  67.906  0.00  0.00    +0.142 C 
BRANCH  18  19
ATOM     19  N   UNL     1     -11.513  13.864  66.692  0.00  0.00    -0.305 N 
ATOM     20  C   UNL     1     -12.097  13.723  65.483  0.00  0.00    +0.179 A 
ATOM     21  N   UNL     1     -11.216  14.063  64.543  0.00  0.00    -0.222 NA
ATOM     22  C   UNL     1     -10.422  15.011  65.097  0.00  0.00    +0.119 A 
ATOM     23  C   UNL     1     -10.469  14.695  66.444  0.00  0.00    +0.098 A 
ENDBRANCH  18  19
ENDBRANCH   1  18
TORSDOF 6
ENDMDL
MODEL 5
REMARK VINA RESULT:      -6.3      3.809      6.259
REMARK  Name = 
REMARK  6 active torsions:
REMARK  status: ('A' for Active; 'I' for Inactive)
REMARK    1  A    between atoms: C_6  and  C_7
REMARK    2  A    between atoms: C_7  and  O_8
REMARK    3  A    between atoms: O_8  and  C_9
REMARK    4  A    between atoms: C_9  and  C_10
REMARK    5  A    between atoms: C_9  and  C_16
REMARK    6  A    between atoms: C_10  and  N_11
REMARK                            x       y       z     vdW  Elec       q    Type
REMARK                         _______ _______ _______ _____ _____    ______ ____
ROOT
ATOM      1  C   UNL     1     -11.961  12.882  66.977  0.00  0.00    +0.161 C 
ENDROOT
BRANCH   1   2
ATOM      2  C   UNL     1     -10.731  12.511  65.948  0.00  0.00    +0.017 A 
ATOM      3  C   UNL     1     -11.232  12.843  64.688  0.00  0.00    +0.057 A 
ATOM      4 CL   UNL     1     -12.152  14.319  64.419  0.00  0.00    -0.082 Cl
ATOM      5  C   UNL     1     -10.719  12.203  63.566  0.00  0.00    +0.023 A 
ATOM      6  C   UNL     1      -9.815  11.175  63.701  0.00  0.00    +0.058 A 
ATOM      7 CL   UNL     1      -9.574  10.004  62.407  0.00  0.00    -0.082 Cl
ATOM      8  C   UNL     1      -9.370  10.904  64.974  0.00  0.00    +0.011 A 
ATOM      9  C   UNL     1     -10.175  11.290  66.035  0.00  0.00    -0.000 A 
ENDBRANCH   1   2
BRANCH   1  10
ATOM     10  O   UNL     1     -11.925  11.536  67.743  0.00  0.00    -0.345 OA
BRANCH  10  11
ATOM     11  C   UNL     1     -11.844  11.997  69.042  0.00  0.00    +0.170 C 
BRANCH  11  14
ATOM     12 CL   UNL     1     -13.360  12.535  71.926  0.00  0.00    -0.075 Cl
ATOM     13  C   UNL     1     -12.731  11.064  71.226  0.00  0.00    +0.085 A 
ATOM     14  C   UNL     1     -12.016  10.899  70.044  0.00  0.00    +0.024 A 
ATOM     15  C   UNL     1     -11.018   9.950  70.234  0.00  0.00    +0.006 A 
ATOM     16  C   UNL     1     -11.560   8.786  70.766  0.00  0.00    +0.036 A 
ATOM     17  S   UNL     1     -12.714   9.462  71.840  0.00  0.00    -0.075 S 
ENDBRANCH  11  14
ENDBRANCH  10  11
ENDBRANCH   1  10
BRANCH   1  18
ATOM     18  C   UNL     1     -10.912  13.635  68.048  0.00  0.00    +0.142 C 
BRANCH  18  19
ATOM     19  N   UNL     1     -11.122  15.061  67.816  0.00  0.00    -0.305 N 
ATOM     20  C   UNL     1     -11.523  15.900  68.795  0.00  0.00    +0.179 A 
ATOM     21  N   UNL     1     -11.100  17.129  68.501  0.00  0.00    -0.222 NA
ATOM     22  C   UNL     1      -9.943  16.975  67.814  0.00  0.00    +0.119 A 
ATOM     23  C   UNL     1     -10.110  15.737  67.215  0.00  0.00    +0.098 A 
ENDBRANCH  18  19
ENDBRANCH   1  18
TORSDOF 6
ENDMDL
MODEL 6
REMARK VINA RESULT:      -6.2      3.521      5.817
REMARK  Name = 
REMARK  6 active torsions:
REMARK  status: ('A' for Active; 'I' for Inactive)
REMARK    1  A    between atoms: C_6  and  C_7
REMARK    2  A    between atoms: C_7  and  O_8
REMARK    3  A    between atoms: O_8  and  C_9
REMARK    4  A    between atoms: C_9  and  C_10
REMARK    5  A    between atoms: C_9  and  C_16
REMARK    6  A    between atoms: C_10  and  N_11
REMARK                            x       y       z     vdW  Elec       q    Type
REMARK                         _______ _______ _______ _____ _____    ______ ____
ROOT
ATOM      1  C   UNL     1     -10.817  14.124  67.429  0.00  0.00    +0.161 C 
ENDROOT
BRANCH   1   2
ATOM      2  C   UNL     1     -11.796  14.457  68.710  0.00  0.00    +0.017 A 
ATOM      3  C   UNL     1     -11.332  15.687  69.180  0.00  0.00    +0.057 A 
ATOM      4 CL   UNL     1     -10.894  16.990  68.081  0.00  0.00    -0.082 Cl
ATOM      5  C   UNL     1     -11.541  16.026  70.512  0.00  0.00    +0.023 A 
ATOM      6  C   UNL     1     -12.093  15.116  71.384  0.00  0.00    +0.058 A 
ATOM      7 CL   UNL     1     -11.867  15.278  73.124  0.00  0.00    -0.082 Cl
ATOM      8  C   UNL     1     -12.524  13.925  70.848  0.00  0.00    +0.011 A 
ATOM      9  C   UNL     1     -11.954  13.512  69.653  0.00  0.00    -0.000 A 
ENDBRANCH   1   2
BRANCH   1  10
ATOM     10  O   UNL     1      -9.802  13.277  68.235  0.00  0.00    -0.345 OA
BRANCH  10  11
ATOM     11  C   UNL     1      -8.643  13.557  67.539  0.00  0.00    +0.170 C 
BRANCH  11  14
ATOM     12 CL   UNL     1      -7.864  16.513  66.291  0.00  0.00    -0.075 Cl
ATOM     13  C   UNL     1      -7.476  15.789  67.831  0.00  0.00    +0.085 A 
ATOM     14  C   UNL     1      -7.749  14.501  68.280  0.00  0.00    +0.024 A 
ATOM     15  C   UNL     1      -6.667  14.025  69.011  0.00  0.00    +0.006 A 
ATOM     16  C   UNL     1      -6.321  14.937  70.002  0.00  0.00    +0.036 A 
ATOM     17  S   UNL     1      -6.569  16.406  69.150  0.00  0.00    -0.075 S 
ENDBRANCH  11  14
ENDBRANCH  10  11
ENDBRANCH   1  10
BRANCH   1  18
ATOM     18  C   UNL     1     -11.740  12.791  67.000  0.00  0.00    +0.142 C 
BRANCH  18  19
ATOM     19  N   UNL     1     -12.401  13.193  65.762  0.00  0.00    -0.305 N 
ATOM     20  C   UNL     1     -12.151  14.377  65.162  0.00  0.00    +0.179 A 
ATOM     21  N   UNL     1     -12.406  14.255  63.859  0.00  0.00    -0.222 NA
ATOM     22  C   UNL     1     -12.134  12.967  63.541  0.00  0.00    +0.119 A 
ATOM     23  C   UNL     1     -12.366  12.305  64.735  0.00  0.00    +0.098 A 
ENDBRANCH  18  19
ENDBRANCH   1  18
TORSDOF 6
ENDMDL
MODEL 7
REMARK VINA RESULT:      -6.2      3.419      6.475
REMARK  Name = 
REMARK  6 active torsions:
REMARK  status: ('A' for Active; 'I' for Inactive)
REMARK    1  A    between atoms: C_6  and  C_7
REMARK    2  A    between atoms: C_7  and  O_8
REMARK    3  A    between atoms: O_8  and  C_9
REMARK    4  A    between atoms: C_9  and  C_10
REMARK    5  A    between atoms: C_9  and  C_16
REMARK    6  A    between atoms: C_10  and  N_11
REMARK                            x       y       z     vdW  Elec       q    Type
REMARK                         _______ _______ _______ _____ _____    ______ ____
ROOT
ATOM      1  C   UNL     1     -11.001  14.139  67.752  0.00  0.00    +0.161 C 
ENDROOT
BRANCH   1   2
ATOM      2  C   UNL     1     -10.281  15.544  67.289  0.00  0.00    +0.017 A 
ATOM      3  C   UNL     1      -8.927  15.336  67.557  0.00  0.00    +0.057 A 
ATOM      4 CL   UNL     1      -8.135  13.810  67.181  0.00  0.00    -0.082 Cl
ATOM      5  C   UNL     1      -8.107  16.433  67.795  0.00  0.00    +0.023 A 
ATOM      6  C   UNL     1      -8.641  17.698  67.880  0.00  0.00    +0.058 A 
ATOM      7 CL   UNL     1      -7.777  18.992  68.705  0.00  0.00    -0.082 Cl
ATOM      8  C   UNL     1      -9.983  17.824  67.606  0.00  0.00    +0.011 A 
ATOM      9  C   UNL     1     -10.782  16.701  67.760  0.00  0.00    -0.000 A 
ENDBRANCH   1   2
BRANCH   1  10
ATOM     10  O   UNL     1     -11.978  14.796  68.757  0.00  0.00    -0.345 OA
BRANCH  10  11
ATOM     11  C   UNL     1     -11.923  13.880  69.788  0.00  0.00    +0.170 C 
BRANCH  11  14
ATOM     12 CL   UNL     1     -13.644  12.339  72.147  0.00  0.00    -0.075 Cl
ATOM     13  C   UNL     1     -12.785  13.859  72.172  0.00  0.00    +0.085 A 
ATOM     14  C   UNL     1     -12.148  14.515  71.124  0.00  0.00    +0.024 A 
ATOM     15  C   UNL     1     -12.371  15.883  71.229  0.00  0.00    +0.006 A 
ATOM     16  C   UNL     1     -12.029  16.327  72.501  0.00  0.00    +0.036 A 
ATOM     17  S   UNL     1     -12.589  15.001  73.436  0.00  0.00    -0.075 S 
ENDBRANCH  11  14
ENDBRANCH  10  11
ENDBRANCH   1  10
BRANCH   1  18
ATOM     18  C   UNL     1     -12.094  14.217  66.483  0.00  0.00    +0.142 C 
BRANCH  18  19
ATOM     19  N   UNL     1     -11.457  13.461  65.409  0.00  0.00    -0.305 N 
ATOM     20  C   UNL     1     -11.206  12.137  65.508  0.00  0.00    +0.179 A 
ATOM     21  N   UNL     1     -11.171  11.619  64.281  0.00  0.00    -0.222 NA
ATOM     22  C   UNL     1     -12.026  12.358  63.535  0.00  0.00    +0.119 A 
ATOM     23  C   UNL     1     -11.994  13.589  64.169  0.00  0.00    +0.098 A 
ENDBRANCH  18  19
ENDBRANCH   1  18
TORSDOF 6
ENDMDL
MODEL 8
REMARK VINA RESULT:      -6.1      3.284      5.264
REMARK  Name = 
REMARK  6 active torsions:
REMARK  status: ('A' for Active; 'I' for Inactive)
REMARK    1  A    between atoms: C_6  and  C_7
REMARK    2  A    between atoms: C_7  and  O_8
REMARK    3  A    between atoms: O_8  and  C_9
REMARK    4  A    between atoms: C_9  and  C_10
REMARK    5  A    between atoms: C_9  and  C_16
REMARK    6  A    between atoms: C_10  and  N_11
REMARK                            x       y       z     vdW  Elec       q    Type
REMARK                         _______ _______ _______ _____ _____    ______ ____
ROOT
ATOM      1  C   UNL     1     -10.745  15.405  67.277  0.00  0.00    +0.161 C 
ENDROOT
BRANCH   1   2
ATOM      2  C   UNL     1     -10.266  13.934  66.717  0.00  0.00    +0.017 A 
ATOM      3  C   UNL     1     -11.463  13.269  66.443  0.00  0.00    +0.057 A 
ATOM      4 CL   UNL     1     -12.811  14.082  65.656  0.00  0.00    -0.082 Cl
ATOM      5  C   UNL     1     -11.486  11.880  66.464  0.00  0.00    +0.023 A 
ATOM      6  C   UNL     1     -10.377  11.169  66.862  0.00  0.00    +0.058 A 
ATOM      7 CL   UNL     1     -10.521   9.507  67.427  0.00  0.00    -0.082 Cl
ATOM      8  C   UNL     1      -9.236  11.893  67.118  0.00  0.00    +0.011 A 
ATOM      9  C   UNL     1      -9.381  13.232  67.448  0.00  0.00    -0.000 A 
ENDBRANCH   1   2
BRANCH   1  10
ATOM     10  O   UNL     1     -10.524  15.074  68.773  0.00  0.00    -0.345 OA
BRANCH  10  11
ATOM     11  C   UNL     1     -11.743  15.463  69.292  0.00  0.00    +0.170 C 
BRANCH  11  14
ATOM     12 CL   UNL     1     -12.078  16.287  72.472  0.00  0.00    -0.075 Cl
ATOM     13  C   UNL     1     -12.513  14.826  71.622  0.00  0.00    +0.085 A 
ATOM     14  C   UNL     1     -12.269  14.485  70.296  0.00  0.00    +0.024 A 
ATOM     15  C   UNL     1     -11.934  13.138  70.216  0.00  0.00    +0.006 A 
ATOM     16  C   UNL     1     -12.896  12.368  70.858  0.00  0.00    +0.036 A 
ATOM     17  S   UNL     1     -13.242  13.383  72.198  0.00  0.00    -0.075 S 
ENDBRANCH  11  14
ENDBRANCH  10  11
ENDBRANCH   1  10
BRANCH   1  18
ATOM     18  C   UNL     1      -9.204  16.041  67.086  0.00  0.00    +0.142 C 
BRANCH  18  19
ATOM     19  N   UNL     1      -9.398  17.486  67.155  0.00  0.00    -0.305 N 
ATOM     20  C   UNL     1     -10.607  18.061  66.975  0.00  0.00    +0.179 A 
ATOM     21  N   UNL     1     -10.621  19.227  67.621  0.00  0.00    -0.222 NA
ATOM     22  C   UNL     1      -9.804  19.077  68.690  0.00  0.00    +0.119 A 
ATOM     23  C   UNL     1      -8.907  18.117  68.252  0.00  0.00    +0.098 A 
ENDBRANCH  18  19
ENDBRANCH   1  18
TORSDOF 6
ENDMDL
MODEL 9
REMARK VINA RESULT:      -6.0      3.260      5.168
REMARK  Name = 
REMARK  6 active torsions:
REMARK  status: ('A' for Active; 'I' for Inactive)
REMARK    1  A    between atoms: C_6  and  C_7
REMARK    2  A    between atoms: C_7  and  O_8
REMARK    3  A    between atoms: O_8  and  C_9
REMARK    4  A    between atoms: C_9  and  C_10
REMARK    5  A    between atoms: C_9  and  C_16
REMARK    6  A    between atoms: C_10  and  N_11
REMARK                            x       y       z     vdW  Elec       q    Type
REMARK                         _______ _______ _______ _____ _____    ______ ____
ROOT
ATOM      1  C   UNL     1     -11.085  11.790  69.256  0.00  0.00    +0.161 C 
ENDROOT
BRANCH   1   2
ATOM      2  C   UNL     1     -11.584  10.841  70.505  0.00  0.00    +0.017 A 
ATOM      3  C   UNL     1     -10.803   9.690  70.389  0.00  0.00    +0.057 A 
ATOM      4 CL   UNL     1      -9.085   9.774  70.016  0.00  0.00    -0.082 Cl
ATOM      5  C   UNL     1     -11.281   8.492  70.907  0.00  0.00    +0.023 A 
ATOM      6  C   UNL     1     -12.553   8.414  71.424  0.00  0.00    +0.058 A 
ATOM      7 CL   UNL     1     -13.379   6.865  71.567  0.00  0.00    -0.082 Cl
ATOM      8  C   UNL     1     -13.264   9.589  71.504  0.00  0.00    +0.011 A 
ATOM      9  C   UNL     1     -12.903  10.621  70.650  0.00  0.00    -0.000 A 
ENDBRANCH   1   2
BRANCH   1  10
ATOM     10  O   UNL     1     -11.989  11.121  68.192  0.00  0.00    -0.345 OA
BRANCH  10  11
ATOM     11  C   UNL     1     -11.082  10.966  67.163  0.00  0.00    +0.170 C 
BRANCH  11  14
ATOM     12 CL   UNL     1      -8.622  13.169  67.165  0.00  0.00    -0.075 Cl
ATOM     13  C   UNL     1     -10.021  13.024  66.131  0.00  0.00    +0.085 A 
ATOM     14  C   UNL     1     -11.083  12.131  66.224  0.00  0.00    +0.024 A 
ATOM     15  C   UNL     1     -12.269  12.785  65.909  0.00  0.00    +0.006 A 
ATOM     16  C   UNL     1     -12.146  13.434  64.686  0.00  0.00    +0.036 A 
ATOM     17  S   UNL     1     -10.529  13.994  64.810  0.00  0.00    -0.075 S 
ENDBRANCH  11  14
ENDBRANCH  10  11
ENDBRANCH   1  10
BRANCH   1  18
ATOM     18  C   UNL     1     -12.221  12.968  69.626  0.00  0.00    +0.142 C 
BRANCH  18  19
ATOM     19  N   UNL     1     -11.472  14.220  69.578  0.00  0.00    -0.305 N 
ATOM     20  C   UNL     1     -11.746  15.192  68.681  0.00  0.00    +0.179 A 
ATOM     21  N   UNL     1     -11.355  16.360  69.188  0.00  0.00    -0.222 NA
ATOM     22  C   UNL     1     -11.499  16.256  70.531  0.00  0.00    +0.119 A 
ATOM     23  C   UNL     1     -11.339  14.897  70.747  0.00  0.00    +0.098 A 
ENDBRANCH  18  19
ENDBRANCH   1  18
TORSDOF 6
ENDMDL
