MODEL 1
REMARK VINA RESULT:      -7.3      0.000      0.000
REMARK  Name = 
REMARK  1 active torsions:
REMARK  status: ('A' for Active; 'I' for Inactive)
REMARK    1  A    between atoms: N_10  and  C_11
REMARK                            x       y       z     vdW  Elec       q    Type
REMARK                         _______ _______ _______ _____ _____    ______ ____
ROOT
ATOM      1  C   UNL     1     -11.167  11.489  66.337  0.00  0.00    +0.120 C 
ATOM      2  N   UNL     1     -11.741  12.822  66.171  0.00  0.00    -0.255 N 
ATOM      3  C   UNL     1     -11.771  13.277  64.815  0.00  0.00    +0.239 C 
ATOM      4  O   UNL     1     -11.563  12.429  63.900  0.00  0.00    -0.274 OA
ATOM      5  C   UNL     1     -12.190  14.600  64.257  0.00  0.00    +0.171 C 
ATOM      6  C   UNL     1     -11.402  15.715  64.855  0.00  0.00    +0.242 C 
ATOM      7  O   UNL     1     -11.230  16.690  64.067  0.00  0.00    -0.274 OA
ATOM      8  N   UNL     1     -11.142  15.990  66.234  0.00  0.00    -0.236 N 
ATOM      9  C   UNL     1     -11.295  15.065  67.315  0.00  0.00    +0.073 A 
ATOM     10  C   UNL     1     -11.065  15.696  68.514  0.00  0.00    +0.028 A 
ATOM     11  C   UNL     1     -11.501  15.043  69.659  0.00  0.00    +0.059 A 
ATOM     12 CL   UNL     1     -11.978  15.952  71.090  0.00  0.00    -0.082 Cl
ATOM     13  C   UNL     1     -11.548  13.657  69.629  0.00  0.00    +0.013 A 
ATOM     14  C   UNL     1     -11.661  12.951  68.437  0.00  0.00    +0.017 A 
ATOM     15  C   UNL     1     -11.608  13.711  67.285  0.00  0.00    +0.068 A 
ENDROOT
BRANCH   8  16
ATOM     16  C   UNL     1     -10.074  16.924  66.442  0.00  0.00    +0.058 A 
ATOM     17  C   UNL     1     -10.455  18.229  66.732  0.00  0.00    +0.015 A 
ATOM     18  C   UNL     1      -9.530  19.263  66.700  0.00  0.00    +0.001 A 
ATOM     19  C   UNL     1      -8.240  18.908  66.364  0.00  0.00    +0.000 A 
ATOM     20  C   UNL     1      -7.807  17.591  66.479  0.00  0.00    +0.001 A 
ATOM     21  C   UNL     1      -8.752  16.603  66.260  0.00  0.00    +0.015 A 
ENDBRANCH   8  16
TORSDOF 1
ENDMDL
MODEL 2
REMARK VINA RESULT:      -7.0      2.534      5.010
REMARK  Name = 
REMARK  1 active torsions:
REMARK  status: ('A' for Active; 'I' for Inactive)
REMARK    1  A    between atoms: N_10  and  C_11
REMARK                            x       y       z     vdW  Elec       q    Type
REMARK                         _______ _______ _______ _____ _____    ______ ____
ROOT
ATOM      1  C   UNL     1     -12.056  14.529  65.003  0.00  0.00    +0.120 C 
ATOM      2  N   UNL     1     -11.330  14.198  66.226  0.00  0.00    -0.255 N 
ATOM      3  C   UNL     1     -11.623  12.896  66.741  0.00  0.00    +0.239 C 
ATOM      4  O   UNL     1     -12.239  12.086  65.991  0.00  0.00    -0.274 OA
ATOM      5  C   UNL     1     -11.160  12.237  68.002  0.00  0.00    +0.171 C 
ATOM      6  C   UNL     1     -11.524  13.044  69.201  0.00  0.00    +0.242 C 
ATOM      7  O   UNL     1     -11.746  12.344  70.231  0.00  0.00    -0.274 OA
ATOM      8  N   UNL     1     -11.311  14.437  69.442  0.00  0.00    -0.236 N 
ATOM      9  C   UNL     1     -11.012  15.422  68.449  0.00  0.00    +0.073 A 
ATOM     10  C   UNL     1     -10.760  16.635  69.044  0.00  0.00    +0.028 A 
ATOM     11  C   UNL     1     -10.127  17.595  68.267  0.00  0.00    +0.059 A 
ATOM     12 CL   UNL     1      -9.094  18.816  69.005  0.00  0.00    -0.082 Cl
ATOM     13  C   UNL     1     -10.338  17.553  66.897  0.00  0.00    +0.013 A 
ATOM     14  C   UNL     1     -10.710  16.383  66.246  0.00  0.00    +0.017 A 
ATOM     15  C   UNL     1     -10.966  15.300  67.065  0.00  0.00    +0.068 A 
ENDROOT
BRANCH   8  16
ATOM     16  C   UNL     1     -12.087  14.957  70.531  0.00  0.00    +0.058 A 
ATOM     17  C   UNL     1     -11.369  15.348  71.656  0.00  0.00    +0.015 A 
ATOM     18  C   UNL     1     -12.018  15.621  72.853  0.00  0.00    +0.001 A 
ATOM     19  C   UNL     1     -13.390  15.476  72.841  0.00  0.00    +0.000 A 
ATOM     20  C   UNL     1     -14.100  15.489  71.646  0.00  0.00    +0.001 A 
ATOM     21  C   UNL     1     -13.458  14.973  70.533  0.00  0.00    +0.015 A 
ENDBRANCH   8  16
TORSDOF 1
ENDMDL
MODEL 3
REMARK VINA RESULT:      -6.8      1.251      1.317
REMARK  Name = 
REMARK  1 active torsions:
REMARK  status: ('A' for Active; 'I' for Inactive)
REMARK    1  A    between atoms: N_10  and  C_11
REMARK                            x       y       z     vdW  Elec       q    Type
REMARK                         _______ _______ _______ _____ _____    ______ ____
ROOT
ATOM      1  C   UNL     1     -10.563  11.038  65.885  0.00  0.00    +0.120 C 
ATOM      2  N   UNL     1     -11.220  12.342  65.930  0.00  0.00    -0.255 N 
ATOM      3  C   UNL     1     -11.026  13.132  64.753  0.00  0.00    +0.239 C 
ATOM      4  O   UNL     1     -10.560  12.561  63.725  0.00  0.00    -0.274 OA
ATOM      5  C   UNL     1     -11.454  14.534  64.459  0.00  0.00    +0.171 C 
ATOM      6  C   UNL     1     -10.912  15.490  65.467  0.00  0.00    +0.242 C 
ATOM      7  O   UNL     1     -10.684  16.642  64.998  0.00  0.00    -0.274 OA
ATOM      8  N   UNL     1     -10.958  15.408  66.894  0.00  0.00    -0.236 N 
ATOM      9  C   UNL     1     -11.230  14.228  67.656  0.00  0.00    +0.073 A 
ATOM     10  C   UNL     1     -11.304  14.535  68.994  0.00  0.00    +0.028 A 
ATOM     11  C   UNL     1     -11.891  13.589  69.822  0.00  0.00    +0.059 A 
ATOM     12 CL   UNL     1     -12.728  14.073  71.294  0.00  0.00    -0.082 Cl
ATOM     13  C   UNL     1     -11.796  12.258  69.445  0.00  0.00    +0.013 A 
ATOM     14  C   UNL     1     -11.602  11.881  68.121  0.00  0.00    +0.017 A 
ATOM     15  C   UNL     1     -11.398  12.916  67.229  0.00  0.00    +0.068 A 
ENDROOT
BRANCH   8  16
ATOM     16  C   UNL     1     -10.048  16.302  67.550  0.00  0.00    +0.058 A 
ATOM     17  C   UNL     1     -10.588  17.506  67.987  0.00  0.00    +0.015 A 
ATOM     18  C   UNL     1      -9.765  18.546  68.399  0.00  0.00    +0.001 A 
ATOM     19  C   UNL     1      -8.409  18.301  68.339  0.00  0.00    +0.000 A 
ATOM     20  C   UNL     1      -7.918  17.001  68.296  0.00  0.00    +0.001 A 
ATOM     21  C   UNL     1      -8.701  16.059  67.650  0.00  0.00    +0.015 A 
ENDBRANCH   8  16
TORSDOF 1
ENDMDL
MODEL 4
REMARK VINA RESULT:      -6.8      2.703      5.181
REMARK  Name = 
REMARK  1 active torsions:
REMARK  status: ('A' for Active; 'I' for Inactive)
REMARK    1  A    between atoms: N_10  and  C_11
REMARK                            x       y       z     vdW  Elec       q    Type
REMARK                         _______ _______ _______ _____ _____    ______ ____
ROOT
ATOM      1  C   UNL     1     -12.738  15.272  70.296  0.00  0.00    +0.120 C 
ATOM      2  N   UNL     1     -11.575  14.817  69.538  0.00  0.00    -0.255 N 
ATOM      3  C   UNL     1     -11.037  15.803  68.652  0.00  0.00    +0.239 C 
ATOM      4  O   UNL     1     -11.422  16.999  68.790  0.00  0.00    -0.274 OA
ATOM      5  C   UNL     1      -9.926  15.693  67.657  0.00  0.00    +0.171 C 
ATOM      6  C   UNL     1     -10.190  14.612  66.664  0.00  0.00    +0.242 C 
ATOM      7  O   UNL     1      -9.698  14.846  65.523  0.00  0.00    -0.274 OA
ATOM      8  N   UNL     1     -10.578  13.257  66.898  0.00  0.00    -0.236 N 
ATOM      9  C   UNL     1     -11.127  12.741  68.115  0.00  0.00    +0.073 A 
ATOM     10  C   UNL     1     -11.279  11.378  68.025  0.00  0.00    +0.028 A 
ATOM     11  C   UNL     1     -11.470  10.690  69.215  0.00  0.00    +0.059 A 
ATOM     12 CL   UNL     1     -10.939   9.019  69.387  0.00  0.00    -0.082 Cl
ATOM     13  C   UNL     1     -12.089  11.366  70.256  0.00  0.00    +0.013 A 
ATOM     14  C   UNL     1     -12.072  12.753  70.344  0.00  0.00    +0.017 A 
ATOM     15  C   UNL     1     -11.503  13.412  69.272  0.00  0.00    +0.068 A 
ENDROOT
BRANCH   8  16
ATOM     16  C   UNL     1     -11.084  12.594  65.731  0.00  0.00    +0.058 A 
ATOM     17  C   UNL     1     -10.192  11.754  65.074  0.00  0.00    +0.015 A 
ATOM     18  C   UNL     1     -10.478  11.266  63.806  0.00  0.00    +0.001 A 
ATOM     19  C   UNL     1     -11.680  11.669  63.262  0.00  0.00    +0.000 A 
ATOM     20  C   UNL     1     -12.704  12.152  64.069  0.00  0.00    +0.001 A 
ATOM     21  C   UNL     1     -12.328  12.844  65.208  0.00  0.00    +0.015 A 
ENDBRANCH   8  16
TORSDOF 1
ENDMDL
MODEL 5
REMARK VINA RESULT:      -6.7      3.371      5.151
REMARK  Name = 
REMARK  1 active torsions:
REMARK  status: ('A' for Active; 'I' for Inactive)
REMARK    1  A    between atoms: N_10  and  C_11
REMARK                            x       y       z     vdW  Elec       q    Type
REMARK                         _______ _______ _______ _____ _____    ______ ____
ROOT
ATOM      1  C   UNL     1     -13.798  13.745  71.819  0.00  0.00    +0.120 C 
ATOM      2  N   UNL     1     -12.492  13.917  71.186  0.00  0.00    -0.255 N 
ATOM      3  C   UNL     1     -12.135  15.282  70.951  0.00  0.00    +0.239 C 
ATOM      4  O   UNL     1     -12.817  16.181  71.524  0.00  0.00    -0.274 OA
ATOM      5  C   UNL     1     -10.943  15.855  70.253  0.00  0.00    +0.171 C 
ATOM      6  C   UNL     1     -10.837  15.348  68.855  0.00  0.00    +0.242 C 
ATOM      7  O   UNL     1     -10.313  16.177  68.057  0.00  0.00    -0.274 OA
ATOM      8  N   UNL     1     -10.897  13.999  68.385  0.00  0.00    -0.236 N 
ATOM      9  C   UNL     1     -11.411  12.880  69.114  0.00  0.00    +0.073 A 
ATOM     10  C   UNL     1     -11.211  11.720  68.404  0.00  0.00    +0.028 A 
ATOM     11  C   UNL     1     -11.336  10.528  69.104  0.00  0.00    +0.059 A 
ATOM     12 CL   UNL     1     -10.425   9.100  68.623  0.00  0.00    -0.082 Cl
ATOM     13  C   UNL     1     -12.198  10.509  70.191  0.00  0.00    +0.013 A 
ATOM     14  C   UNL     1     -12.534  11.666  70.882  0.00  0.00    +0.017 A 
ATOM     15  C   UNL     1     -12.049  12.844  70.348  0.00  0.00    +0.068 A 
ENDROOT
BRANCH   8  16
ATOM     16  C   UNL     1     -11.110  13.892  66.971  0.00  0.00    +0.058 A 
ATOM     17  C   UNL     1     -12.421  14.062  66.540  0.00  0.00    +0.015 A 
ATOM     18  C   UNL     1     -12.791  13.731  65.243  0.00  0.00    +0.001 A 
ATOM     19  C   UNL     1     -11.788  13.232  64.439  0.00  0.00    +0.000 A 
ATOM     20  C   UNL     1     -10.450  13.452  64.746  0.00  0.00    +0.001 A 
ATOM     21  C   UNL     1     -10.123  13.534  66.089  0.00  0.00    +0.015 A 
ENDBRANCH   8  16
TORSDOF 1
ENDMDL
MODEL 6
REMARK VINA RESULT:      -6.7      3.803      5.395
REMARK  Name = 
REMARK  1 active torsions:
REMARK  status: ('A' for Active; 'I' for Inactive)
REMARK    1  A    between atoms: N_10  and  C_11
REMARK                            x       y       z     vdW  Elec       q    Type
REMARK                         _______ _______ _______ _____ _____    ______ ____
ROOT
ATOM      1  C   UNL     1      -8.756  11.081  68.503  0.00  0.00    +0.120 C 
ATOM      2  N   UNL     1     -10.087  11.672  68.389  0.00  0.00    -0.255 N 
ATOM      3  C   UNL     1     -10.108  12.928  67.704  0.00  0.00    +0.239 C 
ATOM      4  O   UNL     1      -9.077  13.268  67.056  0.00  0.00    -0.274 OA
ATOM      5  C   UNL     1     -11.244  13.873  67.471  0.00  0.00    +0.171 C 
ATOM      6  C   UNL     1     -11.866  14.303  68.755  0.00  0.00    +0.242 C 
ATOM      7  O   UNL     1     -12.342  15.474  68.717  0.00  0.00    -0.274 OA
ATOM      8  N   UNL     1     -12.309  13.497  69.850  0.00  0.00    -0.236 N 
ATOM      9  C   UNL     1     -11.939  12.136  70.091  0.00  0.00    +0.073 A 
ATOM     10  C   UNL     1     -12.635  11.639  71.166  0.00  0.00    +0.028 A 
ATOM     11  C   UNL     1     -12.652  10.260  71.318  0.00  0.00    +0.059 A 
ATOM     12 CL   UNL     1     -14.014   9.454  72.091  0.00  0.00    -0.082 Cl
ATOM     13  C   UNL     1     -11.563   9.547  70.838  0.00  0.00    +0.013 A 
ATOM     14  C   UNL     1     -10.747  10.045  69.830  0.00  0.00    +0.017 A 
ATOM     15  C   UNL     1     -11.020  11.336  69.422  0.00  0.00    +0.068 A 
ENDROOT
BRANCH   8  16
ATOM     16  C   UNL     1     -12.531  14.239  71.057  0.00  0.00    +0.058 A 
ATOM     17  C   UNL     1     -13.860  14.418  71.425  0.00  0.00    +0.015 A 
ATOM     18  C   UNL     1     -14.207  15.324  72.417  0.00  0.00    +0.001 A 
ATOM     19  C   UNL     1     -13.162  16.018  72.992  0.00  0.00    +0.000 A 
ATOM     20  C   UNL     1     -11.857  15.545  72.907  0.00  0.00    +0.001 A 
ATOM     21  C   UNL     1     -11.521  14.844  71.761  0.00  0.00    +0.015 A 
ENDBRANCH   8  16
TORSDOF 1
ENDMDL
MODEL 7
REMARK VINA RESULT:      -6.3      2.400      5.156
REMARK  Name = 
REMARK  1 active torsions:
REMARK  status: ('A' for Active; 'I' for Inactive)
REMARK    1  A    between atoms: N_10  and  C_11
REMARK                            x       y       z     vdW  Elec       q    Type
REMARK                         _______ _______ _______ _____ _____    ______ ____
ROOT
ATOM      1  C   UNL     1      -9.174  17.565  66.128  0.00  0.00    +0.120 C 
ATOM      2  N   UNL     1      -9.440  16.174  65.769  0.00  0.00    -0.255 N 
ATOM      3  C   UNL     1     -10.671  15.980  65.067  0.00  0.00    +0.239 C 
ATOM      4  O   UNL     1     -11.258  17.000  64.604  0.00  0.00    -0.274 OA
ATOM      5  C   UNL     1     -11.330  14.714  64.619  0.00  0.00    +0.171 C 
ATOM      6  C   UNL     1     -11.573  13.792  65.765  0.00  0.00    +0.242 C 
ATOM      7  O   UNL     1     -12.601  13.069  65.621  0.00  0.00    -0.274 OA
ATOM      8  N   UNL     1     -10.661  13.365  66.780  0.00  0.00    -0.236 N 
ATOM      9  C   UNL     1      -9.419  13.995  67.109  0.00  0.00    +0.073 A 
ATOM     10  C   UNL     1      -8.749  13.257  68.054  0.00  0.00    +0.028 A 
ATOM     11  C   UNL     1      -7.401  13.537  68.227  0.00  0.00    +0.059 A 
ATOM     12 CL   UNL     1      -6.281  12.288  68.763  0.00  0.00    -0.082 Cl
ATOM     13  C   UNL     1      -6.974  14.830  67.960  0.00  0.00    +0.013 A 
ATOM     14  C   UNL     1      -7.672  15.671  67.103  0.00  0.00    +0.017 A 
ATOM     15  C   UNL     1      -8.872  15.179  66.628  0.00  0.00    +0.068 A 
ENDROOT
BRANCH   8  16
ATOM     16  C   UNL     1     -11.303  12.766  67.914  0.00  0.00    +0.058 A 
ATOM     17  C   UNL     1     -11.758  13.646  68.890  0.00  0.00    +0.015 A 
ATOM     18  C   UNL     1     -12.158  13.181  70.135  0.00  0.00    +0.001 A 
ATOM     19  C   UNL     1     -12.069  11.818  70.326  0.00  0.00    +0.000 A 
ATOM     20  C   UNL     1     -12.010  10.946  69.244  0.00  0.00    +0.001 A 
ATOM     21  C   UNL     1     -11.375  11.410  68.103  0.00  0.00    +0.015 A 
ENDBRANCH   8  16
TORSDOF 1
ENDMDL
MODEL 8
REMARK VINA RESULT:      -6.2      2.039      2.620
REMARK  Name = 
REMARK  1 active torsions:
REMARK  status: ('A' for Active; 'I' for Inactive)
REMARK    1  A    between atoms: N_10  and  C_11
REMARK                            x       y       z     vdW  Elec       q    Type
REMARK                         _______ _______ _______ _____ _____    ______ ____
ROOT
ATOM      1  C   UNL     1     -11.190  10.175  69.430  0.00  0.00    +0.120 C 
ATOM      2  N   UNL     1     -11.735  11.313  68.696  0.00  0.00    -0.255 N 
ATOM      3  C   UNL     1     -11.309  11.383  67.331  0.00  0.00    +0.239 C 
ATOM      4  O   UNL     1     -10.750  10.364  66.832  0.00  0.00    -0.274 OA
ATOM      5  C   UNL     1     -11.571  12.431  66.297  0.00  0.00    +0.171 C 
ATOM      6  C   UNL     1     -11.102  13.771  66.752  0.00  0.00    +0.242 C 
ATOM      7  O   UNL     1     -10.713  14.516  65.806  0.00  0.00    -0.274 OA
ATOM      8  N   UNL     1     -11.357  14.438  67.990  0.00  0.00    -0.236 N 
ATOM      9  C   UNL     1     -11.833  13.820  69.191  0.00  0.00    +0.073 A 
ATOM     10  C   UNL     1     -12.072  14.774  70.151  0.00  0.00    +0.028 A 
ATOM     11  C   UNL     1     -12.849  14.390  71.235  0.00  0.00    +0.059 A 
ATOM     12 CL   UNL     1     -13.844  15.562  72.093  0.00  0.00    -0.082 Cl
ATOM     13  C   UNL     1     -12.813  13.055  71.610  0.00  0.00    +0.013 A 
ATOM     14  C   UNL     1     -12.464  12.050  70.717  0.00  0.00    +0.017 A 
ATOM     15  C   UNL     1     -12.048  12.476  69.470  0.00  0.00    +0.068 A 
ENDROOT
BRANCH   8  16
ATOM     16  C   UNL     1     -10.479  15.544  68.240  0.00  0.00    +0.058 A 
ATOM     17  C   UNL     1     -11.008  16.807  68.000  0.00  0.00    +0.015 A 
ATOM     18  C   UNL     1     -10.187  17.925  67.958  0.00  0.00    +0.001 A 
ATOM     19  C   UNL     1      -8.843  17.694  68.163  0.00  0.00    +0.000 A 
ATOM     20  C   UNL     1      -8.404  16.532  68.788  0.00  0.00    +0.001 A 
ATOM     21  C   UNL     1      -9.160  15.389  68.584  0.00  0.00    +0.015 A 
ENDBRANCH   8  16
TORSDOF 1
ENDMDL
MODEL 9
REMARK VINA RESULT:      -6.2      3.095      6.081
REMARK  Name = 
REMARK  1 active torsions:
REMARK  status: ('A' for Active; 'I' for Inactive)
REMARK    1  A    between atoms: N_10  and  C_11
REMARK                            x       y       z     vdW  Elec       q    Type
REMARK                         _______ _______ _______ _____ _____    ______ ____
ROOT
ATOM      1  C   UNL     1      -9.904  17.035  66.542  0.00  0.00    +0.120 C 
ATOM      2  N   UNL     1     -10.966  16.227  67.137  0.00  0.00    -0.255 N 
ATOM      3  C   UNL     1     -11.115  16.410  68.548  0.00  0.00    +0.239 C 
ATOM      4  O   UNL     1     -10.533  17.397  69.083  0.00  0.00    -0.274 OA
ATOM      5  C   UNL     1     -12.013  15.708  69.516  0.00  0.00    +0.171 C 
ATOM      6  C   UNL     1     -11.783  14.235  69.499  0.00  0.00    +0.242 C 
ATOM      7  O   UNL     1     -11.989  13.680  70.617  0.00  0.00    -0.274 OA
ATOM      8  N   UNL     1     -11.726  13.350  68.378  0.00  0.00    -0.236 N 
ATOM      9  C   UNL     1     -11.537  13.738  67.014  0.00  0.00    +0.073 A 
ATOM     10  C   UNL     1     -11.646  12.643  66.190  0.00  0.00    +0.028 A 
ATOM     11  C   UNL     1     -11.830  12.893  64.837  0.00  0.00    +0.059 A 
ATOM     12 CL   UNL     1     -12.707  11.753  63.820  0.00  0.00    -0.082 Cl
ATOM     13  C   UNL     1     -11.301  14.068  64.324  0.00  0.00    +0.013 A 
ATOM     14  C   UNL     1     -11.057  15.176  65.126  0.00  0.00    +0.017 A 
ATOM     15  C   UNL     1     -11.265  14.991  66.479  0.00  0.00    +0.068 A 
ENDROOT
BRANCH   8  16
ATOM     16  C   UNL     1     -11.147  12.073  68.682  0.00  0.00    +0.058 A 
ATOM     17  C   UNL     1     -12.010  11.130  69.230  0.00  0.00    +0.015 A 
ATOM     18  C   UNL     1     -11.517   9.962  69.798  0.00  0.00    +0.001 A 
ATOM     19  C   UNL     1     -10.146   9.816  69.780  0.00  0.00    +0.000 A 
ATOM     20  C   UNL     1      -9.360  10.543  68.893  0.00  0.00    +0.001 A 
ATOM     21  C   UNL     1      -9.807  11.810  68.557  0.00  0.00    +0.015 A 
ENDBRANCH   8  16
TORSDOF 1
ENDMDL
