MODEL 1
REMARK VINA RESULT:      -8.0      0.000      0.000
REMARK  Name = 
REMARK  15 active torsions:
REMARK  status: ('A' for Active; 'I' for Inactive)
REMARK    1  A    between atoms: C_14  and  C_15
REMARK    2  A    between atoms: C_15  and  C_16
REMARK    3  A    between atoms: C_16  and  C_17
REMARK    4  A    between atoms: C_17  and  C_18
REMARK    5  A    between atoms: C_18  and  C_19
REMARK    6  A    between atoms: C_19  and  C_20
REMARK    7  A    between atoms: C_20  and  C_21
REMARK    8  A    between atoms: C_21  and  C_22
REMARK    9  A    between atoms: C_22  and  C_23
REMARK   10  A    between atoms: C_23  and  S_24
REMARK   11  A    between atoms: S_24  and  C_26
REMARK   12  A    between atoms: C_26  and  C_27
REMARK   13  A    between atoms: C_27  and  C_28
REMARK   14  A    between atoms: C_28  and  C_29
REMARK   15  A    between atoms: C_29  and  C_32
REMARK                            x       y       z     vdW  Elec       q    Type
REMARK                         _______ _______ _______ _____ _____    ______ ____
ROOT
ATOM      1  C   UNL     1     -10.032  12.317  68.070  0.00  0.00    +0.000 C 
ENDROOT
BRANCH   1  20
ATOM      2  C   UNL     1     -13.968  14.073  72.235  0.00  0.00    +0.003 C 
ATOM      3  C   UNL     1     -12.998  13.523  71.232  0.00  0.00    +0.028 C 
ATOM      4  C   UNL     1     -13.187  15.010  71.148  0.00  0.00    +0.152 C 
ATOM      5  O   UNL     1     -14.089  15.835  72.018  0.00  0.00    -0.223 OA
ATOM      6  C   UNL     1     -12.315  15.526  70.042  0.00  0.00    +0.033 C 
ATOM      7  C   UNL     1     -11.587  14.359  69.442  0.00  0.00    +0.003 C 
ATOM      8  C   UNL     1     -12.009  13.121  70.178  0.00  0.00    +0.003 C 
ATOM      9  C   UNL     1     -11.621  11.681  70.024  0.00  0.00    +0.004 C 
ATOM     10  C   UNL     1     -12.222  10.642  70.924  0.00  0.00    +0.022 C 
ATOM     11  C   UNL     1     -11.834   9.201  70.771  0.00  0.00    -0.026 A 
ATOM     12  C   UNL     1     -10.846   8.799  69.716  0.00  0.00    -0.023 A 
ATOM     13  C   UNL     1     -10.245   9.838  68.816  0.00  0.00    +0.026 C 
ATOM     14  C   UNL     1     -10.458   7.359  69.562  0.00  0.00    +0.037 A 
ATOM     15  C   UNL     1     -11.059   6.319  70.463  0.00  0.00    +0.195 A 
ATOM     16  O   UNL     1     -10.670   4.879  70.308  0.00  0.00    -0.287 OA
ATOM     17  C   UNL     1     -12.047   6.722  71.516  0.00  0.00    +0.042 A 
ATOM     18  C   UNL     1     -12.435   8.162  71.670  0.00  0.00    -0.001 A 
ATOM     19  C   UNL     1     -13.211  11.044  71.978  0.00  0.00    +0.004 C 
ATOM     20  C   UNL     1     -10.633  11.279  68.970  0.00  0.00    +0.005 C 
ATOM     21  C   UNL     1     -13.598  12.485  72.132  0.00  0.00    +0.003 C 
ENDBRANCH   1  20
BRANCH   1  22
ATOM     22  C   UNL     1      -8.853  11.973  67.209  0.00  0.00    +0.000 C 
BRANCH  22  23
ATOM     23  C   UNL     1      -8.968  12.047  65.715  0.00  0.00    +0.000 C 
BRANCH  23  24
ATOM     24  C   UNL     1      -9.150  10.791  64.914  0.00  0.00    +0.000 C 
BRANCH  24  25
ATOM     25  C   UNL     1     -10.246  10.706  63.893  0.00  0.00    +0.000 C 
BRANCH  25  26
ATOM     26  C   UNL     1     -11.299  11.773  63.833  0.00  0.00    +0.000 C 
BRANCH  26  27
ATOM     27  C   UNL     1     -12.111  12.095  65.051  0.00  0.00    +0.001 C 
BRANCH  27  28
ATOM     28  C   UNL     1     -12.638  13.485  65.257  0.00  0.00    +0.014 C 
BRANCH  28  29
ATOM     29  C   UNL     1     -12.156  14.606  64.384  0.00  0.00    +0.092 C 
BRANCH  29  30
ATOM     30  S   UNL     1     -11.271  15.674  64.956  0.00  0.00    +0.042 S 
ATOM     31  O   UNL     1     -11.222  17.029  64.317  0.00  0.00    -0.256 OA
BRANCH  30  32
ATOM     32  C   UNL     1     -10.435  15.385  66.168  0.00  0.00    +0.092 C 
BRANCH  32  33
ATOM     33  C   UNL     1      -9.006  15.839  66.218  0.00  0.00    +0.020 C 
BRANCH  33  34
ATOM     34  C   UNL     1      -8.550  16.762  67.309  0.00  0.00    +0.077 C 
BRANCH  34  35
ATOM     35  C   UNL     1      -9.021  18.186  67.332  0.00  0.00    +0.349 C 
ATOM     36  F   UNL     1      -8.118  18.503  66.176  0.00  0.00    -0.195 F 
ATOM     37  F   UNL     1      -9.923  17.869  68.488  0.00  0.00    -0.195 F 
BRANCH  35  38
ATOM     38  C   UNL     1      -9.491  19.611  67.355  0.00  0.00    +0.454 C 
ATOM     39  F   UNL     1      -8.129  20.053  67.803  0.00  0.00    -0.165 F 
ATOM     40  F   UNL     1     -10.853  19.168  66.908  0.00  0.00    -0.165 F 
ATOM     41  F   UNL     1      -9.961  21.035  67.379  0.00  0.00    -0.165 F 
ENDBRANCH  35  38
ENDBRANCH  34  35
ENDBRANCH  33  34
ENDBRANCH  32  33
ENDBRANCH  30  32
ENDBRANCH  29  30
ENDBRANCH  28  29
ENDBRANCH  27  28
ENDBRANCH  26  27
ENDBRANCH  25  26
ENDBRANCH  24  25
ENDBRANCH  23  24
ENDBRANCH  22  23
ENDBRANCH   1  22
TORSDOF 15
ENDMDL
MODEL 2
REMARK VINA RESULT:      -8.0      2.508      4.344
REMARK  Name = 
REMARK  15 active torsions:
REMARK  status: ('A' for Active; 'I' for Inactive)
REMARK    1  A    between atoms: C_14  and  C_15
REMARK    2  A    between atoms: C_15  and  C_16
REMARK    3  A    between atoms: C_16  and  C_17
REMARK    4  A    between atoms: C_17  and  C_18
REMARK    5  A    between atoms: C_18  and  C_19
REMARK    6  A    between atoms: C_19  and  C_20
REMARK    7  A    between atoms: C_20  and  C_21
REMARK    8  A    between atoms: C_21  and  C_22
REMARK    9  A    between atoms: C_22  and  C_23
REMARK   10  A    between atoms: C_23  and  S_24
REMARK   11  A    between atoms: S_24  and  C_26
REMARK   12  A    between atoms: C_26  and  C_27
REMARK   13  A    between atoms: C_27  and  C_28
REMARK   14  A    between atoms: C_28  and  C_29
REMARK   15  A    between atoms: C_29  and  C_32
REMARK                            x       y       z     vdW  Elec       q    Type
REMARK                         _______ _______ _______ _____ _____    ______ ____
ROOT
ATOM      1  C   UNL     1     -10.026  12.574  67.857  0.00  0.00    +0.000 C 
ENDROOT
BRANCH   1  20
ATOM      2  C   UNL     1     -13.829  14.124  72.222  0.00  0.00    +0.003 C 
ATOM      3  C   UNL     1     -12.890  13.624  71.164  0.00  0.00    +0.028 C 
ATOM      4  C   UNL     1     -13.084  15.112  71.155  0.00  0.00    +0.152 C 
ATOM      5  O   UNL     1     -13.960  15.893  72.090  0.00  0.00    -0.223 OA
ATOM      6  C   UNL     1     -12.249  15.682  70.047  0.00  0.00    +0.033 C 
ATOM      7  C   UNL     1     -11.539  14.546  69.371  0.00  0.00    +0.003 C 
ATOM      8  C   UNL     1     -11.935  13.274  70.062  0.00  0.00    +0.003 C 
ATOM      9  C   UNL     1     -11.550  11.844  69.829  0.00  0.00    +0.004 C 
ATOM     10  C   UNL     1     -12.120  10.762  70.699  0.00  0.00    +0.022 C 
ATOM     11  C   UNL     1     -11.735   9.332  70.467  0.00  0.00    -0.026 A 
ATOM     12  C   UNL     1     -10.780   8.982  69.364  0.00  0.00    -0.023 A 
ATOM     13  C   UNL     1     -10.211  10.063  68.494  0.00  0.00    +0.026 C 
ATOM     14  C   UNL     1     -10.395   7.551  69.131  0.00  0.00    +0.037 A 
ATOM     15  C   UNL     1     -10.965   6.470  70.002  0.00  0.00    +0.195 A 
ATOM     16  O   UNL     1     -10.579   5.039  69.769  0.00  0.00    -0.287 OA
ATOM     17  C   UNL     1     -11.919   6.820  71.104  0.00  0.00    +0.042 A 
ATOM     18  C   UNL     1     -12.305   8.250  71.337  0.00  0.00    -0.001 A 
ATOM     19  C   UNL     1     -13.075  11.112  71.802  0.00  0.00    +0.004 C 
ATOM     20  C   UNL     1     -10.595  11.494  68.727  0.00  0.00    +0.005 C 
ATOM     21  C   UNL     1     -13.460  12.544  72.034  0.00  0.00    +0.003 C 
ENDBRANCH   1  20
BRANCH   1  22
ATOM     22  C   UNL     1      -8.545  12.655  67.633  0.00  0.00    +0.000 C 
BRANCH  22  23
ATOM     23  C   UNL     1      -7.872  13.992  67.537  0.00  0.00    +0.000 C 
BRANCH  23  24
ATOM     24  C   UNL     1      -7.451  14.712  68.784  0.00  0.00    +0.000 C 
BRANCH  24  25
ATOM     25  C   UNL     1      -7.772  16.167  68.954  0.00  0.00    +0.000 C 
BRANCH  25  26
ATOM     26  C   UNL     1      -6.668  17.182  68.965  0.00  0.00    +0.000 C 
BRANCH  26  27
ATOM     27  C   UNL     1      -6.986  18.638  68.799  0.00  0.00    +0.001 C 
BRANCH  27  28
ATOM     28  C   UNL     1      -8.410  19.082  68.637  0.00  0.00    +0.014 C 
BRANCH  28  29
ATOM     29  C   UNL     1      -8.877  19.638  67.325  0.00  0.00    +0.092 C 
BRANCH  29  30
ATOM     30  S   UNL     1     -10.024  18.993  66.603  0.00  0.00    +0.042 S 
ATOM     31  O   UNL     1     -10.741  19.738  65.518  0.00  0.00    -0.256 OA
BRANCH  30  32
ATOM     32  C   UNL     1     -10.453  17.603  66.969  0.00  0.00    +0.092 C 
BRANCH  32  33
ATOM     33  C   UNL     1     -10.081  16.448  66.087  0.00  0.00    +0.020 C 
BRANCH  33  34
ATOM     34  C   UNL     1     -11.057  15.937  65.069  0.00  0.00    +0.077 C 
BRANCH  34  35
ATOM     35  C   UNL     1     -11.238  14.460  64.877  0.00  0.00    +0.349 C 
ATOM     36  F   UNL     1     -12.727  14.643  64.871  0.00  0.00    -0.195 F 
ATOM     37  F   UNL     1      -9.749  14.277  64.884  0.00  0.00    -0.195 F 
BRANCH  35  38
ATOM     38  C   UNL     1     -11.419  12.983  64.686  0.00  0.00    +0.454 C 
ATOM     39  F   UNL     1     -10.184  12.942  63.834  0.00  0.00    -0.165 F 
ATOM     40  F   UNL     1     -12.653  13.024  65.538  0.00  0.00    -0.165 F 
ATOM     41  F   UNL     1     -11.599  11.506  64.495  0.00  0.00    -0.165 F 
ENDBRANCH  35  38
ENDBRANCH  34  35
ENDBRANCH  33  34
ENDBRANCH  32  33
ENDBRANCH  30  32
ENDBRANCH  29  30
ENDBRANCH  28  29
ENDBRANCH  27  28
ENDBRANCH  26  27
ENDBRANCH  25  26
ENDBRANCH  24  25
ENDBRANCH  23  24
ENDBRANCH  22  23
ENDBRANCH   1  22
TORSDOF 15
ENDMDL
MODEL 3
REMARK VINA RESULT:      -8.0      1.886      3.035
REMARK  Name = 
REMARK  15 active torsions:
REMARK  status: ('A' for Active; 'I' for Inactive)
REMARK    1  A    between atoms: C_14  and  C_15
REMARK    2  A    between atoms: C_15  and  C_16
REMARK    3  A    between atoms: C_16  and  C_17
REMARK    4  A    between atoms: C_17  and  C_18
REMARK    5  A    between atoms: C_18  and  C_19
REMARK    6  A    between atoms: C_19  and  C_20
REMARK    7  A    between atoms: C_20  and  C_21
REMARK    8  A    between atoms: C_21  and  C_22
REMARK    9  A    between atoms: C_22  and  C_23
REMARK   10  A    between atoms: C_23  and  S_24
REMARK   11  A    between atoms: S_24  and  C_26
REMARK   12  A    between atoms: C_26  and  C_27
REMARK   13  A    between atoms: C_27  and  C_28
REMARK   14  A    between atoms: C_28  and  C_29
REMARK   15  A    between atoms: C_29  and  C_32
REMARK                            x       y       z     vdW  Elec       q    Type
REMARK                         _______ _______ _______ _____ _____    ______ ____
ROOT
ATOM      1  C   UNL     1     -10.189  12.608  67.887  0.00  0.00    +0.000 C 
ENDROOT
BRANCH   1  20
ATOM      2  C   UNL     1     -13.904  14.098  72.349  0.00  0.00    +0.003 C 
ATOM      3  C   UNL     1     -12.985  13.613  71.267  0.00  0.00    +0.028 C 
ATOM      4  C   UNL     1     -13.200  15.098  71.265  0.00  0.00    +0.152 C 
ATOM      5  O   UNL     1     -14.063  15.866  72.223  0.00  0.00    -0.223 OA
ATOM      6  C   UNL     1     -12.400  15.681  70.138  0.00  0.00    +0.033 C 
ATOM      7  C   UNL     1     -11.691  14.556  69.442  0.00  0.00    +0.003 C 
ATOM      8  C   UNL     1     -12.053  13.278  70.140  0.00  0.00    +0.003 C 
ATOM      9  C   UNL     1     -11.655  11.853  69.895  0.00  0.00    +0.004 C 
ATOM     10  C   UNL     1     -12.187  10.763  70.777  0.00  0.00    +0.022 C 
ATOM     11  C   UNL     1     -11.789   9.338  70.532  0.00  0.00    -0.026 A 
ATOM     12  C   UNL     1     -10.857   9.003  69.406  0.00  0.00    -0.023 A 
ATOM     13  C   UNL     1     -10.324  10.094  68.524  0.00  0.00    +0.026 C 
ATOM     14  C   UNL     1     -10.457   7.578  69.160  0.00  0.00    +0.037 A 
ATOM     15  C   UNL     1     -10.991   6.488  70.042  0.00  0.00    +0.195 A 
ATOM     16  O   UNL     1     -10.592   5.063  69.797  0.00  0.00    -0.287 OA
ATOM     17  C   UNL     1     -11.922   6.823  71.168  0.00  0.00    +0.042 A 
ATOM     18  C   UNL     1     -12.322   8.247  71.414  0.00  0.00    -0.001 A 
ATOM     19  C   UNL     1     -13.120  11.098  71.904  0.00  0.00    +0.004 C 
ATOM     20  C   UNL     1     -10.722  11.518  68.769  0.00  0.00    +0.005 C 
ATOM     21  C   UNL     1     -13.518  12.523  72.148  0.00  0.00    +0.003 C 
ENDBRANCH   1  20
BRANCH   1  22
ATOM     22  C   UNL     1     -10.556  12.645  66.433  0.00  0.00    +0.000 C 
BRANCH  22  23
ATOM     23  C   UNL     1     -11.796  13.363  65.990  0.00  0.00    +0.000 C 
BRANCH  23  24
ATOM     24  C   UNL     1     -11.708  14.436  64.945  0.00  0.00    +0.000 C 
BRANCH  24  25
ATOM     25  C   UNL     1     -10.757  15.581  65.125  0.00  0.00    +0.000 C 
BRANCH  25  26
ATOM     26  C   UNL     1     -10.630  16.247  66.464  0.00  0.00    +0.000 C 
BRANCH  26  27
ATOM     27  C   UNL     1      -9.327  16.201  67.204  0.00  0.00    +0.001 C 
BRANCH  27  28
ATOM     28  C   UNL     1      -8.061  15.862  66.474  0.00  0.00    +0.014 C 
BRANCH  28  29
ATOM     29  C   UNL     1      -6.822  16.676  66.704  0.00  0.00    +0.092 C 
BRANCH  29  30
ATOM     30  S   UNL     1      -6.077  16.557  68.001  0.00  0.00    +0.042 S 
ATOM     31  O   UNL     1      -5.073  15.460  68.192  0.00  0.00    -0.256 OA
BRANCH  30  32
ATOM     32  C   UNL     1      -6.337  17.537  69.107  0.00  0.00    +0.092 C 
BRANCH  32  33
ATOM     33  C   UNL     1      -6.497  18.995  68.794  0.00  0.00    +0.020 C 
BRANCH  33  34
ATOM     34  C   UNL     1      -7.835  19.654  68.955  0.00  0.00    +0.077 C 
BRANCH  34  35
ATOM     35  C   UNL     1      -8.797  19.690  67.805  0.00  0.00    +0.349 C 
ATOM     36  F   UNL     1      -9.930  19.395  68.743  0.00  0.00    -0.195 F 
ATOM     37  F   UNL     1      -7.664  19.986  66.867  0.00  0.00    -0.195 F 
BRANCH  35  38
ATOM     38  C   UNL     1      -9.759  19.726  66.655  0.00  0.00    +0.454 C 
ATOM     39  F   UNL     1      -8.615  19.921  65.704  0.00  0.00    -0.165 F 
ATOM     40  F   UNL     1     -10.903  19.531  67.605  0.00  0.00    -0.165 F 
ATOM     41  F   UNL     1     -10.722  19.762  65.504  0.00  0.00    -0.165 F 
ENDBRANCH  35  38
ENDBRANCH  34  35
ENDBRANCH  33  34
ENDBRANCH  32  33
ENDBRANCH  30  32
ENDBRANCH  29  30
ENDBRANCH  28  29
ENDBRANCH  27  28
ENDBRANCH  26  27
ENDBRANCH  25  26
ENDBRANCH  24  25
ENDBRANCH  23  24
ENDBRANCH  22  23
ENDBRANCH   1  22
TORSDOF 15
ENDMDL
MODEL 4
REMARK VINA RESULT:      -7.8      2.739      5.997
REMARK  Name = 
REMARK  15 active torsions:
REMARK  status: ('A' for Active; 'I' for Inactive)
REMARK    1  A    between atoms: C_14  and  C_15
REMARK    2  A    between atoms: C_15  and  C_16
REMARK    3  A    between atoms: C_16  and  C_17
REMARK    4  A    between atoms: C_17  and  C_18
REMARK    5  A    between atoms: C_18  and  C_19
REMARK    6  A    between atoms: C_19  and  C_20
REMARK    7  A    between atoms: C_20  and  C_21
REMARK    8  A    between atoms: C_21  and  C_22
REMARK    9  A    between atoms: C_22  and  C_23
REMARK   10  A    between atoms: C_23  and  S_24
REMARK   11  A    between atoms: S_24  and  C_26
REMARK   12  A    between atoms: C_26  and  C_27
REMARK   13  A    between atoms: C_27  and  C_28
REMARK   14  A    between atoms: C_28  and  C_29
REMARK   15  A    between atoms: C_29  and  C_32
REMARK                            x       y       z     vdW  Elec       q    Type
REMARK                         _______ _______ _______ _____ _____    ______ ____
ROOT
ATOM      1  C   UNL     1      -9.341   7.914  66.238  0.00  0.00    +0.000 C 
ENDROOT
BRANCH   1  20
ATOM      2  C   UNL     1     -11.317   9.065  71.779  0.00  0.00    +0.003 C 
ATOM      3  C   UNL     1     -10.867   8.881  70.360  0.00  0.00    +0.028 C 
ATOM      4  C   UNL     1     -10.513   7.738  71.265  0.00  0.00    +0.152 C 
ATOM      5  O   UNL     1     -10.831   7.641  72.728  0.00  0.00    -0.223 OA
ATOM      6  C   UNL     1      -9.786   6.709  70.451  0.00  0.00    +0.033 C 
ATOM      7  C   UNL     1      -9.690   7.216  69.042  0.00  0.00    +0.003 C 
ATOM      8  C   UNL     1     -10.358   8.558  68.986  0.00  0.00    +0.003 C 
ATOM      9  C   UNL     1     -10.569   9.528  67.862  0.00  0.00    +0.004 C 
ATOM     10  C   UNL     1     -11.289  10.821  68.110  0.00  0.00    +0.022 C 
ATOM     11  C   UNL     1     -11.500  11.791  66.986  0.00  0.00    -0.026 A 
ATOM     12  C   UNL     1     -10.991  11.468  65.612  0.00  0.00    -0.023 A 
ATOM     13  C   UNL     1     -10.271  10.176  65.364  0.00  0.00    +0.026 C 
ATOM     14  C   UNL     1     -11.202  12.437  64.488  0.00  0.00    +0.037 A 
ATOM     15  C   UNL     1     -11.922  13.730  64.737  0.00  0.00    +0.195 A 
ATOM     16  O   UNL     1     -12.132  14.700  63.612  0.00  0.00    -0.287 OA
ATOM     17  C   UNL     1     -12.430  14.052  66.110  0.00  0.00    +0.042 A 
ATOM     18  C   UNL     1     -12.220  13.083  67.235  0.00  0.00    -0.001 A 
ATOM     19  C   UNL     1     -11.798  11.143  69.484  0.00  0.00    +0.004 C 
ATOM     20  C   UNL     1     -10.060   9.206  66.488  0.00  0.00    +0.005 C 
ATOM     21  C   UNL     1     -11.586  10.172  70.609  0.00  0.00    +0.003 C 
ENDBRANCH   1  20
BRANCH   1  22
ATOM     22  C   UNL     1      -7.894   7.924  65.844  0.00  0.00    +0.000 C 
BRANCH  22  23
ATOM     23  C   UNL     1      -6.838   8.207  66.871  0.00  0.00    +0.000 C 
BRANCH  23  24
ATOM     24  C   UNL     1      -6.552   9.620  67.284  0.00  0.00    +0.000 C 
BRANCH  24  25
ATOM     25  C   UNL     1      -6.926  10.089  68.659  0.00  0.00    +0.000 C 
BRANCH  25  26
ATOM     26  C   UNL     1      -7.722  11.349  68.830  0.00  0.00    +0.000 C 
BRANCH  26  27
ATOM     27  C   UNL     1      -7.860  12.310  67.688  0.00  0.00    +0.001 C 
BRANCH  27  28
ATOM     28  C   UNL     1      -8.541  13.631  67.897  0.00  0.00    +0.014 C 
BRANCH  28  29
ATOM     29  C   UNL     1      -8.817  14.526  66.725  0.00  0.00    +0.092 C 
BRANCH  29  30
ATOM     30  S   UNL     1      -9.275  15.936  66.950  0.00  0.00    +0.042 S 
ATOM     31  O   UNL     1      -9.714  16.777  65.788  0.00  0.00    -0.256 OA
BRANCH  30  32
ATOM     32  C   UNL     1      -9.294  16.506  68.338  0.00  0.00    +0.092 C 
BRANCH  32  33
ATOM     33  C   UNL     1     -10.594  16.929  68.957  0.00  0.00    +0.020 C 
BRANCH  33  34
ATOM     34  C   UNL     1     -11.647  15.906  69.262  0.00  0.00    +0.077 C 
BRANCH  34  35
ATOM     35  C   UNL     1     -11.919  15.510  70.683  0.00  0.00    +0.349 C 
ATOM     36  F   UNL     1     -11.293  16.788  71.159  0.00  0.00    -0.195 F 
ATOM     37  F   UNL     1     -12.544  14.232  70.208  0.00  0.00    -0.195 F 
BRANCH  35  38
ATOM     38  C   UNL     1     -12.190  15.114  72.105  0.00  0.00    +0.454 C 
ATOM     39  F   UNL     1     -12.438  13.702  71.664  0.00  0.00    -0.165 F 
ATOM     40  F   UNL     1     -11.942  16.526  72.546  0.00  0.00    -0.165 F 
ATOM     41  F   UNL     1     -12.462  14.718  73.526  0.00  0.00    -0.165 F 
ENDBRANCH  35  38
ENDBRANCH  34  35
ENDBRANCH  33  34
ENDBRANCH  32  33
ENDBRANCH  30  32
ENDBRANCH  29  30
ENDBRANCH  28  29
ENDBRANCH  27  28
ENDBRANCH  26  27
ENDBRANCH  25  26
ENDBRANCH  24  25
ENDBRANCH  23  24
ENDBRANCH  22  23
ENDBRANCH   1  22
TORSDOF 15
ENDMDL
MODEL 5
REMARK VINA RESULT:      -7.7      3.876      5.319
REMARK  Name = 
REMARK  15 active torsions:
REMARK  status: ('A' for Active; 'I' for Inactive)
REMARK    1  A    between atoms: C_14  and  C_15
REMARK    2  A    between atoms: C_15  and  C_16
REMARK    3  A    between atoms: C_16  and  C_17
REMARK    4  A    between atoms: C_17  and  C_18
REMARK    5  A    between atoms: C_18  and  C_19
REMARK    6  A    between atoms: C_19  and  C_20
REMARK    7  A    between atoms: C_20  and  C_21
REMARK    8  A    between atoms: C_21  and  C_22
REMARK    9  A    between atoms: C_22  and  C_23
REMARK   10  A    between atoms: C_23  and  S_24
REMARK   11  A    between atoms: S_24  and  C_26
REMARK   12  A    between atoms: C_26  and  C_27
REMARK   13  A    between atoms: C_27  and  C_28
REMARK   14  A    between atoms: C_28  and  C_29
REMARK   15  A    between atoms: C_29  and  C_32
REMARK                            x       y       z     vdW  Elec       q    Type
REMARK                         _______ _______ _______ _____ _____    ______ ____
ROOT
ATOM      1  C   UNL     1     -10.122  12.568  67.921  0.00  0.00    +0.000 C 
ENDROOT
BRANCH   1  20
ATOM      2  C   UNL     1     -13.893  14.132  72.310  0.00  0.00    +0.003 C 
ATOM      3  C   UNL     1     -12.962  13.629  71.247  0.00  0.00    +0.028 C 
ATOM      4  C   UNL     1     -13.164  15.116  71.228  0.00  0.00    +0.152 C 
ATOM      5  O   UNL     1     -14.035  15.899  72.164  0.00  0.00    -0.223 OA
ATOM      6  C   UNL     1     -12.343  15.681  70.107  0.00  0.00    +0.033 C 
ATOM      7  C   UNL     1     -11.632  14.543  69.433  0.00  0.00    +0.003 C 
ATOM      8  C   UNL     1     -12.015  13.275  70.138  0.00  0.00    +0.003 C 
ATOM      9  C   UNL     1     -11.624  11.845  69.914  0.00  0.00    +0.004 C 
ATOM     10  C   UNL     1     -12.179  10.768  70.798  0.00  0.00    +0.022 C 
ATOM     11  C   UNL     1     -11.788   9.337  70.574  0.00  0.00    -0.026 A 
ATOM     12  C   UNL     1     -10.842   8.984  69.465  0.00  0.00    -0.023 A 
ATOM     13  C   UNL     1     -10.286  10.061  68.581  0.00  0.00    +0.026 C 
ATOM     14  C   UNL     1     -10.450   7.554  69.240  0.00  0.00    +0.037 A 
ATOM     15  C   UNL     1     -11.006   6.476  70.125  0.00  0.00    +0.195 A 
ATOM     16  O   UNL     1     -10.614   5.046  69.900  0.00  0.00    -0.287 OA
ATOM     17  C   UNL     1     -11.952   6.830  71.233  0.00  0.00    +0.042 A 
ATOM     18  C   UNL     1     -12.343   8.260  71.458  0.00  0.00    -0.001 A 
ATOM     19  C   UNL     1     -13.126  11.121  71.907  0.00  0.00    +0.004 C 
ATOM     20  C   UNL     1     -10.677  11.491  68.805  0.00  0.00    +0.005 C 
ATOM     21  C   UNL     1     -13.517  12.553  72.131  0.00  0.00    +0.003 C 
ENDBRANCH   1  20
BRANCH   1  22
ATOM     22  C   UNL     1      -8.656  12.598  67.605  0.00  0.00    +0.000 C 
BRANCH  22  23
ATOM     23  C   UNL     1      -7.828  13.786  67.996  0.00  0.00    +0.000 C 
BRANCH  23  24
ATOM     24  C   UNL     1      -7.894  15.046  67.185  0.00  0.00    +0.000 C 
BRANCH  24  25
ATOM     25  C   UNL     1      -8.899  16.106  67.527  0.00  0.00    +0.000 C 
BRANCH  25  26
ATOM     26  C   UNL     1     -10.012  16.420  66.571  0.00  0.00    +0.000 C 
BRANCH  26  27
ATOM     27  C   UNL     1     -10.319  15.481  65.443  0.00  0.00    +0.001 C 
BRANCH  27  28
ATOM     28  C   UNL     1     -11.533  14.602  65.506  0.00  0.00    +0.014 C 
BRANCH  28  29
ATOM     29  C   UNL     1     -12.191  14.140  64.240  0.00  0.00    +0.092 C 
BRANCH  29  30
ATOM     30  S   UNL     1     -11.954  12.747  63.737  0.00  0.00    +0.042 S 
ATOM     31  O   UNL     1     -13.107  11.916  63.257  0.00  0.00    -0.256 OA
BRANCH  30  32
ATOM     32  C   UNL     1     -10.564  12.185  63.715  0.00  0.00    +0.092 C 
BRANCH  32  33
ATOM     33  C   UNL     1     -10.264  10.897  64.424  0.00  0.00    +0.020 C 
BRANCH  33  34
ATOM     34  C   UNL     1      -8.843  10.500  64.690  0.00  0.00    +0.077 C 
BRANCH  34  35
ATOM     35  C   UNL     1      -8.544   9.226  65.424  0.00  0.00    +0.349 C 
ATOM     36  F   UNL     1     -10.011   9.020  65.662  0.00  0.00    -0.195 F 
ATOM     37  F   UNL     1      -7.077   9.433  65.185  0.00  0.00    -0.195 F 
BRANCH  35  38
ATOM     38  C   UNL     1      -8.245   7.953  66.158  0.00  0.00    +0.454 C 
ATOM     39  F   UNL     1      -7.763   8.745  67.336  0.00  0.00    -0.165 F 
ATOM     40  F   UNL     1      -8.728   7.160  64.979  0.00  0.00    -0.165 F 
ATOM     41  F   UNL     1      -7.946   6.679  66.892  0.00  0.00    -0.165 F 
ENDBRANCH  35  38
ENDBRANCH  34  35
ENDBRANCH  33  34
ENDBRANCH  32  33
ENDBRANCH  30  32
ENDBRANCH  29  30
ENDBRANCH  28  29
ENDBRANCH  27  28
ENDBRANCH  26  27
ENDBRANCH  25  26
ENDBRANCH  24  25
ENDBRANCH  23  24
ENDBRANCH  22  23
ENDBRANCH   1  22
TORSDOF 15
ENDMDL
MODEL 6
REMARK VINA RESULT:      -7.7      4.887      8.436
REMARK  Name = 
REMARK  15 active torsions:
REMARK  status: ('A' for Active; 'I' for Inactive)
REMARK    1  A    between atoms: C_14  and  C_15
REMARK    2  A    between atoms: C_15  and  C_16
REMARK    3  A    between atoms: C_16  and  C_17
REMARK    4  A    between atoms: C_17  and  C_18
REMARK    5  A    between atoms: C_18  and  C_19
REMARK    6  A    between atoms: C_19  and  C_20
REMARK    7  A    between atoms: C_20  and  C_21
REMARK    8  A    between atoms: C_21  and  C_22
REMARK    9  A    between atoms: C_22  and  C_23
REMARK   10  A    between atoms: C_23  and  S_24
REMARK   11  A    between atoms: S_24  and  C_26
REMARK   12  A    between atoms: C_26  and  C_27
REMARK   13  A    between atoms: C_27  and  C_28
REMARK   14  A    between atoms: C_28  and  C_29
REMARK   15  A    between atoms: C_29  and  C_32
REMARK                            x       y       z     vdW  Elec       q    Type
REMARK                         _______ _______ _______ _____ _____    ______ ____
ROOT
ATOM      1  C   UNL     1     -10.695  14.632  66.225  0.00  0.00    +0.000 C 
ENDROOT
BRANCH   1  20
ATOM      2  C   UNL     1     -10.479   8.784  67.519  0.00  0.00    +0.003 C 
ATOM      3  C   UNL     1     -10.582  10.265  67.301  0.00  0.00    +0.028 C 
ATOM      4  C   UNL     1      -9.974   9.519  66.150  0.00  0.00    +0.152 C 
ATOM      5  O   UNL     1      -9.745   8.038  66.081  0.00  0.00    -0.223 OA
ATOM      6  C   UNL     1      -9.636  10.514  65.080  0.00  0.00    +0.033 C 
ATOM      7  C   UNL     1     -10.035  11.875  65.570  0.00  0.00    +0.003 C 
ATOM      8  C   UNL     1     -10.620  11.721  66.942  0.00  0.00    +0.003 C 
ATOM      9  C   UNL     1     -11.182  12.717  67.912  0.00  0.00    +0.004 C 
ATOM     10  C   UNL     1     -11.706  12.259  69.241  0.00  0.00    +0.022 C 
ATOM     11  C   UNL     1     -12.268  13.255  70.210  0.00  0.00    -0.026 A 
ATOM     12  C   UNL     1     -12.305  14.712  69.851  0.00  0.00    -0.023 A 
ATOM     13  C   UNL     1     -11.781  15.170  68.523  0.00  0.00    +0.026 C 
ATOM     14  C   UNL     1     -12.867  15.709  70.820  0.00  0.00    +0.037 A 
ATOM     15  C   UNL     1     -13.391  15.250  72.150  0.00  0.00    +0.195 A 
ATOM     16  O   UNL     1     -13.953  16.247  73.119  0.00  0.00    -0.287 OA
ATOM     17  C   UNL     1     -13.354  13.794  72.508  0.00  0.00    +0.042 A 
ATOM     18  C   UNL     1     -12.792  12.797  71.539  0.00  0.00    -0.001 A 
ATOM     19  C   UNL     1     -11.668  10.803  69.599  0.00  0.00    +0.004 C 
ATOM     20  C   UNL     1     -11.219  14.173  67.553  0.00  0.00    +0.005 C 
ATOM     21  C   UNL     1     -11.106   9.806  68.629  0.00  0.00    +0.003 C 
ENDBRANCH   1  20
BRANCH   1  22
ATOM     22  C   UNL     1      -9.540  15.587  66.163  0.00  0.00    +0.000 C 
BRANCH  22  23
ATOM     23  C   UNL     1      -8.487  15.562  67.230  0.00  0.00    +0.000 C 
BRANCH  23  24
ATOM     24  C   UNL     1      -7.579  14.374  67.361  0.00  0.00    +0.000 C 
BRANCH  24  25
ATOM     25  C   UNL     1      -7.652  13.505  68.581  0.00  0.00    +0.000 C 
BRANCH  25  26
ATOM     26  C   UNL     1      -6.734  12.327  68.719  0.00  0.00    +0.000 C 
BRANCH  26  27
ATOM     27  C   UNL     1      -7.248  10.942  68.463  0.00  0.00    +0.001 C 
BRANCH  27  28
ATOM     28  C   UNL     1      -7.682  10.078  69.610  0.00  0.00    +0.014 C 
BRANCH  28  29
ATOM     29  C   UNL     1      -7.440   8.598  69.568  0.00  0.00    +0.092 C 
BRANCH  29  30
ATOM     30  S   UNL     1      -8.198   7.689  70.489  0.00  0.00    +0.042 S 
ATOM     31  O   UNL     1      -8.480   6.273  70.081  0.00  0.00    -0.256 OA
BRANCH  30  32
ATOM     32  C   UNL     1      -8.675   8.195  71.818  0.00  0.00    +0.092 C 
BRANCH  32  33
ATOM     33  C   UNL     1     -10.126   8.521  72.019  0.00  0.00    +0.020 C 
BRANCH  33  34
ATOM     34  C   UNL     1     -11.161   7.445  71.891  0.00  0.00    +0.077 C 
BRANCH  34  35
ATOM     35  C   UNL     1     -12.615   7.807  71.813  0.00  0.00    +0.349 C 
ATOM     36  F   UNL     1     -12.832   6.719  70.803  0.00  0.00    -0.195 F 
ATOM     37  F   UNL     1     -12.398   8.896  72.822  0.00  0.00    -0.195 F 
BRANCH  35  38
ATOM     38  C   UNL     1     -14.069   8.170  71.734  0.00  0.00    +0.454 C 
ATOM     39  F   UNL     1     -13.733   9.589  72.086  0.00  0.00    -0.165 F 
ATOM     40  F   UNL     1     -14.404   6.750  71.383  0.00  0.00    -0.165 F 
ATOM     41  F   UNL     1     -15.522   8.532  71.656  0.00  0.00    -0.165 F 
ENDBRANCH  35  38
ENDBRANCH  34  35
ENDBRANCH  33  34
ENDBRANCH  32  33
ENDBRANCH  30  32
ENDBRANCH  29  30
ENDBRANCH  28  29
ENDBRANCH  27  28
ENDBRANCH  26  27
ENDBRANCH  25  26
ENDBRANCH  24  25
ENDBRANCH  23  24
ENDBRANCH  22  23
ENDBRANCH   1  22
TORSDOF 15
ENDMDL
MODEL 7
REMARK VINA RESULT:      -7.6      2.787      4.991
REMARK  Name = 
REMARK  15 active torsions:
REMARK  status: ('A' for Active; 'I' for Inactive)
REMARK    1  A    between atoms: C_14  and  C_15
REMARK    2  A    between atoms: C_15  and  C_16
REMARK    3  A    between atoms: C_16  and  C_17
REMARK    4  A    between atoms: C_17  and  C_18
REMARK    5  A    between atoms: C_18  and  C_19
REMARK    6  A    between atoms: C_19  and  C_20
REMARK    7  A    between atoms: C_20  and  C_21
REMARK    8  A    between atoms: C_21  and  C_22
REMARK    9  A    between atoms: C_22  and  C_23
REMARK   10  A    between atoms: C_23  and  S_24
REMARK   11  A    between atoms: S_24  and  C_26
REMARK   12  A    between atoms: C_26  and  C_27
REMARK   13  A    between atoms: C_27  and  C_28
REMARK   14  A    between atoms: C_28  and  C_29
REMARK   15  A    between atoms: C_29  and  C_32
REMARK                            x       y       z     vdW  Elec       q    Type
REMARK                         _______ _______ _______ _____ _____    ______ ____
ROOT
ATOM      1  C   UNL     1      -9.169   8.326  65.759  0.00  0.00    +0.000 C 
ENDROOT
BRANCH   1  20
ATOM      2  C   UNL     1     -11.883  13.662  66.044  0.00  0.00    +0.003 C 
ATOM      3  C   UNL     1     -11.236  12.309  66.085  0.00  0.00    +0.028 C 
ATOM      4  C   UNL     1     -11.098  13.013  64.767  0.00  0.00    +0.152 C 
ATOM      5  O   UNL     1     -11.639  14.372  64.431  0.00  0.00    -0.223 OA
ATOM      6  C   UNL     1     -10.323  12.120  63.844  0.00  0.00    +0.033 C 
ATOM      7  C   UNL     1      -9.982  10.864  64.591  0.00  0.00    +0.003 C 
ATOM      8  C   UNL     1     -10.547  10.981  65.976  0.00  0.00    +0.003 C 
ATOM      9  C   UNL     1     -10.523  10.051  67.152  0.00  0.00    +0.004 C 
ATOM     10  C   UNL     1     -11.187  10.448  68.437  0.00  0.00    +0.022 C 
ATOM     11  C   UNL     1     -11.163   9.517  69.613  0.00  0.00    -0.026 A 
ATOM     12  C   UNL     1     -10.474   8.189  69.504  0.00  0.00    -0.023 A 
ATOM     13  C   UNL     1      -9.809   7.793  68.219  0.00  0.00    +0.026 C 
ATOM     14  C   UNL     1     -10.449   7.258  70.680  0.00  0.00    +0.037 A 
ATOM     15  C   UNL     1     -11.114   7.656  71.965  0.00  0.00    +0.195 A 
ATOM     16  O   UNL     1     -11.089   6.725  73.140  0.00  0.00    -0.287 OA
ATOM     17  C   UNL     1     -11.803   8.983  72.073  0.00  0.00    +0.042 A 
ATOM     18  C   UNL     1     -11.828   9.914  70.898  0.00  0.00    -0.001 A 
ATOM     19  C   UNL     1     -11.876  11.776  68.546  0.00  0.00    +0.004 C 
ATOM     20  C   UNL     1      -9.833   8.723  67.043  0.00  0.00    +0.005 C 
ATOM     21  C   UNL     1     -11.901  12.707  67.369  0.00  0.00    +0.003 C 
ENDBRANCH   1  20
BRANCH   1  22
ATOM     22  C   UNL     1      -7.698   8.033  65.734  0.00  0.00    +0.000 C 
BRANCH  22  23
ATOM     23  C   UNL     1      -6.741   8.932  66.459  0.00  0.00    +0.000 C 
BRANCH  23  24
ATOM     24  C   UNL     1      -6.351  10.252  65.862  0.00  0.00    +0.000 C 
BRANCH  24  25
ATOM     25  C   UNL     1      -6.764  11.529  66.531  0.00  0.00    +0.000 C 
BRANCH  25  26
ATOM     26  C   UNL     1      -7.402  11.491  67.889  0.00  0.00    +0.000 C 
BRANCH  26  27
ATOM     27  C   UNL     1      -8.206  12.661  68.372  0.00  0.00    +0.001 C 
BRANCH  27  28
ATOM     28  C   UNL     1      -7.803  14.056  67.994  0.00  0.00    +0.014 C 
BRANCH  28  29
ATOM     29  C   UNL     1      -8.485  14.749  66.852  0.00  0.00    +0.092 C 
BRANCH  29  30
ATOM     30  S   UNL     1      -9.191  16.053  67.080  0.00  0.00    +0.042 S 
ATOM     31  O   UNL     1      -9.540  16.932  65.916  0.00  0.00    -0.256 OA
BRANCH  30  32
ATOM     32  C   UNL     1      -9.548  16.478  68.474  0.00  0.00    +0.092 C 
BRANCH  32  33
ATOM     33  C   UNL     1     -10.918  16.196  69.016  0.00  0.00    +0.020 C 
BRANCH  33  34
ATOM     34  C   UNL     1     -11.143  15.007  69.902  0.00  0.00    +0.077 C 
BRANCH  34  35
ATOM     35  C   UNL     1     -11.784  15.184  71.247  0.00  0.00    +0.349 C 
ATOM     36  F   UNL     1     -11.983  13.701  71.347  0.00  0.00    -0.195 F 
ATOM     37  F   UNL     1     -11.585  16.668  71.146  0.00  0.00    -0.195 F 
BRANCH  35  38
ATOM     38  C   UNL     1     -12.425  15.361  72.592  0.00  0.00    +0.454 C 
ATOM     39  F   UNL     1     -13.113  14.037  72.438  0.00  0.00    -0.165 F 
ATOM     40  F   UNL     1     -11.737  16.686  72.745  0.00  0.00    -0.165 F 
ATOM     41  F   UNL     1     -13.066  15.538  73.937  0.00  0.00    -0.165 F 
ENDBRANCH  35  38
ENDBRANCH  34  35
ENDBRANCH  33  34
ENDBRANCH  32  33
ENDBRANCH  30  32
ENDBRANCH  29  30
ENDBRANCH  28  29
ENDBRANCH  27  28
ENDBRANCH  26  27
ENDBRANCH  25  26
ENDBRANCH  24  25
ENDBRANCH  23  24
ENDBRANCH  22  23
ENDBRANCH   1  22
TORSDOF 15
ENDMDL
MODEL 8
REMARK VINA RESULT:      -7.6      1.222      4.855
REMARK  Name = 
REMARK  15 active torsions:
REMARK  status: ('A' for Active; 'I' for Inactive)
REMARK    1  A    between atoms: C_14  and  C_15
REMARK    2  A    between atoms: C_15  and  C_16
REMARK    3  A    between atoms: C_16  and  C_17
REMARK    4  A    between atoms: C_17  and  C_18
REMARK    5  A    between atoms: C_18  and  C_19
REMARK    6  A    between atoms: C_19  and  C_20
REMARK    7  A    between atoms: C_20  and  C_21
REMARK    8  A    between atoms: C_21  and  C_22
REMARK    9  A    between atoms: C_22  and  C_23
REMARK   10  A    between atoms: C_23  and  S_24
REMARK   11  A    between atoms: S_24  and  C_26
REMARK   12  A    between atoms: C_26  and  C_27
REMARK   13  A    between atoms: C_27  and  C_28
REMARK   14  A    between atoms: C_28  and  C_29
REMARK   15  A    between atoms: C_29  and  C_32
REMARK                            x       y       z     vdW  Elec       q    Type
REMARK                         _______ _______ _______ _____ _____    ______ ____
ROOT
ATOM      1  C   UNL     1      -9.655  11.178  67.461  0.00  0.00    +0.000 C 
ENDROOT
BRANCH   1  20
ATOM      2  C   UNL     1     -11.315   6.429  70.721  0.00  0.00    +0.003 C 
ATOM      3  C   UNL     1     -10.966   7.684  69.976  0.00  0.00    +0.028 C 
ATOM      4  C   UNL     1     -10.321   6.447  69.424  0.00  0.00    +0.152 C 
ATOM      5  O   UNL     1     -10.483   5.054  69.958  0.00  0.00    -0.223 OA
ATOM      6  C   UNL     1      -9.485   6.847  68.245  0.00  0.00    +0.033 C 
ATOM      7  C   UNL     1      -9.614   8.332  68.067  0.00  0.00    +0.003 C 
ATOM      8  C   UNL     1     -10.529   8.849  69.138  0.00  0.00    +0.003 C 
ATOM      9  C   UNL     1     -11.021  10.229  69.457  0.00  0.00    +0.004 C 
ATOM     10  C   UNL     1     -11.950  10.445  70.615  0.00  0.00    +0.022 C 
ATOM     11  C   UNL     1     -12.443  11.825  70.934  0.00  0.00    -0.026 A 
ATOM     12  C   UNL     1     -12.005  12.990  70.096  0.00  0.00    -0.023 A 
ATOM     13  C   UNL     1     -11.076  12.773  68.938  0.00  0.00    +0.026 C 
ATOM     14  C   UNL     1     -12.497  14.370  70.415  0.00  0.00    +0.037 A 
ATOM     15  C   UNL     1     -13.427  14.586  71.573  0.00  0.00    +0.195 A 
ATOM     16  O   UNL     1     -13.918  15.967  71.892  0.00  0.00    -0.287 OA
ATOM     17  C   UNL     1     -13.863  13.422  72.411  0.00  0.00    +0.042 A 
ATOM     18  C   UNL     1     -13.372  12.042  72.092  0.00  0.00    -0.001 A 
ATOM     19  C   UNL     1     -12.388   9.280  71.453  0.00  0.00    +0.004 C 
ATOM     20  C   UNL     1     -10.584  11.393  68.619  0.00  0.00    +0.005 C 
ATOM     21  C   UNL     1     -11.895   7.899  71.133  0.00  0.00    +0.003 C 
ENDBRANCH   1  20
BRANCH   1  22
ATOM     22  C   UNL     1      -8.385  11.968  67.361  0.00  0.00    +0.000 C 
BRANCH  22  23
ATOM     23  C   UNL     1      -7.239  11.448  66.545  0.00  0.00    +0.000 C 
BRANCH  23  24
ATOM     24  C   UNL     1      -7.333  10.099  65.895  0.00  0.00    +0.000 C 
BRANCH  24  25
ATOM     25  C   UNL     1      -7.826   9.980  64.483  0.00  0.00    +0.000 C 
BRANCH  25  26
ATOM     26  C   UNL     1      -9.286   9.758  64.216  0.00  0.00    +0.000 C 
BRANCH  26  27
ATOM     27  C   UNL     1     -10.054  10.742  63.385  0.00  0.00    +0.001 C 
BRANCH  27  28
ATOM     28  C   UNL     1     -10.239  12.150  63.869  0.00  0.00    +0.014 C 
BRANCH  28  29
ATOM     29  C   UNL     1     -11.601  12.778  63.846  0.00  0.00    +0.092 C 
BRANCH  29  30
ATOM     30  S   UNL     1     -11.831  14.094  64.529  0.00  0.00    +0.042 S 
ATOM     31  O   UNL     1     -12.671  15.145  63.867  0.00  0.00    -0.256 OA
BRANCH  30  32
ATOM     32  C   UNL     1     -11.221  14.358  65.873  0.00  0.00    +0.092 C 
BRANCH  32  33
ATOM     33  C   UNL     1     -10.417  15.604  66.101  0.00  0.00    +0.020 C 
BRANCH  33  34
ATOM     34  C   UNL     1     -10.626  16.415  67.344  0.00  0.00    +0.077 C 
BRANCH  34  35
ATOM     35  C   UNL     1     -10.435  17.903  67.311  0.00  0.00    +0.349 C 
ATOM     36  F   UNL     1     -10.108  17.894  68.775  0.00  0.00    -0.195 F 
ATOM     37  F   UNL     1     -10.763  17.912  65.847  0.00  0.00    -0.195 F 
BRANCH  35  38
ATOM     38  C   UNL     1     -10.245  19.390  67.277  0.00  0.00    +0.454 C 
ATOM     39  F   UNL     1      -9.897  19.379  68.736  0.00  0.00    -0.165 F 
ATOM     40  F   UNL     1     -10.593  19.402  65.818  0.00  0.00    -0.165 F 
ATOM     41  F   UNL     1     -10.054  20.878  67.243  0.00  0.00    -0.165 F 
ENDBRANCH  35  38
ENDBRANCH  34  35
ENDBRANCH  33  34
ENDBRANCH  32  33
ENDBRANCH  30  32
ENDBRANCH  29  30
ENDBRANCH  28  29
ENDBRANCH  27  28
ENDBRANCH  26  27
ENDBRANCH  25  26
ENDBRANCH  24  25
ENDBRANCH  23  24
ENDBRANCH  22  23
ENDBRANCH   1  22
TORSDOF 15
ENDMDL
MODEL 9
REMARK VINA RESULT:      -7.6      3.103      6.949
REMARK  Name = 
REMARK  15 active torsions:
REMARK  status: ('A' for Active; 'I' for Inactive)
REMARK    1  A    between atoms: C_14  and  C_15
REMARK    2  A    between atoms: C_15  and  C_16
REMARK    3  A    between atoms: C_16  and  C_17
REMARK    4  A    between atoms: C_17  and  C_18
REMARK    5  A    between atoms: C_18  and  C_19
REMARK    6  A    between atoms: C_19  and  C_20
REMARK    7  A    between atoms: C_20  and  C_21
REMARK    8  A    between atoms: C_21  and  C_22
REMARK    9  A    between atoms: C_22  and  C_23
REMARK   10  A    between atoms: C_23  and  S_24
REMARK   11  A    between atoms: S_24  and  C_26
REMARK   12  A    between atoms: C_26  and  C_27
REMARK   13  A    between atoms: C_27  and  C_28
REMARK   14  A    between atoms: C_28  and  C_29
REMARK   15  A    between atoms: C_29  and  C_32
REMARK                            x       y       z     vdW  Elec       q    Type
REMARK                         _______ _______ _______ _____ _____    ______ ____
ROOT
ATOM      1  C   UNL     1      -9.172  12.553  67.140  0.00  0.00    +0.000 C 
ENDROOT
BRANCH   1  20
ATOM      2  C   UNL     1     -12.987  13.964  71.542  0.00  0.00    +0.003 C 
ATOM      3  C   UNL     1     -12.013  13.726  70.426  0.00  0.00    +0.028 C 
ATOM      4  C   UNL     1     -12.605  12.471  70.998  0.00  0.00    +0.152 C 
ATOM      5  O   UNL     1     -13.603  12.397  72.116  0.00  0.00    -0.223 OA
ATOM      6  C   UNL     1     -12.023  11.305  70.256  0.00  0.00    +0.033 C 
ATOM      7  C   UNL     1     -11.072  11.838  69.225  0.00  0.00    +0.003 C 
ATOM      8  C   UNL     1     -11.066  13.335  69.331  0.00  0.00    +0.003 C 
ATOM      9  C   UNL     1     -10.320  14.391  68.572  0.00  0.00    +0.004 C 
ATOM     10  C   UNL     1     -10.521  15.840  68.907  0.00  0.00    +0.022 C 
ATOM     11  C   UNL     1      -9.776  16.896  68.148  0.00  0.00    -0.026 A 
ATOM     12  C   UNL     1      -8.829  16.505  67.052  0.00  0.00    -0.023 A 
ATOM     13  C   UNL     1      -8.628  15.057  66.717  0.00  0.00    +0.026 C 
ATOM     14  C   UNL     1      -8.083  17.561  66.292  0.00  0.00    +0.037 A 
ATOM     15  C   UNL     1      -8.284  19.010  66.628  0.00  0.00    +0.195 A 
ATOM     16  O   UNL     1      -7.539  20.066  65.868  0.00  0.00    -0.287 OA
ATOM     17  C   UNL     1      -9.231  19.401  67.723  0.00  0.00    +0.042 A 
ATOM     18  C   UNL     1      -9.977  18.345  68.483  0.00  0.00    -0.001 A 
ATOM     19  C   UNL     1     -11.468  16.231  70.003  0.00  0.00    +0.004 C 
ATOM     20  C   UNL     1      -9.373  14.000  67.476  0.00  0.00    +0.005 C 
ATOM     21  C   UNL     1     -12.214  15.174  70.762  0.00  0.00    +0.003 C 
ENDBRANCH   1  20
BRANCH   1  22
ATOM     22  C   UNL     1      -7.820  11.924  67.305  0.00  0.00    +0.000 C 
BRANCH  22  23
ATOM     23  C   UNL     1      -7.448  11.273  68.604  0.00  0.00    +0.000 C 
BRANCH  23  24
ATOM     24  C   UNL     1      -7.528   9.781  68.744  0.00  0.00    +0.000 C 
BRANCH  24  25
ATOM     25  C   UNL     1      -8.567   9.167  69.636  0.00  0.00    +0.000 C 
BRANCH  25  26
ATOM     26  C   UNL     1      -9.444   8.066  69.116  0.00  0.00    +0.000 C 
BRANCH  26  27
ATOM     27  C   UNL     1     -10.454   8.354  68.046  0.00  0.00    +0.001 C 
BRANCH  27  28
ATOM     28  C   UNL     1     -10.076   8.218  66.601  0.00  0.00    +0.014 C 
BRANCH  28  29
ATOM     29  C   UNL     1      -9.987   9.437  65.731  0.00  0.00    +0.092 C 
BRANCH  29  30
ATOM     30  S   UNL     1      -8.950   9.512  64.650  0.00  0.00    +0.042 S 
ATOM     31  O   UNL     1      -7.543   9.075  64.929  0.00  0.00    -0.256 OA
BRANCH  30  32
ATOM     32  C   UNL     1      -9.321  10.026  63.290  0.00  0.00    +0.092 C 
BRANCH  32  33
ATOM     33  C   UNL     1      -9.825  11.429  63.131  0.00  0.00    +0.020 C 
BRANCH  33  34
ATOM     34  C   UNL     1     -11.288  11.723  63.285  0.00  0.00    +0.077 C 
BRANCH  34  35
ATOM     35  C   UNL     1     -11.751  12.698  64.327  0.00  0.00    +0.349 C 
ATOM     36  F   UNL     1     -10.405  13.358  64.308  0.00  0.00    -0.195 F 
ATOM     37  F   UNL     1     -13.098  12.037  64.346  0.00  0.00    -0.195 F 
BRANCH  35  38
ATOM     38  C   UNL     1     -12.215  13.673  65.369  0.00  0.00    +0.454 C 
ATOM     39  F   UNL     1     -12.067  14.795  64.384  0.00  0.00    -0.165 F 
ATOM     40  F   UNL     1     -12.364  12.550  66.353  0.00  0.00    -0.165 F 
ATOM     41  F   UNL     1     -12.679  14.648  66.410  0.00  0.00    -0.165 F 
ENDBRANCH  35  38
ENDBRANCH  34  35
ENDBRANCH  33  34
ENDBRANCH  32  33
ENDBRANCH  30  32
ENDBRANCH  29  30
ENDBRANCH  28  29
ENDBRANCH  27  28
ENDBRANCH  26  27
ENDBRANCH  25  26
ENDBRANCH  24  25
ENDBRANCH  23  24
ENDBRANCH  22  23
ENDBRANCH   1  22
TORSDOF 15
ENDMDL
