MODEL 1
REMARK VINA RESULT:      -3.5      0.000      0.000
REMARK  Name = 
REMARK  1 active torsions:
REMARK  status: ('A' for Active; 'I' for Inactive)
REMARK    1  A    between atoms: C_2  and  C_4
REMARK                            x       y       z     vdW  Elec       q    Type
REMARK                         _______ _______ _______ _____ _____    ______ ____
ROOT
ATOM      1  C   UNL     1     -11.912  16.036  72.003  0.00  0.00    +0.048 C 
ATOM      2  C   UNL     1     -12.389  15.105  73.321  0.00  0.00    +0.254 C 
ATOM      3  O   UNL     1     -12.952  16.339  74.071  0.00  0.00    -0.211 OA
ENDROOT
BRANCH   2   4
ATOM      4  C   UNL     1     -13.829  14.753  72.617  0.00  0.00    +0.395 C 
ATOM      5  O   UNL     1     -14.421  15.751  71.903  0.00  0.00    -0.243 OA
ATOM      6  O   UNL     1     -14.128  13.577  72.552  0.00  0.00    -0.243 OA
ENDBRANCH   2   4
TORSDOF 1
ENDMDL
MODEL 2
REMARK VINA RESULT:      -3.4      1.121      2.420
REMARK  Name = 
REMARK  1 active torsions:
REMARK  status: ('A' for Active; 'I' for Inactive)
REMARK    1  A    between atoms: C_2  and  C_4
REMARK                            x       y       z     vdW  Elec       q    Type
REMARK                         _______ _______ _______ _____ _____    ______ ____
ROOT
ATOM      1  C   UNL     1     -12.676  15.718  71.515  0.00  0.00    +0.048 C 
ATOM      2  C   UNL     1     -13.805  15.720  72.763  0.00  0.00    +0.254 C 
ATOM      3  O   UNL     1     -13.946  14.177  72.724  0.00  0.00    -0.211 OA
ENDROOT
BRANCH   2   4
ATOM      4  C   UNL     1     -12.623  15.681  73.901  0.00  0.00    +0.395 C 
ATOM      5  O   UNL     1     -12.502  16.782  74.695  0.00  0.00    -0.243 OA
ATOM      6  O   UNL     1     -12.128  14.596  74.134  0.00  0.00    -0.243 OA
ENDBRANCH   2   4
TORSDOF 1
ENDMDL
MODEL 3
REMARK VINA RESULT:      -3.4      9.013     10.214
REMARK  Name = 
REMARK  1 active torsions:
REMARK  status: ('A' for Active; 'I' for Inactive)
REMARK    1  A    between atoms: C_2  and  C_4
REMARK                            x       y       z     vdW  Elec       q    Type
REMARK                         _______ _______ _______ _____ _____    ______ ____
ROOT
ATOM      1  C   UNL     1      -5.567  19.857  70.029  0.00  0.00    +0.048 C 
ATOM      2  C   UNL     1      -5.778  20.000  71.692  0.00  0.00    +0.254 C 
ATOM      3  O   UNL     1      -5.156  18.605  71.956  0.00  0.00    -0.211 OA
ENDROOT
BRANCH   2   4
ATOM      4  C   UNL     1      -4.344  20.780  71.859  0.00  0.00    +0.395 C 
ATOM      5  O   UNL     1      -4.328  22.105  71.539  0.00  0.00    -0.243 OA
ATOM      6  O   UNL     1      -3.485  20.207  72.500  0.00  0.00    -0.243 OA
ENDBRANCH   2   4
TORSDOF 1
ENDMDL
MODEL 4
REMARK VINA RESULT:      -3.4      7.831      8.708
REMARK  Name = 
REMARK  1 active torsions:
REMARK  status: ('A' for Active; 'I' for Inactive)
REMARK    1  A    between atoms: C_2  and  C_4
REMARK                            x       y       z     vdW  Elec       q    Type
REMARK                         _______ _______ _______ _____ _____    ______ ____
ROOT
ATOM      1  C   UNL     1     -12.443  14.046  65.919  0.00  0.00    +0.048 C 
ATOM      2  C   UNL     1     -11.399  14.041  64.600  0.00  0.00    +0.254 C 
ATOM      3  O   UNL     1     -12.572  14.083  63.589  0.00  0.00    -0.211 OA
ENDROOT
BRANCH   2   4
ATOM      4  C   UNL     1     -11.250  15.675  64.646  0.00  0.00    +0.395 C 
ATOM      5  O   UNL     1     -10.144  16.171  65.270  0.00  0.00    -0.243 OA
ATOM      6  O   UNL     1     -11.975  16.307  63.903  0.00  0.00    -0.243 OA
ENDBRANCH   2   4
TORSDOF 1
ENDMDL
MODEL 5
REMARK VINA RESULT:      -3.4      7.525      8.196
REMARK  Name = 
REMARK  1 active torsions:
REMARK  status: ('A' for Active; 'I' for Inactive)
REMARK    1  A    between atoms: C_2  and  C_4
REMARK                            x       y       z     vdW  Elec       q    Type
REMARK                         _______ _______ _______ _____ _____    ______ ____
ROOT
ATOM      1  C   UNL     1     -10.526  14.123  64.909  0.00  0.00    +0.048 C 
ATOM      2  C   UNL     1     -12.126  14.355  65.375  0.00  0.00    +0.254 C 
ATOM      3  O   UNL     1     -12.586  14.589  63.914  0.00  0.00    -0.211 OA
ENDROOT
BRANCH   2   4
ATOM      4  C   UNL     1     -12.431  12.743  65.318  0.00  0.00    +0.395 C 
ATOM      5  O   UNL     1     -12.026  12.006  66.390  0.00  0.00    -0.243 OA
ATOM      6  O   UNL     1     -13.220  12.369  64.472  0.00  0.00    -0.243 OA
ENDBRANCH   2   4
TORSDOF 1
ENDMDL
MODEL 6
REMARK VINA RESULT:      -3.3      8.224      8.904
REMARK  Name = 
REMARK  1 active torsions:
REMARK  status: ('A' for Active; 'I' for Inactive)
REMARK    1  A    between atoms: C_2  and  C_4
REMARK                            x       y       z     vdW  Elec       q    Type
REMARK                         _______ _______ _______ _____ _____    ______ ____
ROOT
ATOM      1  C   UNL     1     -10.900  11.488  64.211  0.00  0.00    +0.048 C 
ATOM      2  C   UNL     1     -11.804  12.791  63.648  0.00  0.00    +0.254 C 
ATOM      3  O   UNL     1     -12.995  11.879  63.258  0.00  0.00    -0.211 OA
ENDROOT
BRANCH   2   4
ATOM      4  C   UNL     1     -12.398  13.094  65.147  0.00  0.00    +0.395 C 
ATOM      5  O   UNL     1     -13.276  14.130  65.260  0.00  0.00    -0.243 OA
ATOM      6  O   UNL     1     -12.233  12.226  65.982  0.00  0.00    -0.243 OA
ENDBRANCH   2   4
TORSDOF 1
ENDMDL
MODEL 7
REMARK VINA RESULT:      -3.2      1.579      1.969
REMARK  Name = 
REMARK  1 active torsions:
REMARK  status: ('A' for Active; 'I' for Inactive)
REMARK    1  A    between atoms: C_2  and  C_4
REMARK                            x       y       z     vdW  Elec       q    Type
REMARK                         _______ _______ _______ _____ _____    ______ ____
ROOT
ATOM      1  C   UNL     1     -12.442  15.402  74.263  0.00  0.00    +0.048 C 
ATOM      2  C   UNL     1     -13.336  15.789  72.891  0.00  0.00    +0.254 C 
ATOM      3  O   UNL     1     -12.081  16.297  72.137  0.00  0.00    -0.211 OA
ENDROOT
BRANCH   2   4
ATOM      4  C   UNL     1     -13.192  14.263  72.304  0.00  0.00    +0.395 C 
ATOM      5  O   UNL     1     -14.208  13.400  72.589  0.00  0.00    -0.243 OA
ATOM      6  O   UNL     1     -12.348  14.087  71.449  0.00  0.00    -0.243 OA
ENDBRANCH   2   4
TORSDOF 1
ENDMDL
MODEL 8
REMARK VINA RESULT:      -3.2      9.178     10.484
REMARK  Name = 
REMARK  1 active torsions:
REMARK  status: ('A' for Active; 'I' for Inactive)
REMARK    1  A    between atoms: C_2  and  C_4
REMARK                            x       y       z     vdW  Elec       q    Type
REMARK                         _______ _______ _______ _____ _____    ______ ____
ROOT
ATOM      1  C   UNL     1      -4.079  19.279  70.051  0.00  0.00    +0.048 C 
ATOM      2  C   UNL     1      -5.356  19.840  70.991  0.00  0.00    +0.254 C 
ATOM      3  O   UNL     1      -5.204  18.680  72.007  0.00  0.00    -0.211 OA
ENDROOT
BRANCH   2   4
ATOM      4  C   UNL     1      -4.364  20.840  71.834  0.00  0.00    +0.395 C 
ATOM      5  O   UNL     1      -3.379  20.248  72.567  0.00  0.00    -0.243 OA
ATOM      6  O   UNL     1      -4.401  22.018  71.538  0.00  0.00    -0.243 OA
ENDBRANCH   2   4
TORSDOF 1
ENDMDL
MODEL 9
REMARK VINA RESULT:      -3.2      8.049      8.800
REMARK  Name = 
REMARK  1 active torsions:
REMARK  status: ('A' for Active; 'I' for Inactive)
REMARK    1  A    between atoms: C_2  and  C_4
REMARK                            x       y       z     vdW  Elec       q    Type
REMARK                         _______ _______ _______ _____ _____    ______ ____
ROOT
ATOM      1  C   UNL     1     -11.685  12.207  65.484  0.00  0.00    +0.048 C 
ATOM      2  C   UNL     1     -11.615  12.992  63.998  0.00  0.00    +0.254 C 
ATOM      3  O   UNL     1     -12.907  12.299  63.497  0.00  0.00    -0.211 OA
ENDROOT
BRANCH   2   4
ATOM      4  C   UNL     1     -12.424  14.293  64.588  0.00  0.00    +0.395 C 
ATOM      5  O   UNL     1     -12.246  15.474  63.931  0.00  0.00    -0.243 OA
ATOM      6  O   UNL     1     -13.316  14.063  65.381  0.00  0.00    -0.243 OA
ENDBRANCH   2   4
TORSDOF 1
ENDMDL
