MODEL 1
REMARK VINA RESULT:      -7.4      0.000      0.000
REMARK  Name = 
REMARK  6 active torsions:
REMARK  status: ('A' for Active; 'I' for Inactive)
REMARK    1  A    between atoms: C_5  and  C_6
REMARK    2  A    between atoms: C_6  and  C_14
REMARK    3  A    between atoms: C_7  and  C_8
REMARK    4  A    between atoms: C_8  and  N_9
REMARK    5  A    between atoms: C_18  and  C_19
REMARK    6  A    between atoms: C_20  and  C_21
REMARK                            x       y       z     vdW  Elec       q    Type
REMARK                         _______ _______ _______ _____ _____    ______ ____
ROOT
ATOM      1  C   UNL     1     -10.329  14.797  67.586  0.00  0.00    +0.015 C 
ATOM      2  C   UNL     1      -9.284  15.578  67.750  0.00  0.00    -0.007 C 
ENDROOT
BRANCH   1   7
ATOM      3  C   UNL     1     -12.459  11.866  63.304  0.00  0.00    +0.031 C 
ATOM      4  C   UNL     1     -11.750  12.746  64.283  0.00  0.00    -0.022 A 
ATOM      5  C   UNL     1     -12.201  14.044  64.479  0.00  0.00    -0.004 A 
ATOM      6  C   UNL     1     -11.735  14.710  65.605  0.00  0.00    -0.000 A 
ATOM      7  C   UNL     1     -10.590  14.270  66.257  0.00  0.00    +0.001 A 
ATOM      8  C   UNL     1      -9.940  13.117  65.845  0.00  0.00    -0.000 A 
ATOM      9  C   UNL     1     -10.508  12.424  64.803  0.00  0.00    -0.004 A 
ENDBRANCH   1   7
BRANCH   1  10
ATOM     10  C   UNL     1     -10.994  14.225  68.752  0.00  0.00    +0.081 A 
ATOM     11  N   UNL     1     -11.666  15.093  69.546  0.00  0.00    -0.245 NA
ATOM     12  C   UNL     1     -12.366  14.667  70.607  0.00  0.00    +0.082 A 
ATOM     13  C   UNL     1     -12.388  13.293  70.812  0.00  0.00    +0.019 A 
ATOM     14  C   UNL     1     -11.947  12.387  69.875  0.00  0.00    +0.003 A 
ATOM     15  C   UNL     1     -11.211  12.854  68.821  0.00  0.00    +0.019 A 
BRANCH  12  16
ATOM     16  C   UNL     1     -13.512  15.416  71.140  0.00  0.00    +0.026 C 
ATOM     17  C   UNL     1     -13.735  15.240  72.444  0.00  0.00    +0.088 C 
BRANCH  17  18
ATOM     18  C   UNL     1     -12.584  15.552  73.300  0.00  0.00    +0.388 C 
ATOM     19  O   UNL     1     -12.192  14.760  74.357  0.00  0.00    -0.241 OA
ATOM     20  O   UNL     1     -12.079  16.700  73.147  0.00  0.00    -0.241 OA
ENDBRANCH  17  18
ENDBRANCH  12  16
ENDBRANCH   1  10
BRANCH   2  21
ATOM     21  C   UNL     1      -8.760  16.423  66.645  0.00  0.00    +0.099 C 
BRANCH  21  22
ATOM     22  N   UNL     1      -8.809  17.842  66.974  0.00  0.00    -0.269 NA
ATOM     23  C   UNL     1     -10.117  18.305  66.543  0.00  0.00    +0.072 C 
ATOM     24  C   UNL     1     -10.481  19.478  67.404  0.00  0.00    +0.019 C 
ATOM     25  C   UNL     1      -9.708  19.222  68.673  0.00  0.00    +0.019 C 
ATOM     26  C   UNL     1      -8.923  17.946  68.410  0.00  0.00    +0.072 C 
ENDBRANCH  21  22
ENDBRANCH   2  21
TORSDOF 6
ENDMDL
MODEL 2
REMARK VINA RESULT:      -7.3      2.371      5.404
REMARK  Name = 
REMARK  6 active torsions:
REMARK  status: ('A' for Active; 'I' for Inactive)
REMARK    1  A    between atoms: C_5  and  C_6
REMARK    2  A    between atoms: C_6  and  C_14
REMARK    3  A    between atoms: C_7  and  C_8
REMARK    4  A    between atoms: C_8  and  N_9
REMARK    5  A    between atoms: C_18  and  C_19
REMARK    6  A    between atoms: C_20  and  C_21
REMARK                            x       y       z     vdW  Elec       q    Type
REMARK                         _______ _______ _______ _____ _____    ______ ____
ROOT
ATOM      1  C   UNL     1     -10.581  14.434  68.212  0.00  0.00    +0.015 C 
ATOM      2  C   UNL     1     -11.095  14.632  69.405  0.00  0.00    -0.007 C 
ENDROOT
BRANCH   1   7
ATOM      3  C   UNL     1     -12.319  11.922  63.507  0.00  0.00    +0.031 C 
ATOM      4  C   UNL     1     -12.049  12.498  64.859  0.00  0.00    -0.022 A 
ATOM      5  C   UNL     1     -11.372  11.734  65.800  0.00  0.00    -0.004 A 
ATOM      6  C   UNL     1     -10.864  12.402  66.907  0.00  0.00    -0.000 A 
ATOM      7  C   UNL     1     -11.350  13.656  67.255  0.00  0.00    +0.001 A 
ATOM      8  C   UNL     1     -12.292  14.294  66.464  0.00  0.00    -0.000 A 
ATOM      9  C   UNL     1     -12.675  13.648  65.312  0.00  0.00    -0.004 A 
ENDBRANCH   1   7
BRANCH   1  10
ATOM     10  C   UNL     1      -9.448  15.237  67.770  0.00  0.00    +0.081 A 
ATOM     11  N   UNL     1      -9.595  16.582  67.855  0.00  0.00    -0.245 NA
ATOM     12  C   UNL     1      -8.593  17.414  67.536  0.00  0.00    +0.082 A 
ATOM     13  C   UNL     1      -7.399  16.814  67.155  0.00  0.00    +0.019 A 
ATOM     14  C   UNL     1      -7.147  15.471  67.322  0.00  0.00    +0.003 A 
ATOM     15  C   UNL     1      -8.198  14.648  67.619  0.00  0.00    +0.019 A 
BRANCH  12  16
ATOM     16  C   UNL     1      -8.480  18.761  68.112  0.00  0.00    +0.026 C 
ATOM     17  C   UNL     1      -8.870  19.747  67.303  0.00  0.00    +0.088 C 
BRANCH  17  18
ATOM     18  C   UNL     1     -10.243  19.609  66.802  0.00  0.00    +0.388 C 
ATOM     19  O   UNL     1     -10.572  19.692  65.466  0.00  0.00    -0.241 OA
ATOM     20  O   UNL     1     -11.153  19.608  67.679  0.00  0.00    -0.241 OA
ENDBRANCH  17  18
ENDBRANCH  12  16
ENDBRANCH   1  10
BRANCH   2  21
ATOM     21  C   UNL     1     -12.032  13.659  70.025  0.00  0.00    +0.099 C 
BRANCH  21  22
ATOM     22  N   UNL     1     -12.372  14.024  71.394  0.00  0.00    -0.269 NA
ATOM     23  C   UNL     1     -11.568  15.193  71.705  0.00  0.00    +0.072 C 
ATOM     24  C   UNL     1     -12.307  15.979  72.747  0.00  0.00    +0.019 C 
ATOM     25  C   UNL     1     -13.746  15.600  72.503  0.00  0.00    +0.019 C 
ATOM     26  C   UNL     1     -13.703  14.586  71.369  0.00  0.00    +0.072 C 
ENDBRANCH  21  22
ENDBRANCH   2  21
TORSDOF 6
ENDMDL
MODEL 3
REMARK VINA RESULT:      -7.2      4.144      7.423
REMARK  Name = 
REMARK  6 active torsions:
REMARK  status: ('A' for Active; 'I' for Inactive)
REMARK    1  A    between atoms: C_5  and  C_6
REMARK    2  A    between atoms: C_6  and  C_14
REMARK    3  A    between atoms: C_7  and  C_8
REMARK    4  A    between atoms: C_8  and  N_9
REMARK    5  A    between atoms: C_18  and  C_19
REMARK    6  A    between atoms: C_20  and  C_21
REMARK                            x       y       z     vdW  Elec       q    Type
REMARK                         _______ _______ _______ _____ _____    ______ ____
ROOT
ATOM      1  C   UNL     1     -12.013  10.628  70.189  0.00  0.00    +0.015 C 
ATOM      2  C   UNL     1     -12.775  11.648  70.514  0.00  0.00    -0.007 C 
ENDROOT
BRANCH   1   7
ATOM      3  C   UNL     1     -11.146   5.529  72.361  0.00  0.00    +0.031 C 
ATOM      4  C   UNL     1     -11.460   6.944  71.996  0.00  0.00    -0.022 A 
ATOM      5  C   UNL     1     -10.524   7.936  72.253  0.00  0.00    -0.004 A 
ATOM      6  C   UNL     1     -10.709   9.157  71.620  0.00  0.00    -0.000 A 
ATOM      7  C   UNL     1     -11.952   9.499  71.102  0.00  0.00    +0.001 A 
ATOM      8  C   UNL     1     -13.005   8.598  71.138  0.00  0.00    -0.000 A 
ATOM      9  C   UNL     1     -12.740   7.356  71.665  0.00  0.00    -0.004 A 
ENDBRANCH   1   7
BRANCH   1  10
ATOM     10  C   UNL     1     -11.519  10.500  68.823  0.00  0.00    +0.081 A 
ATOM     11  N   UNL     1     -11.582  11.615  68.055  0.00  0.00    -0.245 NA
ATOM     12  C   UNL     1     -11.097  11.628  66.805  0.00  0.00    +0.082 A 
ATOM     13  C   UNL     1     -10.500  10.451  66.369  0.00  0.00    +0.019 A 
ATOM     14  C   UNL     1     -10.186   9.411  67.215  0.00  0.00    +0.003 A 
ATOM     15  C   UNL     1     -10.722   9.417  68.473  0.00  0.00    +0.019 A 
BRANCH  12  16
ATOM     16  C   UNL     1     -10.631  12.862  66.158  0.00  0.00    +0.026 C 
ATOM     17  C   UNL     1     -11.070  13.037  64.910  0.00  0.00    +0.088 C 
BRANCH  17  18
ATOM     18  C   UNL     1     -12.531  13.007  64.774  0.00  0.00    +0.388 C 
ATOM     19  O   UNL     1     -13.196  12.119  63.956  0.00  0.00    -0.241 OA
ATOM     20  O   UNL     1     -13.153  13.976  65.296  0.00  0.00    -0.241 OA
ENDBRANCH  17  18
ENDBRANCH  12  16
ENDBRANCH   1  10
BRANCH   2  21
ATOM     21  C   UNL     1     -13.051  11.996  71.932  0.00  0.00    +0.099 C 
BRANCH  21  22
ATOM     22  N   UNL     1     -12.970  13.432  72.168  0.00  0.00    -0.269 NA
ATOM     23  C   UNL     1     -12.433  14.005  70.946  0.00  0.00    +0.072 C 
ATOM     24  C   UNL     1     -12.933  15.417  70.857  0.00  0.00    +0.019 C 
ATOM     25  C   UNL     1     -14.220  15.372  71.643  0.00  0.00    +0.019 C 
ATOM     26  C   UNL     1     -14.320  13.944  72.160  0.00  0.00    +0.072 C 
ENDBRANCH  21  22
ENDBRANCH   2  21
TORSDOF 6
ENDMDL
MODEL 4
REMARK VINA RESULT:      -7.1      3.354      6.614
REMARK  Name = 
REMARK  6 active torsions:
REMARK  status: ('A' for Active; 'I' for Inactive)
REMARK    1  A    between atoms: C_5  and  C_6
REMARK    2  A    between atoms: C_6  and  C_14
REMARK    3  A    between atoms: C_7  and  C_8
REMARK    4  A    between atoms: C_8  and  N_9
REMARK    5  A    between atoms: C_18  and  C_19
REMARK    6  A    between atoms: C_20  and  C_21
REMARK                            x       y       z     vdW  Elec       q    Type
REMARK                         _______ _______ _______ _____ _____    ______ ____
ROOT
ATOM      1  C   UNL     1     -10.713  14.524  68.444  0.00  0.00    +0.015 C 
ATOM      2  C   UNL     1     -11.446  14.634  69.530  0.00  0.00    -0.007 C 
ENDROOT
BRANCH   1   7
ATOM      3  C   UNL     1      -7.807  19.318  68.615  0.00  0.00    +0.031 C 
ATOM      4  C   UNL     1      -8.458  17.995  68.374  0.00  0.00    -0.022 A 
ATOM      5  C   UNL     1      -7.854  16.843  68.858  0.00  0.00    -0.004 A 
ATOM      6  C   UNL     1      -8.631  15.693  68.899  0.00  0.00    -0.000 A 
ATOM      7  C   UNL     1      -9.785  15.597  68.132  0.00  0.00    +0.001 A 
ATOM      8  C   UNL     1     -10.222  16.673  67.375  0.00  0.00    -0.000 A 
ATOM      9  C   UNL     1      -9.487  17.832  67.462  0.00  0.00    -0.004 A 
ENDBRANCH   1   7
BRANCH   1  10
ATOM     10  C   UNL     1     -10.604  13.234  67.772  0.00  0.00    +0.081 A 
ATOM     11  N   UNL     1     -10.769  13.241  66.427  0.00  0.00    -0.245 NA
ATOM     12  C   UNL     1     -10.626  12.123  65.702  0.00  0.00    +0.082 A 
ATOM     13  C   UNL     1     -10.264  10.981  66.406  0.00  0.00    +0.019 A 
ATOM     14  C   UNL     1      -9.831  11.010  67.712  0.00  0.00    +0.003 A 
ATOM     15  C   UNL     1     -10.019  12.159  68.430  0.00  0.00    +0.019 A 
BRANCH  12  16
ATOM     16  C   UNL     1     -10.241  12.153  64.284  0.00  0.00    +0.026 C 
ATOM     17  C   UNL     1     -11.204  11.784  63.437  0.00  0.00    +0.088 C 
BRANCH  17  18
ATOM     18  C   UNL     1     -12.445  12.558  63.561  0.00  0.00    +0.388 C 
ATOM     19  O   UNL     1     -12.512  13.918  63.353  0.00  0.00    -0.241 OA
ATOM     20  O   UNL     1     -13.427  11.946  64.069  0.00  0.00    -0.241 OA
ENDBRANCH  17  18
ENDBRANCH  12  16
ENDBRANCH   1  10
BRANCH   2  21
ATOM     21  C   UNL     1     -11.840  15.959  70.076  0.00  0.00    +0.099 C 
BRANCH  21  22
ATOM     22  N   UNL     1     -12.792  15.836  71.173  0.00  0.00    -0.269 NA
ATOM     23  C   UNL     1     -13.165  14.433  71.220  0.00  0.00    +0.072 C 
ATOM     24  C   UNL     1     -13.560  14.123  72.633  0.00  0.00    +0.019 C 
ATOM     25  C   UNL     1     -12.785  15.138  73.434  0.00  0.00    +0.019 C 
ATOM     26  C   UNL     1     -12.048  15.980  72.402  0.00  0.00    +0.072 C 
ENDBRANCH  21  22
ENDBRANCH   2  21
TORSDOF 6
ENDMDL
MODEL 5
REMARK VINA RESULT:      -7.0      3.033      6.661
REMARK  Name = 
REMARK  6 active torsions:
REMARK  status: ('A' for Active; 'I' for Inactive)
REMARK    1  A    between atoms: C_5  and  C_6
REMARK    2  A    between atoms: C_6  and  C_14
REMARK    3  A    between atoms: C_7  and  C_8
REMARK    4  A    between atoms: C_8  and  N_9
REMARK    5  A    between atoms: C_18  and  C_19
REMARK    6  A    between atoms: C_20  and  C_21
REMARK                            x       y       z     vdW  Elec       q    Type
REMARK                         _______ _______ _______ _____ _____    ______ ____
ROOT
ATOM      1  C   UNL     1     -10.703  14.778  67.919  0.00  0.00    +0.015 C 
ATOM      2  C   UNL     1     -10.904  14.140  66.788  0.00  0.00    -0.007 C 
ENDROOT
BRANCH   1   7
ATOM      3  C   UNL     1     -13.088  14.391  72.982  0.00  0.00    +0.031 C 
ATOM      4  C   UNL     1     -12.667  14.444  71.549  0.00  0.00    -0.022 A 
ATOM      5  C   UNL     1     -12.818  15.628  70.840  0.00  0.00    -0.004 A 
ATOM      6  C   UNL     1     -12.133  15.735  69.637  0.00  0.00    -0.000 A 
ATOM      7  C   UNL     1     -11.670  14.597  68.989  0.00  0.00    +0.001 A 
ATOM      8  C   UNL     1     -11.814  13.345  69.568  0.00  0.00    -0.000 A 
ATOM      9  C   UNL     1     -12.389  13.302  70.816  0.00  0.00    -0.004 A 
ENDBRANCH   1   7
BRANCH   1  10
ATOM     10  C   UNL     1      -9.399  15.370  68.195  0.00  0.00    +0.081 A 
ATOM     11  N   UNL     1      -9.257  16.681  67.881  0.00  0.00    -0.245 NA
ATOM     12  C   UNL     1      -8.123  17.342  68.150  0.00  0.00    +0.082 A 
ATOM     13  C   UNL     1      -7.131  16.615  68.799  0.00  0.00    +0.019 A 
ATOM     14  C   UNL     1      -7.355  15.380  69.363  0.00  0.00    +0.003 A 
ATOM     15  C   UNL     1      -8.510  14.722  69.042  0.00  0.00    +0.019 A 
BRANCH  12  16
ATOM     16  C   UNL     1      -8.095  18.796  68.360  0.00  0.00    +0.026 C 
ATOM     17  C   UNL     1      -7.365  19.474  67.472  0.00  0.00    +0.088 C 
BRANCH  17  18
ATOM     18  C   UNL     1      -7.754  19.249  66.075  0.00  0.00    +0.388 C 
ATOM     19  O   UNL     1      -6.874  18.826  65.103  0.00  0.00    -0.241 OA
ATOM     20  O   UNL     1      -8.906  19.658  65.752  0.00  0.00    -0.241 OA
ENDBRANCH  17  18
ENDBRANCH  12  16
ENDBRANCH   1  10
BRANCH   2  21
ATOM     21  C   UNL     1     -12.271  13.788  66.321  0.00  0.00    +0.099 C 
BRANCH  21  22
ATOM     22  N   UNL     1     -12.284  12.549  65.554  0.00  0.00    -0.269 NA
ATOM     23  C   UNL     1     -11.995  12.929  64.182  0.00  0.00    +0.072 C 
ATOM     24  C   UNL     1     -11.352  11.747  63.518  0.00  0.00    +0.019 C 
ATOM     25  C   UNL     1     -10.714  11.013  64.671  0.00  0.00    +0.019 C 
ATOM     26  C   UNL     1     -11.092  11.814  65.909  0.00  0.00    +0.072 C 
ENDBRANCH  21  22
ENDBRANCH   2  21
TORSDOF 6
ENDMDL
MODEL 6
REMARK VINA RESULT:      -6.8      1.732      4.762
REMARK  Name = 
REMARK  6 active torsions:
REMARK  status: ('A' for Active; 'I' for Inactive)
REMARK    1  A    between atoms: C_5  and  C_6
REMARK    2  A    between atoms: C_6  and  C_14
REMARK    3  A    between atoms: C_7  and  C_8
REMARK    4  A    between atoms: C_8  and  N_9
REMARK    5  A    between atoms: C_18  and  C_19
REMARK    6  A    between atoms: C_20  and  C_21
REMARK                            x       y       z     vdW  Elec       q    Type
REMARK                         _______ _______ _______ _____ _____    ______ ____
ROOT
ATOM      1  C   UNL     1     -10.939  12.713  68.626  0.00  0.00    +0.015 C 
ATOM      2  C   UNL     1     -11.023  11.711  67.780  0.00  0.00    -0.007 C 
ENDROOT
BRANCH   1   7
ATOM      3  C   UNL     1      -9.218  18.042  68.302  0.00  0.00    +0.031 C 
ATOM      4  C   UNL     1      -9.580  16.598  68.175  0.00  0.00    -0.022 A 
ATOM      5  C   UNL     1      -8.657  15.631  68.552  0.00  0.00    -0.004 A 
ATOM      6  C   UNL     1      -9.134  14.339  68.724  0.00  0.00    -0.000 A 
ATOM      7  C   UNL     1     -10.344  13.955  68.161  0.00  0.00    +0.001 A 
ATOM      8  C   UNL     1     -11.134  14.874  67.487  0.00  0.00    -0.000 A 
ATOM      9  C   UNL     1     -10.679  16.171  67.448  0.00  0.00    -0.004 A 
ENDBRANCH   1   7
BRANCH   1  10
ATOM     10  C   UNL     1     -11.710  12.682  69.864  0.00  0.00    +0.081 A 
ATOM     11  N   UNL     1     -12.202  13.868  70.295  0.00  0.00    -0.245 NA
ATOM     12  C   UNL     1     -12.978  13.945  71.386  0.00  0.00    +0.082 A 
ATOM     13  C   UNL     1     -13.270  12.740  72.013  0.00  0.00    +0.019 A 
ATOM     14  C   UNL     1     -13.010  11.514  71.443  0.00  0.00    +0.003 A 
ATOM     15  C   UNL     1     -12.192  11.472  70.349  0.00  0.00    +0.019 A 
BRANCH  12  16
ATOM     16  C   UNL     1     -13.958  15.022  71.576  0.00  0.00    +0.026 C 
ATOM     17  C   UNL     1     -14.014  15.514  72.815  0.00  0.00    +0.088 C 
BRANCH  17  18
ATOM     18  C   UNL     1     -12.729  16.008  73.326  0.00  0.00    +0.388 C 
ATOM     19  O   UNL     1     -11.820  16.692  72.549  0.00  0.00    -0.241 OA
ATOM     20  O   UNL     1     -12.400  15.600  74.476  0.00  0.00    -0.241 OA
ENDBRANCH  17  18
ENDBRANCH  12  16
ENDBRANCH   1  10
BRANCH   2  21
ATOM     21  C   UNL     1     -10.049  11.542  66.670  0.00  0.00    +0.099 C 
BRANCH  21  22
ATOM     22  N   UNL     1     -10.692  11.092  65.443  0.00  0.00    -0.269 NA
ATOM     23  C   UNL     1     -11.571  12.175  65.034  0.00  0.00    +0.072 C 
ATOM     24  C   UNL     1     -11.721  12.089  63.544  0.00  0.00    +0.019 C 
ATOM     25  C   UNL     1     -10.446  11.411  63.111  0.00  0.00    +0.019 C 
ATOM     26  C   UNL     1      -9.693  11.119  64.401  0.00  0.00    +0.072 C 
ENDBRANCH  21  22
ENDBRANCH   2  21
TORSDOF 6
ENDMDL
MODEL 7
REMARK VINA RESULT:      -6.8      4.129      8.274
REMARK  Name = 
REMARK  6 active torsions:
REMARK  status: ('A' for Active; 'I' for Inactive)
REMARK    1  A    between atoms: C_5  and  C_6
REMARK    2  A    between atoms: C_6  and  C_14
REMARK    3  A    between atoms: C_7  and  C_8
REMARK    4  A    between atoms: C_8  and  N_9
REMARK    5  A    between atoms: C_18  and  C_19
REMARK    6  A    between atoms: C_20  and  C_21
REMARK                            x       y       z     vdW  Elec       q    Type
REMARK                         _______ _______ _______ _____ _____    ______ ____
ROOT
ATOM      1  C   UNL     1     -11.975  12.315  69.868  0.00  0.00    +0.015 C 
ATOM      2  C   UNL     1     -11.897  11.110  70.387  0.00  0.00    -0.007 C 
ENDROOT
BRANCH   1   7
ATOM      3  C   UNL     1     -12.503  15.838  74.201  0.00  0.00    +0.031 C 
ATOM      4  C   UNL     1     -12.530  15.030  72.945  0.00  0.00    -0.022 A 
ATOM      5  C   UNL     1     -11.756  15.430  71.863  0.00  0.00    -0.004 A 
ATOM      6  C   UNL     1     -11.558  14.499  70.852  0.00  0.00    -0.000 A 
ATOM      7  C   UNL     1     -12.405  13.405  70.728  0.00  0.00    +0.001 A 
ATOM      8  C   UNL     1     -13.410  13.180  71.656  0.00  0.00    -0.000 A 
ATOM      9  C   UNL     1     -13.490  14.061  72.709  0.00  0.00    -0.004 A 
ENDBRANCH   1   7
BRANCH   1  10
ATOM     10  C   UNL     1     -11.340  12.593  68.585  0.00  0.00    +0.081 A 
ATOM     11  N   UNL     1     -12.172  12.852  67.547  0.00  0.00    -0.245 NA
ATOM     12  C   UNL     1     -11.696  13.184  66.339  0.00  0.00    +0.082 A 
ATOM     13  C   UNL     1     -10.314  13.281  66.233  0.00  0.00    +0.019 A 
ATOM     14  C   UNL     1      -9.476  13.290  67.325  0.00  0.00    +0.003 A 
ATOM     15  C   UNL     1      -9.990  12.918  68.536  0.00  0.00    +0.019 A 
BRANCH  12  16
ATOM     16  C   UNL     1     -12.472  13.988  65.385  0.00  0.00    +0.026 C 
ATOM     17  C   UNL     1     -12.062  13.900  64.118  0.00  0.00    +0.088 C 
BRANCH  17  18
ATOM     18  C   UNL     1     -12.022  12.530  63.591  0.00  0.00    +0.388 C 
ATOM     19  O   UNL     1     -10.872  11.935  63.120  0.00  0.00    -0.241 OA
ATOM     20  O   UNL     1     -13.144  11.980  63.402  0.00  0.00    -0.241 OA
ENDBRANCH  17  18
ENDBRANCH  12  16
ENDBRANCH   1  10
BRANCH   2  21
ATOM     21  C   UNL     1     -12.764  10.688  71.517  0.00  0.00    +0.099 C 
BRANCH  21  22
ATOM     22  N   UNL     1     -12.482   9.323  71.943  0.00  0.00    -0.269 NA
ATOM     23  C   UNL     1     -13.714   8.580  71.739  0.00  0.00    +0.072 C 
ATOM     24  C   UNL     1     -13.338   7.147  71.508  0.00  0.00    +0.019 C 
ATOM     25  C   UNL     1     -11.943   7.247  70.942  0.00  0.00    +0.019 C 
ATOM     26  C   UNL     1     -11.619   8.734  70.945  0.00  0.00    +0.072 C 
ENDBRANCH  21  22
ENDBRANCH   2  21
TORSDOF 6
ENDMDL
MODEL 8
REMARK VINA RESULT:      -6.8      2.586      5.883
REMARK  Name = 
REMARK  6 active torsions:
REMARK  status: ('A' for Active; 'I' for Inactive)
REMARK    1  A    between atoms: C_5  and  C_6
REMARK    2  A    between atoms: C_6  and  C_14
REMARK    3  A    between atoms: C_7  and  C_8
REMARK    4  A    between atoms: C_8  and  N_9
REMARK    5  A    between atoms: C_18  and  C_19
REMARK    6  A    between atoms: C_20  and  C_21
REMARK                            x       y       z     vdW  Elec       q    Type
REMARK                         _______ _______ _______ _____ _____    ______ ____
ROOT
ATOM      1  C   UNL     1     -10.377  16.483  68.118  0.00  0.00    +0.015 C 
ATOM      2  C   UNL     1     -11.373  16.241  68.940  0.00  0.00    -0.007 C 
ENDROOT
BRANCH   1   7
ATOM      3  C   UNL     1     -10.282  11.743  65.118  0.00  0.00    +0.031 C 
ATOM      4  C   UNL     1     -10.121  13.069  65.788  0.00  0.00    -0.022 A 
ATOM      5  C   UNL     1     -10.715  14.191  65.226  0.00  0.00    -0.004 A 
ATOM      6  C   UNL     1     -10.816  15.320  66.028  0.00  0.00    -0.000 A 
ATOM      7  C   UNL     1     -10.017  15.454  67.156  0.00  0.00    +0.001 A 
ATOM      8  C   UNL     1      -9.163  14.433  67.544  0.00  0.00    -0.000 A 
ATOM      9  C   UNL     1      -9.187  13.285  66.788  0.00  0.00    -0.004 A 
ENDBRANCH   1   7
BRANCH   1  10
ATOM     10  C   UNL     1      -9.881  17.845  67.962  0.00  0.00    +0.081 A 
ATOM     11  N   UNL     1      -8.563  18.038  68.215  0.00  0.00    -0.245 NA
ATOM     12  C   UNL     1      -7.989  19.236  68.041  0.00  0.00    +0.082 A 
ATOM     13  C   UNL     1      -8.813  20.244  67.554  0.00  0.00    +0.019 A 
ATOM     14  C   UNL     1     -10.067  20.004  67.040  0.00  0.00    +0.003 A 
ATOM     15  C   UNL     1     -10.633  18.780  67.261  0.00  0.00    +0.019 A 
BRANCH  12  16
ATOM     16  C   UNL     1      -6.555  19.383  67.753  0.00  0.00    +0.026 C 
ATOM     17  C   UNL     1      -5.882  20.122  68.636  0.00  0.00    +0.088 C 
BRANCH  17  18
ATOM     18  C   UNL     1      -5.995  19.657  70.023  0.00  0.00    +0.388 C 
ATOM     19  O   UNL     1      -6.410  20.464  71.060  0.00  0.00    -0.241 OA
ATOM     20  O   UNL     1      -5.499  18.520  70.265  0.00  0.00    -0.241 OA
ENDBRANCH  17  18
ENDBRANCH  12  16
ENDBRANCH   1  10
BRANCH   2  21
ATOM     21  C   UNL     1     -11.716  14.860  69.369  0.00  0.00    +0.099 C 
BRANCH  21  22
ATOM     22  N   UNL     1     -11.648  14.705  70.816  0.00  0.00    -0.269 NA
ATOM     23  C   UNL     1     -11.986  16.004  71.371  0.00  0.00    +0.072 C 
ATOM     24  C   UNL     1     -12.575  15.770  72.730  0.00  0.00    +0.019 C 
ATOM     25  C   UNL     1     -13.146  14.378  72.619  0.00  0.00    +0.019 C 
ATOM     26  C   UNL     1     -12.789  13.913  71.215  0.00  0.00    +0.072 C 
ENDBRANCH  21  22
ENDBRANCH   2  21
TORSDOF 6
ENDMDL
MODEL 9
REMARK VINA RESULT:      -6.8      2.699      4.361
REMARK  Name = 
REMARK  6 active torsions:
REMARK  status: ('A' for Active; 'I' for Inactive)
REMARK    1  A    between atoms: C_5  and  C_6
REMARK    2  A    between atoms: C_6  and  C_14
REMARK    3  A    between atoms: C_7  and  C_8
REMARK    4  A    between atoms: C_8  and  N_9
REMARK    5  A    between atoms: C_18  and  C_19
REMARK    6  A    between atoms: C_20  and  C_21
REMARK                            x       y       z     vdW  Elec       q    Type
REMARK                         _______ _______ _______ _____ _____    ______ ____
ROOT
ATOM      1  C   UNL     1     -10.863  11.850  68.921  0.00  0.00    +0.015 C 
ATOM      2  C   UNL     1     -10.322  12.873  68.299  0.00  0.00    -0.007 C 
ENDROOT
BRANCH   1   7
ATOM      3  C   UNL     1      -7.994   7.581  66.682  0.00  0.00    +0.031 C 
ATOM      4  C   UNL     1      -8.860   8.554  67.414  0.00  0.00    -0.022 A 
ATOM      5  C   UNL     1      -8.420   9.080  68.622  0.00  0.00    -0.004 A 
ATOM      6  C   UNL     1      -9.085  10.201  69.101  0.00  0.00    -0.000 A 
ATOM      7  C   UNL     1     -10.352  10.521  68.629  0.00  0.00    +0.001 A 
ATOM      8  C   UNL     1     -10.939   9.776  67.618  0.00  0.00    -0.000 A 
ATOM      9  C   UNL     1     -10.191   8.751  67.089  0.00  0.00    -0.004 A 
ENDBRANCH   1   7
BRANCH   1  10
ATOM     10  C   UNL     1     -11.705  12.077  70.090  0.00  0.00    +0.081 A 
ATOM     11  N   UNL     1     -12.059  13.362  70.335  0.00  0.00    -0.245 NA
ATOM     12  C   UNL     1     -12.882  13.677  71.344  0.00  0.00    +0.082 A 
ATOM     13  C   UNL     1     -13.372  12.611  72.089  0.00  0.00    +0.019 A 
ATOM     14  C   UNL     1     -13.244  11.298  71.693  0.00  0.00    +0.003 A 
ATOM     15  C   UNL     1     -12.373  11.011  70.679  0.00  0.00    +0.019 A 
BRANCH  12  16
ATOM     16  C   UNL     1     -13.719  14.885  71.325  0.00  0.00    +0.026 C 
ATOM     17  C   UNL     1     -13.898  15.458  72.517  0.00  0.00    +0.088 C 
BRANCH  17  18
ATOM     18  C   UNL     1     -12.654  15.809  73.210  0.00  0.00    +0.388 C 
ATOM     19  O   UNL     1     -12.407  15.492  74.528  0.00  0.00    -0.241 OA
ATOM     20  O   UNL     1     -11.885  16.603  72.596  0.00  0.00    -0.241 OA
ENDBRANCH  17  18
ENDBRANCH  12  16
ENDBRANCH   1  10
BRANCH   2  21
ATOM     21  C   UNL     1      -9.719  12.736  66.947  0.00  0.00    +0.099 C 
BRANCH  21  22
ATOM     22  N   UNL     1     -10.529  13.378  65.920  0.00  0.00    -0.269 NA
ATOM     23  C   UNL     1     -11.124  12.298  65.151  0.00  0.00    +0.072 C 
ATOM     24  C   UNL     1     -12.409  12.815  64.576  0.00  0.00    +0.019 C 
ATOM     25  C   UNL     1     -12.808  13.895  65.549  0.00  0.00    +0.019 C 
ATOM     26  C   UNL     1     -11.686  13.939  66.576  0.00  0.00    +0.072 C 
ENDBRANCH  21  22
ENDBRANCH   2  21
TORSDOF 6
ENDMDL
