MODEL 1
REMARK VINA RESULT:      -4.8      0.000      0.000
REMARK  Name = 
REMARK  5 active torsions:
REMARK  status: ('A' for Active; 'I' for Inactive)
REMARK    1  A    between atoms: NE_4  and  CD_5
REMARK    2  A    between atoms: CD_5  and  CG_6
REMARK    3  A    between atoms: CG_6  and  CB_7
REMARK    4  A    between atoms: CB_7  and  CA_8
REMARK    5  A    between atoms: CA_8  and  C_10
REMARK                            x       y       z     vdW  Elec       q    Type
REMARK                         _______ _______ _______ _____ _____    ______ ____
ROOT
ATOM      1  CG  ARG A   1     -11.832  14.915  69.935  0.00  0.00    +0.049 C 
ENDROOT
BRANCH   1   2
ATOM      2  CD  ARG A   1     -11.994  13.747  68.980  0.00  0.00    +0.220 C 
BRANCH   2   5
ATOM      3  NH1 ARG A   1     -11.981  12.416  66.643  0.00  0.00    +0.135 NA
ATOM      4  CZ  ARG A   1     -12.217  13.466  66.526  0.00  0.00    +0.535 C 
ATOM      5  NE  ARG A   1     -12.030  14.300  67.656  0.00  0.00    -0.087 NA
ATOM      6  NH2 ARG A   1     -12.892  13.952  65.359  0.00  0.00    +0.135 NA
ENDBRANCH   2   5
ENDBRANCH   1   2
BRANCH   1   7
ATOM      7  CB  ARG A   1     -13.080  15.033  70.780  0.00  0.00    +0.034 C 
BRANCH   7   8
ATOM      8  CA  ARG A   1     -12.476  14.635  72.280  0.00  0.00    +0.194 C 
ATOM      9  N   ARG A   1     -13.702  13.662  72.573  0.00  0.00    -0.121 NA
BRANCH   8  10
ATOM     10  C   ARG A   1     -13.198  15.865  73.064  0.00  0.00    +0.382 C 
ATOM     11  OXT ARG A   1     -14.478  16.106  72.558  0.00  0.00    -0.244 OA
ATOM     12  O   ARG A   1     -12.842  16.122  74.202  0.00  0.00    -0.244 OA
ENDBRANCH   8  10
ENDBRANCH   7   8
ENDBRANCH   1   7
TORSDOF 5
ENDMDL
MODEL 2
REMARK VINA RESULT:      -4.7      5.636      6.906
REMARK  Name = 
REMARK  5 active torsions:
REMARK  status: ('A' for Active; 'I' for Inactive)
REMARK    1  A    between atoms: NE_4  and  CD_5
REMARK    2  A    between atoms: CD_5  and  CG_6
REMARK    3  A    between atoms: CG_6  and  CB_7
REMARK    4  A    between atoms: CB_7  and  CA_8
REMARK    5  A    between atoms: CA_8  and  C_10
REMARK                            x       y       z     vdW  Elec       q    Type
REMARK                         _______ _______ _______ _____ _____    ______ ____
ROOT
ATOM      1  CG  ARG A   1      -9.708  15.265  65.629  0.00  0.00    +0.049 C 
ENDROOT
BRANCH   1   2
ATOM      2  CD  ARG A   1      -9.448  16.441  66.553  0.00  0.00    +0.220 C 
BRANCH   2   5
ATOM      3  NH1 ARG A   1     -10.837  18.501  67.581  0.00  0.00    +0.135 NA
ATOM      4  CZ  ARG A   1     -10.461  18.704  66.586  0.00  0.00    +0.535 C 
ATOM      5  NE  ARG A   1      -9.913  17.613  65.868  0.00  0.00    -0.087 NA
ATOM      6  NH2 ARG A   1     -10.319  20.046  66.102  0.00  0.00    +0.135 NA
ENDBRANCH   2   5
ENDBRANCH   1   2
BRANCH   1   7
ATOM      7  CB  ARG A   1     -11.080  14.703  65.926  0.00  0.00    +0.034 C 
BRANCH   7   8
ATOM      8  CA  ARG A   1     -11.330  13.767  64.572  0.00  0.00    +0.194 C 
ATOM      9  N   ARG A   1     -12.505  14.717  64.069  0.00  0.00    -0.121 NA
BRANCH   8  10
ATOM     10  C   ARG A   1     -12.385  12.752  65.284  0.00  0.00    +0.382 C 
ATOM     11  OXT ARG A   1     -13.337  12.290  64.373  0.00  0.00    -0.244 OA
ATOM     12  O   ARG A   1     -12.031  12.149  66.284  0.00  0.00    -0.244 OA
ENDBRANCH   8  10
ENDBRANCH   7   8
ENDBRANCH   1   7
TORSDOF 5
ENDMDL
MODEL 3
REMARK VINA RESULT:      -4.7      1.427      1.713
REMARK  Name = 
REMARK  5 active torsions:
REMARK  status: ('A' for Active; 'I' for Inactive)
REMARK    1  A    between atoms: NE_4  and  CD_5
REMARK    2  A    between atoms: CD_5  and  CG_6
REMARK    3  A    between atoms: CG_6  and  CB_7
REMARK    4  A    between atoms: CB_7  and  CA_8
REMARK    5  A    between atoms: CA_8  and  C_10
REMARK                            x       y       z     vdW  Elec       q    Type
REMARK                         _______ _______ _______ _____ _____    ______ ____
ROOT
ATOM      1  CG  ARG A   1     -11.347  14.262  69.472  0.00  0.00    +0.049 C 
ENDROOT
BRANCH   1   2
ATOM      2  CD  ARG A   1     -11.750  13.255  68.411  0.00  0.00    +0.220 C 
BRANCH   2   5
ATOM      3  NH1 ARG A   1     -12.107  12.266  65.936  0.00  0.00    +0.135 NA
ATOM      4  CZ  ARG A   1     -12.293  13.331  65.992  0.00  0.00    +0.535 C 
ATOM      5  NE  ARG A   1     -11.918  13.989  67.190  0.00  0.00    -0.087 NA
ATOM      6  NH2 ARG A   1     -13.079  14.004  65.000  0.00  0.00    +0.135 NA
ENDBRANCH   2   5
ENDBRANCH   1   2
BRANCH   1   7
ATOM      7  CB  ARG A   1     -12.198  14.043  70.702  0.00  0.00    +0.034 C 
BRANCH   7   8
ATOM      8  CA  ARG A   1     -12.877  15.553  70.881  0.00  0.00    +0.194 C 
ATOM      9  N   ARG A   1     -12.062  15.817  72.224  0.00  0.00    -0.121 NA
BRANCH   8  10
ATOM     10  C   ARG A   1     -14.178  15.035  71.711  0.00  0.00    +0.382 C 
ATOM     11  OXT ARG A   1     -13.804  14.425  72.910  0.00  0.00    -0.244 OA
ATOM     12  O   ARG A   1     -15.251  15.582  71.516  0.00  0.00    -0.244 OA
ENDBRANCH   8  10
ENDBRANCH   7   8
ENDBRANCH   1   7
TORSDOF 5
ENDMDL
MODEL 4
REMARK VINA RESULT:      -4.7      2.208      2.689
REMARK  Name = 
REMARK  5 active torsions:
REMARK  status: ('A' for Active; 'I' for Inactive)
REMARK    1  A    between atoms: NE_4  and  CD_5
REMARK    2  A    between atoms: CD_5  and  CG_6
REMARK    3  A    between atoms: CG_6  and  CB_7
REMARK    4  A    between atoms: CB_7  and  CA_8
REMARK    5  A    between atoms: CA_8  and  C_10
REMARK                            x       y       z     vdW  Elec       q    Type
REMARK                         _______ _______ _______ _____ _____    ______ ____
ROOT
ATOM      1  CG  ARG A   1     -11.979  14.515  69.946  0.00  0.00    +0.049 C 
ENDROOT
BRANCH   1   2
ATOM      2  CD  ARG A   1     -11.676  15.110  68.583  0.00  0.00    +0.220 C 
BRANCH   2   5
ATOM      3  NH1 ARG A   1      -9.701  16.725  67.733  0.00  0.00    +0.135 NA
ATOM      4  CZ  ARG A   1     -10.563  17.272  68.094  0.00  0.00    +0.535 C 
ATOM      5  NE  ARG A   1     -11.562  16.528  68.770  0.00  0.00    -0.087 NA
ATOM      6  NH2 ARG A   1     -10.791  18.636  67.718  0.00  0.00    +0.135 NA
ENDBRANCH   2   5
ENDBRANCH   1   2
BRANCH   1   7
ATOM      7  CB  ARG A   1     -12.516  15.603  70.847  0.00  0.00    +0.034 C 
BRANCH   7   8
ATOM      8  CA  ARG A   1     -12.064  15.019  72.339  0.00  0.00    +0.194 C 
ATOM      9  N   ARG A   1     -13.184  13.888  72.294  0.00  0.00    -0.121 NA
BRANCH   8  10
ATOM     10  C   ARG A   1     -13.031  16.016  73.189  0.00  0.00    +0.382 C 
ATOM     11  OXT ARG A   1     -14.322  16.043  72.659  0.00  0.00    -0.244 OA
ATOM     12  O   ARG A   1     -12.755  16.242  74.356  0.00  0.00    -0.244 OA
ENDBRANCH   8  10
ENDBRANCH   7   8
ENDBRANCH   1   7
TORSDOF 5
ENDMDL
MODEL 5
REMARK VINA RESULT:      -4.6      4.203      6.419
REMARK  Name = 
REMARK  5 active torsions:
REMARK  status: ('A' for Active; 'I' for Inactive)
REMARK    1  A    between atoms: NE_4  and  CD_5
REMARK    2  A    between atoms: CD_5  and  CG_6
REMARK    3  A    between atoms: CG_6  and  CB_7
REMARK    4  A    between atoms: CB_7  and  CA_8
REMARK    5  A    between atoms: CA_8  and  C_10
REMARK                            x       y       z     vdW  Elec       q    Type
REMARK                         _______ _______ _______ _____ _____    ______ ____
ROOT
ATOM      1  CG  ARG A   1     -10.516  16.401  67.196  0.00  0.00    +0.049 C 
ENDROOT
BRANCH   1   2
ATOM      2  CD  ARG A   1     -10.663  16.659  68.685  0.00  0.00    +0.220 C 
BRANCH   2   5
ATOM      3  NH1 ARG A   1     -11.236  15.376  70.977  0.00  0.00    +0.135 NA
ATOM      4  CZ  ARG A   1     -12.119  15.617  70.400  0.00  0.00    +0.535 C 
ATOM      5  NE  ARG A   1     -11.919  16.088  69.079  0.00  0.00    -0.087 NA
ATOM      6  NH2 ARG A   1     -13.416  15.669  71.009  0.00  0.00    +0.135 NA
ENDBRANCH   2   5
ENDBRANCH   1   2
BRANCH   1   7
ATOM      7  CB  ARG A   1     -11.271  15.141  66.841  0.00  0.00    +0.034 C 
BRANCH   7   8
ATOM      8  CA  ARG A   1     -10.692  14.856  65.306  0.00  0.00    +0.194 C 
ATOM      9  N   ARG A   1     -10.515  16.414  65.028  0.00  0.00    -0.121 NA
BRANCH   8  10
ATOM     10  C   ARG A   1     -12.156  14.843  64.594  0.00  0.00    +0.382 C 
ATOM     11  OXT ARG A   1     -13.036  13.986  65.259  0.00  0.00    -0.244 OA
ATOM     12  O   ARG A   1     -12.496  15.816  63.940  0.00  0.00    -0.244 OA
ENDBRANCH   8  10
ENDBRANCH   7   8
ENDBRANCH   1   7
TORSDOF 5
ENDMDL
MODEL 6
REMARK VINA RESULT:      -4.6      2.648      3.248
REMARK  Name = 
REMARK  5 active torsions:
REMARK  status: ('A' for Active; 'I' for Inactive)
REMARK    1  A    between atoms: NE_4  and  CD_5
REMARK    2  A    between atoms: CD_5  and  CG_6
REMARK    3  A    between atoms: CG_6  and  CB_7
REMARK    4  A    between atoms: CB_7  and  CA_8
REMARK    5  A    between atoms: CA_8  and  C_10
REMARK                            x       y       z     vdW  Elec       q    Type
REMARK                         _______ _______ _______ _____ _____    ______ ____
ROOT
ATOM      1  CG  ARG A   1     -12.054  15.555  70.024  0.00  0.00    +0.049 C 
ENDROOT
BRANCH   1   2
ATOM      2  CD  ARG A   1     -10.897  16.426  69.570  0.00  0.00    +0.220 C 
BRANCH   2   5
ATOM      3  NH1 ARG A   1     -10.662  18.501  67.875  0.00  0.00    +0.135 NA
ATOM      4  CZ  ARG A   1     -10.563  17.543  67.380  0.00  0.00    +0.535 C 
ATOM      5  NE  ARG A   1     -10.892  16.390  68.135  0.00  0.00    -0.087 NA
ATOM      6  NH2 ARG A   1      -9.922  17.426  66.104  0.00  0.00    +0.135 NA
ENDBRANCH   2   5
ENDBRANCH   1   2
BRANCH   1   7
ATOM      7  CB  ARG A   1     -11.751  15.020  71.404  0.00  0.00    +0.034 C 
BRANCH   7   8
ATOM      8  CA  ARG A   1     -12.848  15.879  72.316  0.00  0.00    +0.194 C 
ATOM      9  N   ARG A   1     -12.551  14.992  73.604  0.00  0.00    -0.121 NA
BRANCH   8  10
ATOM     10  C   ARG A   1     -14.130  14.958  71.914  0.00  0.00    +0.382 C 
ATOM     11  OXT ARG A   1     -14.109  13.738  72.592  0.00  0.00    -0.244 OA
ATOM     12  O   ARG A   1     -15.139  15.509  71.506  0.00  0.00    -0.244 OA
ENDBRANCH   8  10
ENDBRANCH   7   8
ENDBRANCH   1   7
TORSDOF 5
ENDMDL
MODEL 7
REMARK VINA RESULT:      -4.6      5.484      6.674
REMARK  Name = 
REMARK  5 active torsions:
REMARK  status: ('A' for Active; 'I' for Inactive)
REMARK    1  A    between atoms: NE_4  and  CD_5
REMARK    2  A    between atoms: CD_5  and  CG_6
REMARK    3  A    between atoms: CG_6  and  CB_7
REMARK    4  A    between atoms: CB_7  and  CA_8
REMARK    5  A    between atoms: CA_8  and  C_10
REMARK                            x       y       z     vdW  Elec       q    Type
REMARK                         _______ _______ _______ _____ _____    ______ ____
ROOT
ATOM      1  CG  ARG A   1      -9.505  15.067  66.002  0.00  0.00    +0.049 C 
ENDROOT
BRANCH   1   2
ATOM      2  CD  ARG A   1     -10.555  16.051  66.486  0.00  0.00    +0.220 C 
BRANCH   2   5
ATOM      3  NH1 ARG A   1     -10.841  18.524  67.503  0.00  0.00    +0.135 NA
ATOM      4  CZ  ARG A   1     -10.288  18.515  66.572  0.00  0.00    +0.535 C 
ATOM      5  NE  ARG A   1     -10.275  17.302  65.841  0.00  0.00    -0.087 NA
ATOM      6  NH2 ARG A   1      -9.431  19.603  66.205  0.00  0.00    +0.135 NA
ENDBRANCH   2   5
ENDBRANCH   1   2
BRANCH   1   7
ATOM      7  CB  ARG A   1     -10.177  13.748  65.694  0.00  0.00    +0.034 C 
BRANCH   7   8
ATOM      8  CA  ARG A   1     -11.742  14.084  66.153  0.00  0.00    +0.194 C 
ATOM      9  N   ARG A   1     -11.963  12.597  66.676  0.00  0.00    -0.121 NA
BRANCH   8  10
ATOM     10  C   ARG A   1     -12.401  13.729  64.707  0.00  0.00    +0.382 C 
ATOM     11  OXT ARG A   1     -13.145  12.549  64.766  0.00  0.00    -0.244 OA
ATOM     12  O   ARG A   1     -12.602  14.638  63.918  0.00  0.00    -0.244 OA
ENDBRANCH   8  10
ENDBRANCH   7   8
ENDBRANCH   1   7
TORSDOF 5
ENDMDL
MODEL 8
REMARK VINA RESULT:      -4.5      5.435      7.078
REMARK  Name = 
REMARK  5 active torsions:
REMARK  status: ('A' for Active; 'I' for Inactive)
REMARK    1  A    between atoms: NE_4  and  CD_5
REMARK    2  A    between atoms: CD_5  and  CG_6
REMARK    3  A    between atoms: CG_6  and  CB_7
REMARK    4  A    between atoms: CB_7  and  CA_8
REMARK    5  A    between atoms: CA_8  and  C_10
REMARK                            x       y       z     vdW  Elec       q    Type
REMARK                         _______ _______ _______ _____ _____    ______ ____
ROOT
ATOM      1  CG  ARG A   1     -10.795  15.502  65.032  0.00  0.00    +0.049 C 
ENDROOT
BRANCH   1   2
ATOM      2  CD  ARG A   1      -9.836  16.137  66.022  0.00  0.00    +0.220 C 
BRANCH   2   5
ATOM      3  NH1 ARG A   1     -10.825  17.686  67.985  0.00  0.00    +0.135 NA
ATOM      4  CZ  ARG A   1     -10.946  16.629  68.185  0.00  0.00    +0.535 C 
ATOM      5  NE  ARG A   1     -10.264  15.728  67.329  0.00  0.00    -0.087 NA
ATOM      6  NH2 ARG A   1     -11.919  16.155  69.124  0.00  0.00    +0.135 NA
ENDBRANCH   2   5
ENDBRANCH   1   2
BRANCH   1   7
ATOM      7  CB  ARG A   1     -10.704  13.999  65.157  0.00  0.00    +0.034 C 
BRANCH   7   8
ATOM      8  CA  ARG A   1     -12.308  13.578  65.009  0.00  0.00    +0.194 C 
ATOM      9  N   ARG A   1     -12.123  12.327  65.975  0.00  0.00    -0.121 NA
BRANCH   8  10
ATOM     10  C   ARG A   1     -12.099  12.653  63.685  0.00  0.00    +0.382 C 
ATOM     11  OXT ARG A   1     -10.751  12.344  63.491  0.00  0.00    -0.244 OA
ATOM     12  O   ARG A   1     -13.031  11.965  63.301  0.00  0.00    -0.244 OA
ENDBRANCH   8  10
ENDBRANCH   7   8
ENDBRANCH   1   7
TORSDOF 5
ENDMDL
MODEL 9
REMARK VINA RESULT:      -4.5      4.993      7.020
REMARK  Name = 
REMARK  5 active torsions:
REMARK  status: ('A' for Active; 'I' for Inactive)
REMARK    1  A    between atoms: NE_4  and  CD_5
REMARK    2  A    between atoms: CD_5  and  CG_6
REMARK    3  A    between atoms: CG_6  and  CB_7
REMARK    4  A    between atoms: CB_7  and  CA_8
REMARK    5  A    between atoms: CA_8  and  C_10
REMARK                            x       y       z     vdW  Elec       q    Type
REMARK                         _______ _______ _______ _____ _____    ______ ____
ROOT
ATOM      1  CG  ARG A   1     -11.623  12.690  66.799  0.00  0.00    +0.049 C 
ENDROOT
BRANCH   1   2
ATOM      2  CD  ARG A   1     -11.772  13.461  68.097  0.00  0.00    +0.220 C 
BRANCH   2   5
ATOM      3  NH1 ARG A   1     -12.063  15.565  69.746  0.00  0.00    +0.135 NA
ATOM      4  CZ  ARG A   1     -11.711  15.850  68.763  0.00  0.00    +0.535 C 
ATOM      5  NE  ARG A   1     -11.739  14.854  67.755  0.00  0.00    -0.087 NA
ATOM      6  NH2 ARG A   1     -11.044  17.099  68.543  0.00  0.00    +0.135 NA
ENDBRANCH   2   5
ENDBRANCH   1   2
BRANCH   1   7
ATOM      7  CB  ARG A   1     -12.545  13.294  65.763  0.00  0.00    +0.034 C 
BRANCH   7   8
ATOM      8  CA  ARG A   1     -11.472  13.569  64.519  0.00  0.00    +0.194 C 
ATOM      9  N   ARG A   1     -12.471  14.591  63.816  0.00  0.00    -0.121 NA
BRANCH   8  10
ATOM     10  C   ARG A   1     -11.998  12.337  63.593  0.00  0.00    +0.382 C 
ATOM     11  OXT ARG A   1     -11.003  11.374  63.419  0.00  0.00    -0.244 OA
ATOM     12  O   ARG A   1     -13.197  12.114  63.545  0.00  0.00    -0.244 OA
ENDBRANCH   8  10
ENDBRANCH   7   8
ENDBRANCH   1   7
TORSDOF 5
ENDMDL
