MODEL 1
REMARK VINA RESULT:      -6.6      0.000      0.000
REMARK  Name = 
REMARK  4 active torsions:
REMARK  status: ('A' for Active; 'I' for Inactive)
REMARK    1  A    between atoms: C_5  and  C_6
REMARK    2  A    between atoms: C_6  and  C_14
REMARK    3  A    between atoms: C_7  and  C_8
REMARK    4  A    between atoms: C_8  and  N_9
REMARK                            x       y       z     vdW  Elec       q    Type
REMARK                         _______ _______ _______ _____ _____    ______ ____
ROOT
ATOM      1  C   UNL     1     -10.839  14.709  68.220  0.00  0.00    +0.015 C 
ATOM      2  C   UNL     1     -11.129  14.661  69.521  0.00  0.00    -0.007 C 
ENDROOT
BRANCH   1   7
ATOM      3  C   UNL     1     -11.722  11.720  63.573  0.00  0.00    +0.031 C 
ATOM      4  C   UNL     1     -11.707  12.380  64.907  0.00  0.00    -0.022 A 
ATOM      5  C   UNL     1     -12.474  13.510  65.165  0.00  0.00    -0.004 A 
ATOM      6  C   UNL     1     -12.394  14.144  66.379  0.00  0.00    -0.000 A 
ATOM      7  C   UNL     1     -11.521  13.722  67.373  0.00  0.00    +0.001 A 
ATOM      8  C   UNL     1     -10.956  12.468  67.176  0.00  0.00    -0.000 A 
ATOM      9  C   UNL     1     -11.234  11.725  66.036  0.00  0.00    -0.004 A 
ENDBRANCH   1   7
BRANCH   1  10
ATOM     10  C   UNL     1     -10.284  15.939  67.638  0.00  0.00    +0.081 A 
ATOM     11  N   UNL     1      -9.080  15.904  67.017  0.00  0.00    -0.244 NA
ATOM     12  C   UNL     1      -8.831  16.934  66.171  0.00  0.00    +0.099 A 
ATOM     13  C   UNL     1      -9.291  18.171  66.606  0.00  0.00    +0.021 A 
ATOM     14  C   UNL     1     -10.276  18.291  67.575  0.00  0.00    +0.003 A 
ATOM     15  C   UNL     1     -10.569  17.135  68.288  0.00  0.00    +0.019 A 
ENDBRANCH   1  10
BRANCH   2  16
ATOM     16  C   UNL     1     -12.383  13.973  69.966  0.00  0.00    +0.099 C 
BRANCH  16  17
ATOM     17  N   UNL     1     -12.677  14.378  71.321  0.00  0.00    -0.269 NA
ATOM     18  C   UNL     1     -11.636  15.314  71.738  0.00  0.00    +0.072 C 
ATOM     19  C   UNL     1     -12.250  16.083  72.895  0.00  0.00    +0.019 C 
ATOM     20  C   UNL     1     -13.719  15.738  72.844  0.00  0.00    +0.019 C 
ATOM     21  C   UNL     1     -13.856  15.198  71.426  0.00  0.00    +0.072 C 
ENDBRANCH  16  17
ENDBRANCH   2  16
TORSDOF 4
ENDMDL
MODEL 2
REMARK VINA RESULT:      -6.5      1.349      4.479
REMARK  Name = 
REMARK  4 active torsions:
REMARK  status: ('A' for Active; 'I' for Inactive)
REMARK    1  A    between atoms: C_5  and  C_6
REMARK    2  A    between atoms: C_6  and  C_14
REMARK    3  A    between atoms: C_7  and  C_8
REMARK    4  A    between atoms: C_8  and  N_9
REMARK                            x       y       z     vdW  Elec       q    Type
REMARK                         _______ _______ _______ _____ _____    ______ ____
ROOT
ATOM      1  C   UNL     1     -11.183  15.845  67.957  0.00  0.00    +0.015 C 
ATOM      2  C   UNL     1     -11.861  15.642  69.089  0.00  0.00    -0.007 C 
ENDROOT
BRANCH   1   7
ATOM      3  C   UNL     1      -7.331  19.306  65.839  0.00  0.00    +0.031 C 
ATOM      4  C   UNL     1      -8.287  18.499  66.645  0.00  0.00    -0.022 A 
ATOM      5  C   UNL     1      -7.897  17.313  67.257  0.00  0.00    -0.004 A 
ATOM      6  C   UNL     1      -8.810  16.548  67.938  0.00  0.00    -0.000 A 
ATOM      7  C   UNL     1     -10.154  16.891  68.004  0.00  0.00    +0.001 A 
ATOM      8  C   UNL     1     -10.459  18.183  67.595  0.00  0.00    -0.000 A 
ATOM      9  C   UNL     1      -9.474  19.040  67.122  0.00  0.00    -0.004 A 
ENDBRANCH   1   7
BRANCH   1  10
ATOM     10  C   UNL     1     -11.135  14.792  66.933  0.00  0.00    +0.081 A 
ATOM     11  N   UNL     1     -10.978  15.129  65.630  0.00  0.00    -0.244 NA
ATOM     12  C   UNL     1     -10.537  14.135  64.820  0.00  0.00    +0.099 A 
ATOM     13  C   UNL     1     -11.063  12.879  65.097  0.00  0.00    +0.021 A 
ATOM     14  C   UNL     1     -11.632  12.574  66.325  0.00  0.00    +0.003 A 
ATOM     15  C   UNL     1     -11.907  13.656  67.151  0.00  0.00    +0.019 A 
ENDBRANCH   1  10
BRANCH   2  16
ATOM     16  C   UNL     1     -11.280  16.118  70.384  0.00  0.00    +0.099 C 
BRANCH  16  17
ATOM     17  N   UNL     1     -11.768  15.273  71.448  0.00  0.00    -0.269 NA
ATOM     18  C   UNL     1     -12.026  16.124  72.607  0.00  0.00    +0.072 C 
ATOM     19  C   UNL     1     -12.992  15.326  73.464  0.00  0.00    +0.019 C 
ATOM     20  C   UNL     1     -13.458  14.203  72.569  0.00  0.00    +0.019 C 
ATOM     21  C   UNL     1     -13.079  14.735  71.192  0.00  0.00    +0.072 C 
ENDBRANCH  16  17
ENDBRANCH   2  16
TORSDOF 4
ENDMDL
MODEL 3
REMARK VINA RESULT:      -6.4      1.494      5.103
REMARK  Name = 
REMARK  4 active torsions:
REMARK  status: ('A' for Active; 'I' for Inactive)
REMARK    1  A    between atoms: C_5  and  C_6
REMARK    2  A    between atoms: C_6  and  C_14
REMARK    3  A    between atoms: C_7  and  C_8
REMARK    4  A    between atoms: C_8  and  N_9
REMARK                            x       y       z     vdW  Elec       q    Type
REMARK                         _______ _______ _______ _____ _____    ______ ____
ROOT
ATOM      1  C   UNL     1     -11.327  15.591  69.264  0.00  0.00    +0.015 C 
ATOM      2  C   UNL     1     -10.711  16.763  69.098  0.00  0.00    -0.007 C 
ENDROOT
BRANCH   1   7
ATOM      3  C   UNL     1     -11.116  10.352  67.310  0.00  0.00    +0.031 C 
ATOM      4  C   UNL     1     -11.019  11.807  67.609  0.00  0.00    -0.022 A 
ATOM      5  C   UNL     1      -9.942  12.331  68.315  0.00  0.00    -0.004 A 
ATOM      6  C   UNL     1      -9.905  13.664  68.640  0.00  0.00    -0.000 A 
ATOM      7  C   UNL     1     -10.946  14.527  68.326  0.00  0.00    +0.001 A 
ATOM      8  C   UNL     1     -11.880  14.031  67.425  0.00  0.00    -0.000 A 
ATOM      9  C   UNL     1     -11.774  12.743  66.915  0.00  0.00    -0.004 A 
ENDBRANCH   1   7
BRANCH   1  10
ATOM     10  C   UNL     1     -11.944  15.264  70.557  0.00  0.00    +0.081 A 
ATOM     11  N   UNL     1     -13.131  14.611  70.590  0.00  0.00    -0.244 NA
ATOM     12  C   UNL     1     -13.424  13.995  71.761  0.00  0.00    +0.099 A 
ATOM     13  C   UNL     1     -13.049  14.695  72.901  0.00  0.00    +0.021 A 
ATOM     14  C   UNL     1     -12.093  15.699  72.865  0.00  0.00    +0.003 A 
ATOM     15  C   UNL     1     -11.745  16.161  71.602  0.00  0.00    +0.019 A 
ENDBRANCH   1  10
BRANCH   2  16
ATOM     16  C   UNL     1      -9.426  16.811  68.331  0.00  0.00    +0.099 C 
BRANCH  16  17
ATOM     17  N   UNL     1      -9.326  18.094  67.676  0.00  0.00    -0.269 NA
ATOM     18  C   UNL     1     -10.285  18.104  66.574  0.00  0.00    +0.072 C 
ATOM     19  C   UNL     1     -10.516  19.575  66.278  0.00  0.00    +0.019 C 
ATOM     20  C   UNL     1      -9.905  20.301  67.452  0.00  0.00    +0.019 C 
ATOM     21  C   UNL     1      -9.809  19.184  68.484  0.00  0.00    +0.072 C 
ENDBRANCH  16  17
ENDBRANCH   2  16
TORSDOF 4
ENDMDL
MODEL 4
REMARK VINA RESULT:      -6.2      3.053      7.482
REMARK  Name = 
REMARK  4 active torsions:
REMARK  status: ('A' for Active; 'I' for Inactive)
REMARK    1  A    between atoms: C_5  and  C_6
REMARK    2  A    between atoms: C_6  and  C_14
REMARK    3  A    between atoms: C_7  and  C_8
REMARK    4  A    between atoms: C_8  and  N_9
REMARK                            x       y       z     vdW  Elec       q    Type
REMARK                         _______ _______ _______ _____ _____    ______ ____
ROOT
ATOM      1  C   UNL     1     -11.719  11.920  70.144  0.00  0.00    +0.015 C 
ATOM      2  C   UNL     1     -11.426  11.898  68.843  0.00  0.00    -0.007 C 
ENDROOT
BRANCH   1   7
ATOM      3  C   UNL     1     -12.561  16.047  73.828  0.00  0.00    +0.031 C 
ATOM      4  C   UNL     1     -12.523  15.083  72.694  0.00  0.00    -0.022 A 
ATOM      5  C   UNL     1     -13.429  14.032  72.606  0.00  0.00    -0.004 A 
ATOM      6  C   UNL     1     -13.334  13.115  71.590  0.00  0.00    -0.000 A 
ATOM      7  C   UNL     1     -12.317  13.164  70.647  0.00  0.00    +0.001 A 
ATOM      8  C   UNL     1     -11.584  14.344  70.622  0.00  0.00    -0.000 A 
ATOM      9  C   UNL     1     -11.849  15.374  71.516  0.00  0.00    -0.004 A 
ENDBRANCH   1   7
BRANCH   1  10
ATOM     10  C   UNL     1     -11.887  10.658  70.879  0.00  0.00    +0.081 A 
ATOM     11  N   UNL     1     -10.885   9.746  70.886  0.00  0.00    -0.244 NA
ATOM     12  C   UNL     1     -10.937   8.831  71.884  0.00  0.00    +0.099 A 
ATOM     13  C   UNL     1     -12.213   8.381  72.198  0.00  0.00    +0.021 A 
ATOM     14  C   UNL     1     -13.351   9.092  71.848  0.00  0.00    +0.003 A 
ATOM     15  C   UNL     1     -13.167  10.116  70.928  0.00  0.00    +0.019 A 
ENDBRANCH   1  10
BRANCH   2  16
ATOM     16  C   UNL     1     -12.089  12.880  67.927  0.00  0.00    +0.099 C 
BRANCH  16  17
ATOM     17  N   UNL     1     -12.018  12.374  66.577  0.00  0.00    -0.269 NA
ATOM     18  C   UNL     1     -11.787  13.511  65.689  0.00  0.00    +0.072 C 
ATOM     19  C   UNL     1     -11.210  12.901  64.424  0.00  0.00    +0.019 C 
ATOM     20  C   UNL     1     -10.863  11.483  64.808  0.00  0.00    +0.019 C 
ATOM     21  C   UNL     1     -10.845  11.576  66.329  0.00  0.00    +0.072 C 
ENDBRANCH  16  17
ENDBRANCH   2  16
TORSDOF 4
ENDMDL
MODEL 5
REMARK VINA RESULT:      -6.2      1.550      6.257
REMARK  Name = 
REMARK  4 active torsions:
REMARK  status: ('A' for Active; 'I' for Inactive)
REMARK    1  A    between atoms: C_5  and  C_6
REMARK    2  A    between atoms: C_6  and  C_14
REMARK    3  A    between atoms: C_7  and  C_8
REMARK    4  A    between atoms: C_8  and  N_9
REMARK                            x       y       z     vdW  Elec       q    Type
REMARK                         _______ _______ _______ _____ _____    ______ ____
ROOT
ATOM      1  C   UNL     1     -11.313  14.557  68.789  0.00  0.00    +0.015 C 
ATOM      2  C   UNL     1     -11.914  13.709  67.953  0.00  0.00    -0.007 C 
ENDROOT
BRANCH   1   7
ATOM      3  C   UNL     1      -7.786  18.899  68.704  0.00  0.00    +0.031 C 
ATOM      4  C   UNL     1      -8.720  17.768  68.452  0.00  0.00    -0.022 A 
ATOM      5  C   UNL     1     -10.085  17.976  68.297  0.00  0.00    -0.004 A 
ATOM      6  C   UNL     1     -10.938  16.913  68.134  0.00  0.00    -0.000 A 
ATOM      7  C   UNL     1     -10.490  15.600  68.165  0.00  0.00    +0.001 A 
ATOM      8  C   UNL     1      -9.112  15.438  68.080  0.00  0.00    -0.000 A 
ATOM      9  C   UNL     1      -8.263  16.534  68.008  0.00  0.00    -0.004 A 
ENDBRANCH   1   7
BRANCH   1  10
ATOM     10  C   UNL     1     -11.828  14.727  70.155  0.00  0.00    +0.081 A 
ATOM     11  N   UNL     1     -11.180  15.544  71.021  0.00  0.00    -0.244 NA
ATOM     12  C   UNL     1     -11.911  15.966  72.082  0.00  0.00    +0.099 A 
ATOM     13  C   UNL     1     -12.764  15.011  72.621  0.00  0.00    +0.021 A 
ATOM     14  C   UNL     1     -13.162  13.892  71.904  0.00  0.00    +0.003 A 
ATOM     15  C   UNL     1     -12.445  13.629  70.744  0.00  0.00    +0.019 A 
ENDBRANCH   1  10
BRANCH   2  16
ATOM     16  C   UNL     1     -12.093  14.100  66.519  0.00  0.00    +0.099 C 
BRANCH  16  17
ATOM     17  N   UNL     1     -11.543  13.058  65.684  0.00  0.00    -0.269 NA
ATOM     18  C   UNL     1     -12.591  12.631  64.761  0.00  0.00    +0.072 C 
ATOM     19  C   UNL     1     -11.849  11.964  63.616  0.00  0.00    +0.019 C 
ATOM     20  C   UNL     1     -10.403  12.345  63.826  0.00  0.00    +0.019 C 
ATOM     21  C   UNL     1     -10.536  13.534  64.770  0.00  0.00    +0.072 C 
ENDBRANCH  16  17
ENDBRANCH   2  16
TORSDOF 4
ENDMDL
MODEL 6
REMARK VINA RESULT:      -6.2      1.838      5.854
REMARK  Name = 
REMARK  4 active torsions:
REMARK  status: ('A' for Active; 'I' for Inactive)
REMARK    1  A    between atoms: C_5  and  C_6
REMARK    2  A    between atoms: C_6  and  C_14
REMARK    3  A    between atoms: C_7  and  C_8
REMARK    4  A    between atoms: C_8  and  N_9
REMARK                            x       y       z     vdW  Elec       q    Type
REMARK                         _______ _______ _______ _____ _____    ______ ____
ROOT
ATOM      1  C   UNL     1     -11.492  14.275  69.675  0.00  0.00    +0.015 C 
ATOM      2  C   UNL     1     -11.895  13.135  69.110  0.00  0.00    -0.007 C 
ENDROOT
BRANCH   1   7
ATOM      3  C   UNL     1      -8.361  18.767  68.526  0.00  0.00    +0.031 C 
ATOM      4  C   UNL     1      -9.153  17.507  68.567  0.00  0.00    -0.022 A 
ATOM      5  C   UNL     1     -10.496  17.484  68.208  0.00  0.00    -0.004 A 
ATOM      6  C   UNL     1     -11.226  16.327  68.318  0.00  0.00    -0.000 A 
ATOM      7  C   UNL     1     -10.679  15.158  68.830  0.00  0.00    +0.001 A 
ATOM      8  C   UNL     1      -9.295  15.151  68.950  0.00  0.00    -0.000 A 
ATOM      9  C   UNL     1      -8.537  16.264  68.608  0.00  0.00    -0.004 A 
ENDBRANCH   1   7
BRANCH   1  10
ATOM     10  C   UNL     1     -12.208  14.806  70.843  0.00  0.00    +0.081 A 
ATOM     11  N   UNL     1     -13.546  15.011  70.775  0.00  0.00    -0.244 NA
ATOM     12  C   UNL     1     -14.184  15.100  71.968  0.00  0.00    +0.099 A 
ATOM     13  C   UNL     1     -13.482  15.779  72.957  0.00  0.00    +0.021 A 
ATOM     14  C   UNL     1     -12.110  15.969  72.886  0.00  0.00    +0.003 A 
ATOM     15  C   UNL     1     -11.524  15.704  71.655  0.00  0.00    +0.019 A 
ENDBRANCH   1  10
BRANCH   2  16
ATOM     16  C   UNL     1     -11.900  13.022  67.617  0.00  0.00    +0.099 C 
BRANCH  16  17
ATOM     17  N   UNL     1     -11.639  11.648  67.257  0.00  0.00    -0.269 NA
ATOM     18  C   UNL     1     -10.345  11.606  66.581  0.00  0.00    +0.072 C 
ATOM     19  C   UNL     1      -9.893  10.161  66.703  0.00  0.00    +0.019 C 
ATOM     20  C   UNL     1     -10.828   9.554  67.721  0.00  0.00    +0.019 C 
ATOM     21  C   UNL     1     -11.394  10.799  68.394  0.00  0.00    +0.072 C 
ENDBRANCH  16  17
ENDBRANCH   2  16
TORSDOF 4
ENDMDL
MODEL 7
REMARK VINA RESULT:      -6.2      2.915      5.335
REMARK  Name = 
REMARK  4 active torsions:
REMARK  status: ('A' for Active; 'I' for Inactive)
REMARK    1  A    between atoms: C_5  and  C_6
REMARK    2  A    between atoms: C_6  and  C_14
REMARK    3  A    between atoms: C_7  and  C_8
REMARK    4  A    between atoms: C_8  and  N_9
REMARK                            x       y       z     vdW  Elec       q    Type
REMARK                         _______ _______ _______ _____ _____    ______ ____
ROOT
ATOM      1  C   UNL     1     -11.670  12.287  67.589  0.00  0.00    +0.015 C 
ATOM      2  C   UNL     1     -11.897  11.184  68.304  0.00  0.00    -0.007 C 
ENDROOT
BRANCH   1   7
ATOM      3  C   UNL     1     -10.311  17.660  68.360  0.00  0.00    +0.031 C 
ATOM      4  C   UNL     1     -10.585  16.197  68.415  0.00  0.00    -0.022 A 
ATOM      5  C   UNL     1      -9.597  15.265  68.120  0.00  0.00    -0.004 A 
ATOM      6  C   UNL     1      -9.887  13.923  68.109  0.00  0.00    -0.000 A 
ATOM      7  C   UNL     1     -11.171  13.446  68.339  0.00  0.00    +0.001 A 
ATOM      8  C   UNL     1     -12.065  14.373  68.860  0.00  0.00    -0.000 A 
ATOM      9  C   UNL     1     -11.686  15.689  69.090  0.00  0.00    -0.004 A 
ENDBRANCH   1   7
BRANCH   1  10
ATOM     10  C   UNL     1     -11.465  12.189  66.137  0.00  0.00    +0.081 A 
ATOM     11  N   UNL     1     -12.475  12.514  65.293  0.00  0.00    -0.244 NA
ATOM     12  C   UNL     1     -12.102  12.795  64.020  0.00  0.00    +0.099 A 
ATOM     13  C   UNL     1     -11.083  11.994  63.520  0.00  0.00    +0.021 A 
ATOM     14  C   UNL     1     -10.232  11.281  64.351  0.00  0.00    +0.003 A 
ATOM     15  C   UNL     1     -10.627  11.179  65.679  0.00  0.00    +0.019 A 
ENDBRANCH   1  10
BRANCH   2  16
ATOM     16  C   UNL     1     -11.248  11.035  69.646  0.00  0.00    +0.099 C 
BRANCH  16  17
ATOM     17  N   UNL     1     -11.896   9.957  70.355  0.00  0.00    -0.269 NA
ATOM     18  C   UNL     1     -10.870   9.249  71.117  0.00  0.00    +0.072 C 
ATOM     19  C   UNL     1     -11.635   8.514  72.204  0.00  0.00    +0.019 C 
ATOM     20  C   UNL     1     -13.019   9.115  72.168  0.00  0.00    +0.019 C 
ATOM     21  C   UNL     1     -12.768  10.411  71.407  0.00  0.00    +0.072 C 
ENDBRANCH  16  17
ENDBRANCH   2  16
TORSDOF 4
ENDMDL
MODEL 8
REMARK VINA RESULT:      -6.2      1.760      4.923
REMARK  Name = 
REMARK  4 active torsions:
REMARK  status: ('A' for Active; 'I' for Inactive)
REMARK    1  A    between atoms: C_5  and  C_6
REMARK    2  A    between atoms: C_6  and  C_14
REMARK    3  A    between atoms: C_7  and  C_8
REMARK    4  A    between atoms: C_8  and  N_9
REMARK                            x       y       z     vdW  Elec       q    Type
REMARK                         _______ _______ _______ _____ _____    ______ ____
ROOT
ATOM      1  C   UNL     1     -11.727  14.558  68.349  0.00  0.00    +0.015 C 
ATOM      2  C   UNL     1     -11.294  15.733  68.809  0.00  0.00    -0.007 C 
ENDROOT
BRANCH   1   7
ATOM      3  C   UNL     1     -11.094  11.328  63.824  0.00  0.00    +0.031 C 
ATOM      4  C   UNL     1     -11.192  12.394  64.859  0.00  0.00    -0.022 A 
ATOM      5  C   UNL     1     -10.079  12.803  65.583  0.00  0.00    -0.004 A 
ATOM      6  C   UNL     1     -10.202  13.739  66.580  0.00  0.00    -0.000 A 
ATOM      7  C   UNL     1     -11.432  14.273  66.938  0.00  0.00    +0.001 A 
ATOM      8  C   UNL     1     -12.471  14.027  66.049  0.00  0.00    -0.000 A 
ATOM      9  C   UNL     1     -12.273  13.264  64.906  0.00  0.00    -0.004 A 
ENDBRANCH   1   7
BRANCH   1  10
ATOM     10  C   UNL     1     -12.022  13.467  69.288  0.00  0.00    +0.081 A 
ATOM     11  N   UNL     1     -12.198  13.741  70.603  0.00  0.00    -0.244 NA
ATOM     12  C   UNL     1     -12.855  12.792  71.314  0.00  0.00    +0.099 A 
ATOM     13  C   UNL     1     -12.541  11.483  70.970  0.00  0.00    +0.021 A 
ATOM     14  C   UNL     1     -11.959  11.161  69.752  0.00  0.00    +0.003 A 
ATOM     15  C   UNL     1     -11.449  12.228  69.024  0.00  0.00    +0.019 A 
ENDBRANCH   1  10
BRANCH   2  16
ATOM     16  C   UNL     1     -10.210  16.453  68.070  0.00  0.00    +0.099 C 
BRANCH  16  17
ATOM     17  N   UNL     1     -10.666  17.789  67.766  0.00  0.00    -0.269 NA
ATOM     18  C   UNL     1      -9.865  18.721  68.557  0.00  0.00    +0.072 C 
ATOM     19  C   UNL     1     -10.001  20.052  67.840  0.00  0.00    +0.019 C 
ATOM     20  C   UNL     1     -10.621  19.705  66.508  0.00  0.00    +0.019 C 
ATOM     21  C   UNL     1     -10.349  18.208  66.426  0.00  0.00    +0.072 C 
ENDBRANCH  16  17
ENDBRANCH   2  16
TORSDOF 4
ENDMDL
MODEL 9
REMARK VINA RESULT:      -6.1      2.423      4.557
REMARK  Name = 
REMARK  4 active torsions:
REMARK  status: ('A' for Active; 'I' for Inactive)
REMARK    1  A    between atoms: C_5  and  C_6
REMARK    2  A    between atoms: C_6  and  C_14
REMARK    3  A    between atoms: C_7  and  C_8
REMARK    4  A    between atoms: C_8  and  N_9
REMARK                            x       y       z     vdW  Elec       q    Type
REMARK                         _______ _______ _______ _____ _____    ______ ____
ROOT
ATOM      1  C   UNL     1     -11.795  12.558  69.135  0.00  0.00    +0.015 C 
ATOM      2  C   UNL     1     -12.122  13.451  70.071  0.00  0.00    -0.007 C 
ENDROOT
BRANCH   1   7
ATOM      3  C   UNL     1     -10.383  12.366  63.724  0.00  0.00    +0.031 C 
ATOM      4  C   UNL     1     -10.707  12.688  65.141  0.00  0.00    -0.022 A 
ATOM      5  C   UNL     1      -9.719  12.732  66.117  0.00  0.00    -0.004 A 
ATOM      6  C   UNL     1     -10.047  12.962  67.430  0.00  0.00    -0.000 A 
ATOM      7  C   UNL     1     -11.364  13.110  67.844  0.00  0.00    +0.001 A 
ATOM      8  C   UNL     1     -12.290  13.298  66.826  0.00  0.00    -0.000 A 
ATOM      9  C   UNL     1     -11.904  13.298  65.492  0.00  0.00    -0.004 A 
ENDBRANCH   1   7
BRANCH   1  10
ATOM     10  C   UNL     1     -11.428  11.190  69.524  0.00  0.00    +0.081 A 
ATOM     11  N   UNL     1     -11.266  10.240  68.571  0.00  0.00    -0.244 NA
ATOM     12  C   UNL     1     -10.548   9.154  68.947  0.00  0.00    +0.099 A 
ATOM     13  C   UNL     1     -10.780   8.722  70.247  0.00  0.00    +0.021 A 
ATOM     14  C   UNL     1     -11.343   9.548  71.208  0.00  0.00    +0.003 A 
ATOM     15  C   UNL     1     -11.923  10.719  70.736  0.00  0.00    +0.019 A 
ENDBRANCH   1  10
BRANCH   2  16
ATOM     16  C   UNL     1     -11.633  14.860  69.940  0.00  0.00    +0.099 C 
BRANCH  16  17
ATOM     17  N   UNL     1     -12.198  15.647  71.011  0.00  0.00    -0.269 NA
ATOM     18  C   UNL     1     -13.583  15.218  71.193  0.00  0.00    +0.072 C 
ATOM     19  C   UNL     1     -13.942  15.660  72.600  0.00  0.00    +0.019 C 
ATOM     20  C   UNL     1     -12.622  16.034  73.230  0.00  0.00    +0.019 C 
ATOM     21  C   UNL     1     -11.633  15.342  72.300  0.00  0.00    +0.072 C 
ENDBRANCH  16  17
ENDBRANCH   2  16
TORSDOF 4
ENDMDL
