MODEL 1
REMARK VINA RESULT:      -5.1      0.000      0.000
REMARK  Name = 
REMARK  2 active torsions:
REMARK  status: ('A' for Active; 'I' for Inactive)
REMARK    1  A    between atoms: C_4  and  C_5
REMARK    2  A    between atoms: C_5  and  C_7
REMARK                            x       y       z     vdW  Elec       q    Type
REMARK                         _______ _______ _______ _____ _____    ______ ____
ROOT
ATOM      1  O   UNL     1     -14.164  16.130  72.863  0.00  0.00    -0.241 OA
ATOM      2  C   UNL     1     -13.540  15.574  72.140  0.00  0.00    +0.384 C 
ATOM      3  C   UNL     1     -13.498  14.115  71.974  0.00  0.00    +0.308 C 
ATOM      4  O   UNL     1     -14.324  13.135  72.533  0.00  0.00    -0.276 OA
ATOM      5  C   UNL     1     -12.586  13.770  71.091  0.00  0.00    +0.261 C 
ATOM      6  O   UNL     1     -12.134  12.562  70.638  0.00  0.00    -0.284 OA
ATOM      7  C   UNL     1     -11.721  15.114  70.844  0.00  0.00    +0.266 C 
ATOM      8  O   UNL     1     -12.979  15.999  70.953  0.00  0.00    -0.436 OA
ENDROOT
BRANCH   7   9
ATOM      9  C   UNL     1     -11.861  14.940  69.116  0.00  0.00    +0.232 C 
ATOM     10  O   UNL     1     -11.769  16.434  68.846  0.00  0.00    -0.216 OA
BRANCH   9  11
ATOM     11  C   UNL     1     -10.231  14.775  68.923  0.00  0.00    +0.219 C 
ATOM     12  O   UNL     1     -10.025  13.718  68.090  0.00  0.00    -0.217 OA
ENDBRANCH   9  11
ENDBRANCH   7   9
TORSDOF 2
ENDMDL
MODEL 2
REMARK VINA RESULT:      -5.0      4.013      5.961
REMARK  Name = 
REMARK  2 active torsions:
REMARK  status: ('A' for Active; 'I' for Inactive)
REMARK    1  A    between atoms: C_4  and  C_5
REMARK    2  A    between atoms: C_5  and  C_7
REMARK                            x       y       z     vdW  Elec       q    Type
REMARK                         _______ _______ _______ _____ _____    ______ ____
ROOT
ATOM      1  O   UNL     1     -11.593  16.520  63.912  0.00  0.00    -0.241 OA
ATOM      2  C   UNL     1     -11.523  15.682  64.630  0.00  0.00    +0.384 C 
ATOM      3  C   UNL     1     -12.090  14.339  64.451  0.00  0.00    +0.308 C 
ATOM      4  O   UNL     1     -12.670  13.765  63.315  0.00  0.00    -0.276 OA
ATOM      5  C   UNL     1     -11.906  13.606  65.528  0.00  0.00    +0.261 C 
ATOM      6  O   UNL     1     -12.288  12.339  65.872  0.00  0.00    -0.284 OA
ATOM      7  C   UNL     1     -11.418  14.652  66.661  0.00  0.00    +0.266 C 
ATOM      8  O   UNL     1     -10.601  15.458  65.631  0.00  0.00    -0.436 OA
ENDROOT
BRANCH   7   9
ATOM      9  C   UNL     1     -10.074  13.630  67.089  0.00  0.00    +0.232 C 
ATOM     10  O   UNL     1      -9.240  14.771  67.651  0.00  0.00    -0.216 OA
BRANCH   9  11
ATOM     11  C   UNL     1     -10.695  13.308  68.584  0.00  0.00    +0.219 C 
ATOM     12  O   UNL     1     -10.599  11.965  68.784  0.00  0.00    -0.217 OA
ENDBRANCH   9  11
ENDBRANCH   7   9
TORSDOF 2
ENDMDL
MODEL 3
REMARK VINA RESULT:      -5.0      5.521      6.243
REMARK  Name = 
REMARK  2 active torsions:
REMARK  status: ('A' for Active; 'I' for Inactive)
REMARK    1  A    between atoms: C_4  and  C_5
REMARK    2  A    between atoms: C_5  and  C_7
REMARK                            x       y       z     vdW  Elec       q    Type
REMARK                         _______ _______ _______ _____ _____    ______ ____
ROOT
ATOM      1  O   UNL     1     -13.280  12.218  64.357  0.00  0.00    -0.241 OA
ATOM      2  C   UNL     1     -12.503  12.879  64.782  0.00  0.00    +0.384 C 
ATOM      3  C   UNL     1     -11.282  12.447  65.474  0.00  0.00    +0.308 C 
ATOM      4  O   UNL     1     -10.741  11.164  65.602  0.00  0.00    -0.276 OA
ATOM      5  C   UNL     1     -10.614  13.483  65.936  0.00  0.00    +0.261 C 
ATOM      6  O   UNL     1      -9.474  13.603  66.681  0.00  0.00    -0.284 OA
ATOM      7  C   UNL     1     -11.634  14.729  65.792  0.00  0.00    +0.266 C 
ATOM      8  O   UNL     1     -12.187  14.182  64.460  0.00  0.00    -0.436 OA
ENDROOT
BRANCH   7   9
ATOM      9  C   UNL     1     -10.412  15.696  65.012  0.00  0.00    +0.232 C 
ATOM     10  O   UNL     1     -11.414  16.563  64.266  0.00  0.00    -0.216 OA
BRANCH   9  11
ATOM     11  C   UNL     1     -10.362  16.776  66.259  0.00  0.00    +0.219 C 
ATOM     12  O   UNL     1     -10.264  18.021  65.715  0.00  0.00    -0.217 OA
ENDBRANCH   9  11
ENDBRANCH   7   9
TORSDOF 2
ENDMDL
MODEL 4
REMARK VINA RESULT:      -5.0      3.954      5.762
REMARK  Name = 
REMARK  2 active torsions:
REMARK  status: ('A' for Active; 'I' for Inactive)
REMARK    1  A    between atoms: C_4  and  C_5
REMARK    2  A    between atoms: C_5  and  C_7
REMARK                            x       y       z     vdW  Elec       q    Type
REMARK                         _______ _______ _______ _____ _____    ______ ____
ROOT
ATOM      1  O   UNL     1      -9.451  17.308  65.781  0.00  0.00    -0.241 OA
ATOM      2  C   UNL     1     -10.099  16.429  65.951  0.00  0.00    +0.384 C 
ATOM      3  C   UNL     1     -10.606  15.965  67.249  0.00  0.00    +0.308 C 
ATOM      4  O   UNL     1     -10.546  16.588  68.500  0.00  0.00    -0.276 OA
ATOM      5  C   UNL     1     -11.276  14.841  67.115  0.00  0.00    +0.261 C 
ATOM      6  O   UNL     1     -11.880  14.000  68.009  0.00  0.00    -0.284 OA
ATOM      7  C   UNL     1     -10.945  14.339  65.614  0.00  0.00    +0.266 C 
ATOM      8  O   UNL     1     -10.954  15.786  65.080  0.00  0.00    -0.436 OA
ENDROOT
BRANCH   7   9
ATOM      9  C   UNL     1     -12.637  14.090  65.276  0.00  0.00    +0.232 C 
ATOM     10  O   UNL     1     -12.516  14.475  63.810  0.00  0.00    -0.216 OA
BRANCH   9  11
ATOM     11  C   UNL     1     -12.409  12.498  64.908  0.00  0.00    +0.219 C 
ATOM     12  O   UNL     1     -13.111  12.239  63.772  0.00  0.00    -0.217 OA
ENDBRANCH   9  11
ENDBRANCH   7   9
TORSDOF 2
ENDMDL
MODEL 5
REMARK VINA RESULT:      -5.0      4.640      6.169
REMARK  Name = 
REMARK  2 active torsions:
REMARK  status: ('A' for Active; 'I' for Inactive)
REMARK    1  A    between atoms: C_4  and  C_5
REMARK    2  A    between atoms: C_5  and  C_7
REMARK                            x       y       z     vdW  Elec       q    Type
REMARK                         _______ _______ _______ _____ _____    ______ ____
ROOT
ATOM      1  O   UNL     1      -9.143  17.012  65.667  0.00  0.00    -0.241 OA
ATOM      2  C   UNL     1      -9.820  16.147  65.795  0.00  0.00    +0.384 C 
ATOM      3  C   UNL     1     -11.046  15.887  65.031  0.00  0.00    +0.308 C 
ATOM      4  O   UNL     1     -11.538  16.535  63.893  0.00  0.00    -0.276 OA
ATOM      5  C   UNL     1     -11.667  14.822  65.491  0.00  0.00    +0.261 C 
ATOM      6  O   UNL     1     -12.849  14.215  65.165  0.00  0.00    -0.284 OA
ATOM      7  C   UNL     1     -10.938  14.494  66.897  0.00  0.00    +0.266 C 
ATOM      8  O   UNL     1      -9.563  14.902  66.331  0.00  0.00    -0.436 OA
ENDROOT
BRANCH   7   9
ATOM      9  C   UNL     1     -10.743  12.819  66.455  0.00  0.00    +0.232 C 
ATOM     10  O   UNL     1      -9.492  12.627  67.298  0.00  0.00    -0.216 OA
BRANCH   9  11
ATOM     11  C   UNL     1     -11.696  12.300  67.697  0.00  0.00    +0.219 C 
ATOM     12  O   UNL     1     -11.842  10.953  67.563  0.00  0.00    -0.217 OA
ENDBRANCH   9  11
ENDBRANCH   7   9
TORSDOF 2
ENDMDL
MODEL 6
REMARK VINA RESULT:      -4.9      4.962      6.383
REMARK  Name = 
REMARK  2 active torsions:
REMARK  status: ('A' for Active; 'I' for Inactive)
REMARK    1  A    between atoms: C_4  and  C_5
REMARK    2  A    between atoms: C_5  and  C_7
REMARK                            x       y       z     vdW  Elec       q    Type
REMARK                         _______ _______ _______ _____ _____    ______ ____
ROOT
ATOM      1  O   UNL     1     -11.359  12.349  65.608  0.00  0.00    -0.241 OA
ATOM      2  C   UNL     1     -11.120  13.428  65.578  0.00  0.00    +0.384 C 
ATOM      3  C   UNL     1     -11.681  14.415  64.647  0.00  0.00    +0.308 C 
ATOM      4  O   UNL     1     -12.733  14.277  63.735  0.00  0.00    -0.276 OA
ATOM      5  C   UNL     1     -11.121  15.593  64.820  0.00  0.00    +0.261 C 
ATOM      6  O   UNL     1     -11.254  16.794  64.180  0.00  0.00    -0.284 OA
ATOM      7  C   UNL     1      -9.845  15.308  65.771  0.00  0.00    +0.266 C 
ATOM      8  O   UNL     1     -10.622  14.244  66.573  0.00  0.00    -0.436 OA
ENDROOT
BRANCH   7   9
ATOM      9  C   UNL     1     -10.299  16.604  66.844  0.00  0.00    +0.232 C 
ATOM     10  O   UNL     1      -9.627  15.984  68.059  0.00  0.00    -0.216 OA
BRANCH   9  11
ATOM     11  C   UNL     1      -8.939  17.471  66.497  0.00  0.00    +0.219 C 
ATOM     12  O   UNL     1      -9.339  18.690  66.040  0.00  0.00    -0.217 OA
ENDBRANCH   9  11
ENDBRANCH   7   9
TORSDOF 2
ENDMDL
MODEL 7
REMARK VINA RESULT:      -4.9      4.622      5.515
REMARK  Name = 
REMARK  2 active torsions:
REMARK  status: ('A' for Active; 'I' for Inactive)
REMARK    1  A    between atoms: C_4  and  C_5
REMARK    2  A    between atoms: C_5  and  C_7
REMARK                            x       y       z     vdW  Elec       q    Type
REMARK                         _______ _______ _______ _____ _____    ______ ____
ROOT
ATOM      1  O   UNL     1     -12.148  11.207  68.050  0.00  0.00    -0.241 OA
ATOM      2  C   UNL     1     -11.685  12.047  67.501  0.00  0.00    +0.384 C 
ATOM      3  C   UNL     1     -10.265  12.422  67.526  0.00  0.00    +0.308 C 
ATOM      4  O   UNL     1      -9.177  11.738  68.078  0.00  0.00    -0.276 OA
ATOM      5  C   UNL     1     -10.059  13.522  66.835  0.00  0.00    +0.261 C 
ATOM      6  O   UNL     1      -8.949  14.288  66.607  0.00  0.00    -0.284 OA
ATOM      7  C   UNL     1     -11.536  14.114  66.549  0.00  0.00    +0.266 C 
ATOM      8  O   UNL     1     -12.118  12.697  66.363  0.00  0.00    -0.436 OA
ENDROOT
BRANCH   7   9
ATOM      9  C   UNL     1     -11.180  14.307  64.854  0.00  0.00    +0.232 C 
ATOM     10  O   UNL     1     -12.639  14.430  64.447  0.00  0.00    -0.216 OA
BRANCH   9  11
ATOM     11  C   UNL     1     -11.048  15.946  64.990  0.00  0.00    +0.219 C 
ATOM     12  O   UNL     1     -11.633  16.493  63.889  0.00  0.00    -0.217 OA
ENDBRANCH   9  11
ENDBRANCH   7   9
TORSDOF 2
ENDMDL
MODEL 8
REMARK VINA RESULT:      -4.9      4.327      6.413
REMARK  Name = 
REMARK  2 active torsions:
REMARK  status: ('A' for Active; 'I' for Inactive)
REMARK    1  A    between atoms: C_4  and  C_5
REMARK    2  A    between atoms: C_5  and  C_7
REMARK                            x       y       z     vdW  Elec       q    Type
REMARK                         _______ _______ _______ _____ _____    ______ ____
ROOT
ATOM      1  O   UNL     1     -12.900  12.206  63.367  0.00  0.00    -0.241 OA
ATOM      2  C   UNL     1     -12.436  12.595  64.292  0.00  0.00    +0.384 C 
ATOM      3  C   UNL     1     -12.190  14.007  64.610  0.00  0.00    +0.308 C 
ATOM      4  O   UNL     1     -12.621  15.157  63.939  0.00  0.00    -0.276 OA
ATOM      5  C   UNL     1     -11.542  14.124  65.749  0.00  0.00    +0.261 C 
ATOM      6  O   UNL     1     -11.042  15.197  66.434  0.00  0.00    -0.284 OA
ATOM      7  C   UNL     1     -11.044  12.626  66.097  0.00  0.00    +0.266 C 
ATOM      8  O   UNL     1     -12.346  12.015  65.540  0.00  0.00    -0.436 OA
ENDROOT
BRANCH   7   9
ATOM      9  C   UNL     1     -11.668  12.748  67.719  0.00  0.00    +0.232 C 
ATOM     10  O   UNL     1     -12.058  11.280  67.799  0.00  0.00    -0.216 OA
BRANCH   9  11
ATOM     11  C   UNL     1     -10.197  12.424  68.392  0.00  0.00    +0.219 C 
ATOM     12  O   UNL     1     -10.307  11.245  69.064  0.00  0.00    -0.217 OA
ENDBRANCH   9  11
ENDBRANCH   7   9
TORSDOF 2
ENDMDL
MODEL 9
REMARK VINA RESULT:      -4.9      5.052      6.378
REMARK  Name = 
REMARK  2 active torsions:
REMARK  status: ('A' for Active; 'I' for Inactive)
REMARK    1  A    between atoms: C_4  and  C_5
REMARK    2  A    between atoms: C_5  and  C_7
REMARK                            x       y       z     vdW  Elec       q    Type
REMARK                         _______ _______ _______ _____ _____    ______ ____
ROOT
ATOM      1  O   UNL     1      -8.904  16.353  68.248  0.00  0.00    -0.241 OA
ATOM      2  C   UNL     1      -9.499  16.055  67.364  0.00  0.00    +0.384 C 
ATOM      3  C   UNL     1      -9.884  16.926  66.247  0.00  0.00    +0.308 C 
ATOM      4  O   UNL     1      -9.467  18.228  65.951  0.00  0.00    -0.276 OA
ATOM      5  C   UNL     1     -10.665  16.287  65.402  0.00  0.00    +0.261 C 
ATOM      6  O   UNL     1     -11.318  16.666  64.263  0.00  0.00    -0.284 OA
ATOM      7  C   UNL     1     -11.086  14.930  66.175  0.00  0.00    +0.266 C 
ATOM      8  O   UNL     1      -9.686  14.805  66.812  0.00  0.00    -0.436 OA
ENDROOT
BRANCH   7   9
ATOM      9  C   UNL     1     -10.661  13.958  64.792  0.00  0.00    +0.232 C 
ATOM     10  O   UNL     1     -10.306  12.733  65.621  0.00  0.00    -0.216 OA
BRANCH   9  11
ATOM     11  C   UNL     1     -12.208  13.417  64.601  0.00  0.00    +0.219 C 
ATOM     12  O   UNL     1     -12.584  13.705  63.325  0.00  0.00    -0.217 OA
ENDBRANCH   9  11
ENDBRANCH   7   9
TORSDOF 2
ENDMDL
