MODEL 1
REMARK VINA RESULT:      -6.8      0.000      0.000
REMARK  Name = 
REMARK  18 active torsions:
REMARK  status: ('A' for Active; 'I' for Inactive)
REMARK    1  A    between atoms: C_2  and  C_3
REMARK    2  A    between atoms: C_3  and  C_4
REMARK    3  A    between atoms: C_4  and  C_5
REMARK    4  A    between atoms: C_10  and  N_11
REMARK    5  A    between atoms: N_11  and  S_12
REMARK    6  A    between atoms: C_18  and  C_19
REMARK    7  A    between atoms: C_19  and  C_21
REMARK    8  A    between atoms: C_24  and  O_25
REMARK    9  A    between atoms: O_25  and  C_26
REMARK   10  A    between atoms: C_26  and  C_27
REMARK   11  A    between atoms: C_27  and  C_28
REMARK   12  A    between atoms: C_28  and  N_29
REMARK   13  A    between atoms: N_29  and  C_30
REMARK   14  A    between atoms: N_29  and  C_34
REMARK   15  A    between atoms: C_30  and  C_31
REMARK   16  A    between atoms: C_31  and  C_32
REMARK   17  A    between atoms: C_34  and  C_35
REMARK   18  A    between atoms: C_35  and  C_36
REMARK                            x       y       z     vdW  Elec       q    Type
REMARK                         _______ _______ _______ _____ _____    ______ ____
ROOT
ATOM      1  C   UNL     1     -11.020  15.468  67.618  0.00  0.00    +0.198 C 
ATOM      2  O   UNL     1     -11.570  16.388  68.296  0.00  0.00    -0.286 OA
ENDROOT
BRANCH   1   4
ATOM      3  C   UNL     1     -11.913  13.200  66.820  0.00  0.00    +0.126 A 
ATOM      4  C   UNL     1     -11.542  14.117  67.794  0.00  0.00    +0.072 A 
ATOM      5  C   UNL     1     -11.630  13.489  69.032  0.00  0.00    +0.042 A 
ATOM      6  C   UNL     1     -11.844  12.154  68.710  0.00  0.00    +0.145 A 
ATOM      7  C   UNL     1     -12.087  11.304  69.779  0.00  0.00    +0.039 A 
ATOM      8  C   UNL     1     -12.552  11.787  70.989  0.00  0.00    +0.021 A 
ATOM      9  C   UNL     1     -12.594  13.154  71.236  0.00  0.00    +0.091 A 
ATOM     10  C   UNL     1     -11.913  13.940  70.316  0.00  0.00    +0.021 A 
ATOM     11  O   UNL     1     -12.044  12.046  67.423  0.00  0.00    -0.458 OA
BRANCH   3  12
ATOM     12  C   UNL     1     -12.424  13.601  65.471  0.00  0.00    +0.065 C 
BRANCH  12  13
ATOM     13  C   UNL     1     -11.209  13.603  64.552  0.00  0.00    +0.008 C 
BRANCH  13  15
ATOM     14  C   UNL     1     -12.462  11.898  63.352  0.00  0.00    +0.000 C 
ATOM     15  C   UNL     1     -11.088  12.229  63.905  0.00  0.00    +0.000 C 
ENDBRANCH  13  15
ENDBRANCH  12  13
ENDBRANCH   3  12
BRANCH   9  16
ATOM     16  N   UNL     1     -13.485  13.718  72.205  0.00  0.00    -0.101 NA
BRANCH  16  17
ATOM     17  S   UNL     1     -13.236  15.355  72.666  0.00  0.00    +0.075 S 
ATOM     18  O   UNL     1     -14.512  16.126  72.739  0.00  0.00    -0.153 OA
ATOM     19  O   UNL     1     -12.386  15.996  71.601  0.00  0.00    -0.153 OA
ATOM     20  C   UNL     1     -12.460  15.381  74.254  0.00  0.00    +0.202 C 
ENDBRANCH  16  17
ENDBRANCH   9  16
ENDBRANCH   1   4
BRANCH   1  21
ATOM     21  C   UNL     1      -9.573  15.585  67.402  0.00  0.00    +0.039 A 
ATOM     22  C   UNL     1      -9.170  16.188  66.217  0.00  0.00    +0.006 A 
ATOM     23  C   UNL     1      -7.899  16.731  66.105  0.00  0.00    +0.037 A 
ATOM     24  C   UNL     1      -6.997  16.588  67.152  0.00  0.00    +0.139 A 
ATOM     25  C   UNL     1      -7.513  16.313  68.396  0.00  0.00    +0.037 A 
ATOM     26  C   UNL     1      -8.824  15.877  68.536  0.00  0.00    +0.006 A 
BRANCH  24  27
ATOM     27  O   UNL     1      -5.634  16.585  66.872  0.00  0.00    -0.475 OA
BRANCH  27  28
ATOM     28  C   UNL     1      -4.754  17.051  67.892  0.00  0.00    +0.207 C 
BRANCH  28  29
ATOM     29  C   UNL     1      -4.869  18.565  67.999  0.00  0.00    +0.065 C 
BRANCH  29  30
ATOM     30  C   UNL     1      -4.766  19.126  66.603  0.00  0.00    +0.076 C 
BRANCH  30  31
ATOM     31  N   UNL     1      -5.698  20.191  66.345  0.00  0.00    -0.273 NA
BRANCH  31  32
ATOM     32  C   UNL     1      -6.475  19.967  65.134  0.00  0.00    +0.072 C 
BRANCH  32  33
ATOM     33  C   UNL     1      -5.724  19.081  64.170  0.00  0.00    +0.017 C 
BRANCH  33  34
ATOM     34  C   UNL     1      -5.469  19.745  62.844  0.00  0.00    +0.001 C 
ATOM     35  C   UNL     1      -6.075  21.121  62.873  0.00  0.00    +0.000 C 
ENDBRANCH  33  34
ENDBRANCH  32  33
ENDBRANCH  31  32
BRANCH  31  36
ATOM     36  C   UNL     1      -6.577  20.333  67.504  0.00  0.00    +0.072 C 
BRANCH  36  37
ATOM     37  C   UNL     1      -7.999  20.328  66.962  0.00  0.00    +0.017 C 
BRANCH  37  38
ATOM     38  C   UNL     1      -8.881  19.700  68.031  0.00  0.00    +0.001 C 
ATOM     39  C   UNL     1     -10.308  19.595  67.544  0.00  0.00    +0.000 C 
ENDBRANCH  37  38
ENDBRANCH  36  37
ENDBRANCH  31  36
ENDBRANCH  30  31
ENDBRANCH  29  30
ENDBRANCH  28  29
ENDBRANCH  27  28
ENDBRANCH  24  27
ENDBRANCH   1  21
TORSDOF 18
ENDMDL
MODEL 2
REMARK VINA RESULT:      -6.7      1.186      2.300
REMARK  Name = 
REMARK  18 active torsions:
REMARK  status: ('A' for Active; 'I' for Inactive)
REMARK    1  A    between atoms: C_2  and  C_3
REMARK    2  A    between atoms: C_3  and  C_4
REMARK    3  A    between atoms: C_4  and  C_5
REMARK    4  A    between atoms: C_10  and  N_11
REMARK    5  A    between atoms: N_11  and  S_12
REMARK    6  A    between atoms: C_18  and  C_19
REMARK    7  A    between atoms: C_19  and  C_21
REMARK    8  A    between atoms: C_24  and  O_25
REMARK    9  A    between atoms: O_25  and  C_26
REMARK   10  A    between atoms: C_26  and  C_27
REMARK   11  A    between atoms: C_27  and  C_28
REMARK   12  A    between atoms: C_28  and  N_29
REMARK   13  A    between atoms: N_29  and  C_30
REMARK   14  A    between atoms: N_29  and  C_34
REMARK   15  A    between atoms: C_30  and  C_31
REMARK   16  A    between atoms: C_31  and  C_32
REMARK   17  A    between atoms: C_34  and  C_35
REMARK   18  A    between atoms: C_35  and  C_36
REMARK                            x       y       z     vdW  Elec       q    Type
REMARK                         _______ _______ _______ _____ _____    ______ ____
ROOT
ATOM      1  C   UNL     1     -10.963  15.443  67.620  0.00  0.00    +0.198 C 
ATOM      2  O   UNL     1     -11.502  16.374  68.291  0.00  0.00    -0.286 OA
ENDROOT
BRANCH   1   4
ATOM      3  C   UNL     1     -11.885  13.186  66.822  0.00  0.00    +0.126 A 
ATOM      4  C   UNL     1     -11.509  14.102  67.796  0.00  0.00    +0.072 A 
ATOM      5  C   UNL     1     -11.620  13.480  69.036  0.00  0.00    +0.042 A 
ATOM      6  C   UNL     1     -11.853  12.148  68.718  0.00  0.00    +0.145 A 
ATOM      7  C   UNL     1     -12.122  11.306  69.787  0.00  0.00    +0.039 A 
ATOM      8  C   UNL     1     -12.591  11.803  70.990  0.00  0.00    +0.021 A 
ATOM      9  C   UNL     1     -12.613  13.172  71.231  0.00  0.00    +0.091 A 
ATOM     10  C   UNL     1     -11.909  13.942  70.315  0.00  0.00    +0.021 A 
ATOM     11  O   UNL     1     -12.042  12.038  67.428  0.00  0.00    -0.458 OA
BRANCH   3  12
ATOM     12  C   UNL     1     -12.375  13.590  65.467  0.00  0.00    +0.065 C 
BRANCH  12  13
ATOM     13  C   UNL     1     -11.211  13.345  64.515  0.00  0.00    +0.008 C 
BRANCH  13  15
ATOM     14  C   UNL     1     -10.659  11.113  63.720  0.00  0.00    +0.000 C 
ATOM     15  C   UNL     1     -11.619  12.271  63.514  0.00  0.00    +0.000 C 
ENDBRANCH  13  15
ENDBRANCH  12  13
ENDBRANCH   3  12
BRANCH   9  16
ATOM     16  N   UNL     1     -13.504  13.755  72.188  0.00  0.00    -0.101 NA
BRANCH  16  17
ATOM     17  S   UNL     1     -13.219  15.382  72.662  0.00  0.00    +0.075 S 
ATOM     18  O   UNL     1     -14.480  16.175  72.759  0.00  0.00    -0.153 OA
ATOM     19  O   UNL     1     -12.371  16.018  71.592  0.00  0.00    -0.153 OA
ATOM     20  C   UNL     1     -12.422  15.379  74.240  0.00  0.00    +0.202 C 
ENDBRANCH  16  17
ENDBRANCH   9  16
ENDBRANCH   1   4
BRANCH   1  21
ATOM     21  C   UNL     1      -9.512  15.534  67.414  0.00  0.00    +0.039 A 
ATOM     22  C   UNL     1      -9.090  16.090  66.213  0.00  0.00    +0.006 A 
ATOM     23  C   UNL     1      -7.811  16.613  66.094  0.00  0.00    +0.037 A 
ATOM     24  C   UNL     1      -6.922  16.497  67.154  0.00  0.00    +0.139 A 
ATOM     25  C   UNL     1      -7.453  16.272  68.402  0.00  0.00    +0.037 A 
ATOM     26  C   UNL     1      -8.771  15.858  68.544  0.00  0.00    +0.006 A 
BRANCH  24  27
ATOM     27  O   UNL     1      -5.556  16.467  66.889  0.00  0.00    -0.475 OA
BRANCH  27  28
ATOM     28  C   UNL     1      -5.024  17.502  66.067  0.00  0.00    +0.207 C 
BRANCH  28  29
ATOM     29  C   UNL     1      -4.456  18.603  66.953  0.00  0.00    +0.065 C 
BRANCH  29  30
ATOM     30  C   UNL     1      -5.290  19.840  66.727  0.00  0.00    +0.076 C 
BRANCH  30  31
ATOM     31  N   UNL     1      -5.786  20.425  67.944  0.00  0.00    -0.273 NA
BRANCH  31  32
ATOM     32  C   UNL     1      -7.191  20.796  67.848  0.00  0.00    +0.072 C 
BRANCH  32  33
ATOM     33  C   UNL     1      -7.858  20.085  66.696  0.00  0.00    +0.017 C 
BRANCH  33  34
ATOM     34  C   UNL     1      -9.317  19.814  66.944  0.00  0.00    +0.001 C 
ATOM     35  C   UNL     1      -9.504  19.492  68.401  0.00  0.00    +0.000 C 
ENDBRANCH  33  34
ENDBRANCH  32  33
ENDBRANCH  31  32
BRANCH  31  36
ATOM     36  C   UNL     1      -5.576  19.478  69.037  0.00  0.00    +0.072 C 
BRANCH  36  37
ATOM     37  C   UNL     1      -6.218  20.099  70.268  0.00  0.00    +0.017 C 
BRANCH  37  38
ATOM     38  C   UNL     1      -5.107  20.334  71.280  0.00  0.00    +0.001 C 
ATOM     39  C   UNL     1      -3.795  19.796  70.759  0.00  0.00    +0.000 C 
ENDBRANCH  37  38
ENDBRANCH  36  37
ENDBRANCH  31  36
ENDBRANCH  30  31
ENDBRANCH  29  30
ENDBRANCH  28  29
ENDBRANCH  27  28
ENDBRANCH  24  27
ENDBRANCH   1  21
TORSDOF 18
ENDMDL
MODEL 3
REMARK VINA RESULT:      -6.5      1.781      3.278
REMARK  Name = 
REMARK  18 active torsions:
REMARK  status: ('A' for Active; 'I' for Inactive)
REMARK    1  A    between atoms: C_2  and  C_3
REMARK    2  A    between atoms: C_3  and  C_4
REMARK    3  A    between atoms: C_4  and  C_5
REMARK    4  A    between atoms: C_10  and  N_11
REMARK    5  A    between atoms: N_11  and  S_12
REMARK    6  A    between atoms: C_18  and  C_19
REMARK    7  A    between atoms: C_19  and  C_21
REMARK    8  A    between atoms: C_24  and  O_25
REMARK    9  A    between atoms: O_25  and  C_26
REMARK   10  A    between atoms: C_26  and  C_27
REMARK   11  A    between atoms: C_27  and  C_28
REMARK   12  A    between atoms: C_28  and  N_29
REMARK   13  A    between atoms: N_29  and  C_30
REMARK   14  A    between atoms: N_29  and  C_34
REMARK   15  A    between atoms: C_30  and  C_31
REMARK   16  A    between atoms: C_31  and  C_32
REMARK   17  A    between atoms: C_34  and  C_35
REMARK   18  A    between atoms: C_35  and  C_36
REMARK                            x       y       z     vdW  Elec       q    Type
REMARK                         _______ _______ _______ _____ _____    ______ ____
ROOT
ATOM      1  C   UNL     1      -9.729  13.616  67.874  0.00  0.00    +0.198 C 
ATOM      2  O   UNL     1      -8.787  13.294  67.088  0.00  0.00    -0.286 OA
ENDROOT
BRANCH   1   4
ATOM      3  C   UNL     1     -11.128  11.523  67.388  0.00  0.00    +0.126 A 
ATOM      4  C   UNL     1     -10.713  12.584  68.181  0.00  0.00    +0.072 A 
ATOM      5  C   UNL     1     -11.314  12.450  69.428  0.00  0.00    +0.042 A 
ATOM      6  C   UNL     1     -11.893  11.188  69.382  0.00  0.00    +0.145 A 
ATOM      7  C   UNL     1     -12.671  10.836  70.475  0.00  0.00    +0.039 A 
ATOM      8  C   UNL     1     -13.221  11.798  71.303  0.00  0.00    +0.021 A 
ATOM      9  C   UNL     1     -12.845  13.131  71.187  0.00  0.00    +0.091 A 
ATOM     10  C   UNL     1     -11.729  13.361  70.393  0.00  0.00    +0.021 A 
ATOM     11  O   UNL     1     -11.795  10.711  68.168  0.00  0.00    -0.458 OA
BRANCH   3  12
ATOM     12  C   UNL     1     -11.120  11.567  65.892  0.00  0.00    +0.065 C 
BRANCH  12  13
ATOM     13  C   UNL     1     -12.216  12.551  65.501  0.00  0.00    +0.008 C 
BRANCH  13  15
ATOM     14  C   UNL     1     -10.776  12.223  63.569  0.00  0.00    +0.000 C 
ATOM     15  C   UNL     1     -11.941  13.047  64.088  0.00  0.00    +0.000 C 
ENDBRANCH  13  15
ENDBRANCH  12  13
ENDBRANCH   3  12
BRANCH   9  16
ATOM     16  N   UNL     1     -13.694  14.195  71.632  0.00  0.00    -0.101 NA
BRANCH  16  17
ATOM     17  S   UNL     1     -13.038  15.334  72.740  0.00  0.00    +0.075 S 
ATOM     18  O   UNL     1     -12.484  14.683  73.963  0.00  0.00    -0.153 OA
ATOM     19  O   UNL     1     -14.164  16.231  73.181  0.00  0.00    -0.153 OA
ATOM     20  C   UNL     1     -11.743  16.226  71.931  0.00  0.00    +0.202 C 
ENDBRANCH  16  17
ENDBRANCH   9  16
ENDBRANCH   1   4
BRANCH   1  21
ATOM     21  C   UNL     1     -10.236  14.990  67.766  0.00  0.00    +0.039 A 
ATOM     22  C   UNL     1      -9.870  15.868  68.779  0.00  0.00    +0.006 A 
ATOM     23  C   UNL     1      -9.916  17.237  68.569  0.00  0.00    +0.037 A 
ATOM     24  C   UNL     1     -10.417  17.731  67.372  0.00  0.00    +0.139 A 
ATOM     25  C   UNL     1     -10.438  16.876  66.296  0.00  0.00    +0.037 A 
ATOM     26  C   UNL     1     -10.278  15.509  66.478  0.00  0.00    +0.006 A 
BRANCH  24  27
ATOM     27  O   UNL     1     -10.999  18.995  67.354  0.00  0.00    -0.475 OA
BRANCH  27  28
ATOM     28  C   UNL     1     -10.172  20.103  67.700  0.00  0.00    +0.207 C 
BRANCH  28  29
ATOM     29  C   UNL     1      -9.057  20.237  66.672  0.00  0.00    +0.065 C 
BRANCH  29  30
ATOM     30  C   UNL     1      -7.766  20.432  67.429  0.00  0.00    +0.076 C 
BRANCH  30  31
ATOM     31  N   UNL     1      -6.985  19.230  67.544  0.00  0.00    -0.273 NA
BRANCH  31  32
ATOM     32  C   UNL     1      -6.594  18.697  66.246  0.00  0.00    +0.072 C 
BRANCH  32  33
ATOM     33  C   UNL     1      -5.877  17.378  66.399  0.00  0.00    +0.017 C 
BRANCH  33  34
ATOM     34  C   UNL     1      -6.769  16.286  66.923  0.00  0.00    +0.001 C 
ATOM     35  C   UNL     1      -6.060  15.587  68.050  0.00  0.00    +0.000 C 
ENDBRANCH  33  34
ENDBRANCH  32  33
ENDBRANCH  31  32
BRANCH  31  36
ATOM     36  C   UNL     1      -5.808  19.513  68.361  0.00  0.00    +0.072 C 
BRANCH  36  37
ATOM     37  C   UNL     1      -6.220  19.259  69.803  0.00  0.00    +0.017 C 
BRANCH  37  38
ATOM     38  C   UNL     1      -4.962  18.869  70.564  0.00  0.00    +0.001 C 
ATOM     39  C   UNL     1      -4.330  20.085  71.201  0.00  0.00    +0.000 C 
ENDBRANCH  37  38
ENDBRANCH  36  37
ENDBRANCH  31  36
ENDBRANCH  30  31
ENDBRANCH  29  30
ENDBRANCH  28  29
ENDBRANCH  27  28
ENDBRANCH  24  27
ENDBRANCH   1  21
TORSDOF 18
ENDMDL
MODEL 4
REMARK VINA RESULT:      -6.4      3.690      9.700
REMARK  Name = 
REMARK  18 active torsions:
REMARK  status: ('A' for Active; 'I' for Inactive)
REMARK    1  A    between atoms: C_2  and  C_3
REMARK    2  A    between atoms: C_3  and  C_4
REMARK    3  A    between atoms: C_4  and  C_5
REMARK    4  A    between atoms: C_10  and  N_11
REMARK    5  A    between atoms: N_11  and  S_12
REMARK    6  A    between atoms: C_18  and  C_19
REMARK    7  A    between atoms: C_19  and  C_21
REMARK    8  A    between atoms: C_24  and  O_25
REMARK    9  A    between atoms: O_25  and  C_26
REMARK   10  A    between atoms: C_26  and  C_27
REMARK   11  A    between atoms: C_27  and  C_28
REMARK   12  A    between atoms: C_28  and  N_29
REMARK   13  A    between atoms: N_29  and  C_30
REMARK   14  A    between atoms: N_29  and  C_34
REMARK   15  A    between atoms: C_30  and  C_31
REMARK   16  A    between atoms: C_31  and  C_32
REMARK   17  A    between atoms: C_34  and  C_35
REMARK   18  A    between atoms: C_35  and  C_36
REMARK                            x       y       z     vdW  Elec       q    Type
REMARK                         _______ _______ _______ _____ _____    ______ ____
ROOT
ATOM      1  C   UNL     1     -12.032  13.513  67.453  0.00  0.00    +0.198 C 
ATOM      2  O   UNL     1     -12.476  14.134  66.441  0.00  0.00    -0.286 OA
ENDROOT
BRANCH   1   4
ATOM      3  C   UNL     1     -11.165  14.307  69.733  0.00  0.00    +0.126 A 
ATOM      4  C   UNL     1     -11.147  14.254  68.345  0.00  0.00    +0.072 A 
ATOM      5  C   UNL     1     -10.027  14.951  67.903  0.00  0.00    +0.042 A 
ATOM      6  C   UNL     1      -9.314  15.203  69.069  0.00  0.00    +0.145 A 
ATOM      7  C   UNL     1      -8.187  16.001  68.930  0.00  0.00    +0.039 A 
ATOM      8  C   UNL     1      -8.044  16.859  67.854  0.00  0.00    +0.021 A 
ATOM      9  C   UNL     1      -8.922  16.799  66.779  0.00  0.00    +0.091 A 
ATOM     10  C   UNL     1      -9.748  15.683  66.755  0.00  0.00    +0.021 A 
ATOM     11  O   UNL     1     -10.034  14.851  70.102  0.00  0.00    -0.458 OA
BRANCH   3  12
ATOM     12  C   UNL     1     -12.412  14.131  70.542  0.00  0.00    +0.065 C 
BRANCH  12  13
ATOM     13  C   UNL     1     -12.906  15.539  70.853  0.00  0.00    +0.008 C 
BRANCH  13  15
ATOM     14  C   UNL     1     -14.179  13.974  72.211  0.00  0.00    +0.000 C 
ATOM     15  C   UNL     1     -14.070  15.440  71.831  0.00  0.00    +0.000 C 
ENDBRANCH  13  15
ENDBRANCH  12  13
ENDBRANCH   3  12
BRANCH   9  16
ATOM     16  N   UNL     1      -9.137  17.922  65.917  0.00  0.00    -0.101 NA
BRANCH  16  17
ATOM     17  S   UNL     1      -9.987  19.272  66.557  0.00  0.00    +0.075 S 
ATOM     18  O   UNL     1     -11.029  18.871  67.548  0.00  0.00    -0.153 OA
ATOM     19  O   UNL     1     -10.697  19.940  65.409  0.00  0.00    -0.153 OA
ATOM     20  C   UNL     1      -8.827  20.345  67.349  0.00  0.00    +0.202 C 
ENDBRANCH  16  17
ENDBRANCH   9  16
ENDBRANCH   1   4
BRANCH   1  21
ATOM     21  C   UNL     1     -11.729  12.088  67.270  0.00  0.00    +0.039 A 
ATOM     22  C   UNL     1     -10.831  11.770  66.258  0.00  0.00    +0.006 A 
ATOM     23  C   UNL     1     -10.157  10.559  66.276  0.00  0.00    +0.037 A 
ATOM     24  C   UNL     1     -10.450   9.624  67.260  0.00  0.00    +0.139 A 
ATOM     25  C   UNL     1     -11.055  10.084  68.406  0.00  0.00    +0.037 A 
ATOM     26  C   UNL     1     -11.636  11.345  68.441  0.00  0.00    +0.006 A 
BRANCH  24  27
ATOM     27  O   UNL     1     -10.257   8.274  66.988  0.00  0.00    -0.475 OA
BRANCH  27  28
ATOM     28  C   UNL     1      -9.929   7.424  68.083  0.00  0.00    +0.207 C 
BRANCH  28  29
ATOM     29  C   UNL     1     -11.003   6.354  68.227  0.00  0.00    +0.065 C 
BRANCH  29  30
ATOM     30  C   UNL     1     -10.880   5.773  69.614  0.00  0.00    +0.076 C 
BRANCH  30  31
ATOM     31  N   UNL     1     -10.953   6.763  70.656  0.00  0.00    -0.273 NA
BRANCH  31  32
ATOM     32  C   UNL     1     -12.249   6.773  71.320  0.00  0.00    +0.072 C 
BRANCH  32  33
ATOM     33  C   UNL     1     -12.934   8.106  71.141  0.00  0.00    +0.017 C 
BRANCH  33  34
ATOM     34  C   UNL     1     -12.185   9.239  71.786  0.00  0.00    +0.001 C 
ATOM     35  C   UNL     1     -13.053  10.467  71.756  0.00  0.00    +0.000 C 
ENDBRANCH  33  34
ENDBRANCH  32  33
ENDBRANCH  31  32
BRANCH  31  36
ATOM     36  C   UNL     1      -9.882   6.510  71.616  0.00  0.00    +0.072 C 
BRANCH  36  37
ATOM     37  C   UNL     1     -10.537   5.847  72.819  0.00  0.00    +0.017 C 
BRANCH  37  38
ATOM     38  C   UNL     1      -9.951   6.500  74.062  0.00  0.00    +0.001 C 
ATOM     39  C   UNL     1      -9.164   7.735  73.689  0.00  0.00    +0.000 C 
ENDBRANCH  37  38
ENDBRANCH  36  37
ENDBRANCH  31  36
ENDBRANCH  30  31
ENDBRANCH  29  30
ENDBRANCH  28  29
ENDBRANCH  27  28
ENDBRANCH  24  27
ENDBRANCH   1  21
TORSDOF 18
ENDMDL
MODEL 5
REMARK VINA RESULT:      -6.4      0.947      2.423
REMARK  Name = 
REMARK  18 active torsions:
REMARK  status: ('A' for Active; 'I' for Inactive)
REMARK    1  A    between atoms: C_2  and  C_3
REMARK    2  A    between atoms: C_3  and  C_4
REMARK    3  A    between atoms: C_4  and  C_5
REMARK    4  A    between atoms: C_10  and  N_11
REMARK    5  A    between atoms: N_11  and  S_12
REMARK    6  A    between atoms: C_18  and  C_19
REMARK    7  A    between atoms: C_19  and  C_21
REMARK    8  A    between atoms: C_24  and  O_25
REMARK    9  A    between atoms: O_25  and  C_26
REMARK   10  A    between atoms: C_26  and  C_27
REMARK   11  A    between atoms: C_27  and  C_28
REMARK   12  A    between atoms: C_28  and  N_29
REMARK   13  A    between atoms: N_29  and  C_30
REMARK   14  A    between atoms: N_29  and  C_34
REMARK   15  A    between atoms: C_30  and  C_31
REMARK   16  A    between atoms: C_31  and  C_32
REMARK   17  A    between atoms: C_34  and  C_35
REMARK   18  A    between atoms: C_35  and  C_36
REMARK                            x       y       z     vdW  Elec       q    Type
REMARK                         _______ _______ _______ _____ _____    ______ ____
ROOT
ATOM      1  C   UNL     1     -10.764  14.627  67.640  0.00  0.00    +0.198 C 
ATOM      2  O   UNL     1     -11.433  15.671  67.904  0.00  0.00    -0.286 OA
ENDROOT
BRANCH   1   4
ATOM      3  C   UNL     1     -11.622  12.243  67.240  0.00  0.00    +0.126 A 
ATOM      4  C   UNL     1     -11.352  13.351  68.033  0.00  0.00    +0.072 A 
ATOM      5  C   UNL     1     -11.626  13.012  69.354  0.00  0.00    +0.042 A 
ATOM      6  C   UNL     1     -11.843  11.640  69.304  0.00  0.00    +0.145 A 
ATOM      7  C   UNL     1     -12.257  11.048  70.488  0.00  0.00    +0.039 A 
ATOM      8  C   UNL     1     -12.862  11.789  71.488  0.00  0.00    +0.021 A 
ATOM      9  C   UNL     1     -12.888  13.177  71.423  0.00  0.00    +0.091 A 
ATOM     10  C   UNL     1     -12.062  13.737  70.457  0.00  0.00    +0.021 A 
ATOM     11  O   UNL     1     -11.873  11.252  68.056  0.00  0.00    -0.458 OA
BRANCH   3  12
ATOM     12  C   UNL     1     -11.934  12.339  65.779  0.00  0.00    +0.065 C 
BRANCH  12  13
ATOM     13  C   UNL     1     -10.789  11.632  65.064  0.00  0.00    +0.008 C 
BRANCH  13  15
ATOM     14  C   UNL     1     -12.154  12.746  63.388  0.00  0.00    +0.000 C 
ATOM     15  C   UNL     1     -10.872  11.955  63.578  0.00  0.00    +0.000 C 
ENDBRANCH  13  15
ENDBRANCH  12  13
ENDBRANCH   3  12
BRANCH   9  16
ATOM     16  N   UNL     1     -13.879  13.946  72.113  0.00  0.00    -0.101 NA
BRANCH  16  17
ATOM     17  S   UNL     1     -13.446  15.521  72.645  0.00  0.00    +0.075 S 
ATOM     18  O   UNL     1     -14.637  16.358  72.975  0.00  0.00    -0.153 OA
ATOM     19  O   UNL     1     -12.726  16.197  71.507  0.00  0.00    -0.153 OA
ATOM     20  C   UNL     1     -12.434  15.371  74.087  0.00  0.00    +0.202 C 
ENDBRANCH  16  17
ENDBRANCH   9  16
ENDBRANCH   1   4
BRANCH   1  21
ATOM     21  C   UNL     1      -9.304  14.734  67.753  0.00  0.00    +0.039 A 
ATOM     22  C   UNL     1      -8.631  15.232  66.643  0.00  0.00    +0.006 A 
ATOM     23  C   UNL     1      -7.361  15.770  66.779  0.00  0.00    +0.037 A 
ATOM     24  C   UNL     1      -6.726  15.729  68.012  0.00  0.00    +0.139 A 
ATOM     25  C   UNL     1      -7.517  15.563  69.125  0.00  0.00    +0.037 A 
ATOM     26  C   UNL     1      -8.831  15.132  68.997  0.00  0.00    +0.006 A 
BRANCH  24  27
ATOM     27  O   UNL     1      -5.335  15.710  68.055  0.00  0.00    -0.475 OA
BRANCH  27  28
ATOM     28  C   UNL     1      -4.648  16.857  67.564  0.00  0.00    +0.207 C 
BRANCH  28  29
ATOM     29  C   UNL     1      -4.685  17.954  68.620  0.00  0.00    +0.065 C 
BRANCH  29  30
ATOM     30  C   UNL     1      -4.799  19.273  67.897  0.00  0.00    +0.076 C 
BRANCH  30  31
ATOM     31  N   UNL     1      -6.107  19.513  67.349  0.00  0.00    -0.273 NA
BRANCH  31  32
ATOM     32  C   UNL     1      -7.032  20.052  68.337  0.00  0.00    +0.072 C 
BRANCH  32  33
ATOM     33  C   UNL     1      -8.150  19.077  68.616  0.00  0.00    +0.017 C 
BRANCH  33  34
ATOM     34  C   UNL     1      -9.076  18.900  67.444  0.00  0.00    +0.001 C 
ATOM     35  C   UNL     1     -10.256  19.815  67.623  0.00  0.00    +0.000 C 
ENDBRANCH  33  34
ENDBRANCH  32  33
ENDBRANCH  31  32
BRANCH  31  36
ATOM     36  C   UNL     1      -5.978  20.421  66.212  0.00  0.00    +0.072 C 
BRANCH  36  37
ATOM     37  C   UNL     1      -6.275  19.594  64.971  0.00  0.00    +0.017 C 
BRANCH  37  38
ATOM     38  C   UNL     1      -5.407  20.145  63.850  0.00  0.00    +0.001 C 
ATOM     39  C   UNL     1      -5.302  19.145  62.721  0.00  0.00    +0.000 C 
ENDBRANCH  37  38
ENDBRANCH  36  37
ENDBRANCH  31  36
ENDBRANCH  30  31
ENDBRANCH  29  30
ENDBRANCH  28  29
ENDBRANCH  27  28
ENDBRANCH  24  27
ENDBRANCH   1  21
TORSDOF 18
ENDMDL
MODEL 6
REMARK VINA RESULT:      -6.4      1.550      2.694
REMARK  Name = 
REMARK  18 active torsions:
REMARK  status: ('A' for Active; 'I' for Inactive)
REMARK    1  A    between atoms: C_2  and  C_3
REMARK    2  A    between atoms: C_3  and  C_4
REMARK    3  A    between atoms: C_4  and  C_5
REMARK    4  A    between atoms: C_10  and  N_11
REMARK    5  A    between atoms: N_11  and  S_12
REMARK    6  A    between atoms: C_18  and  C_19
REMARK    7  A    between atoms: C_19  and  C_21
REMARK    8  A    between atoms: C_24  and  O_25
REMARK    9  A    between atoms: O_25  and  C_26
REMARK   10  A    between atoms: C_26  and  C_27
REMARK   11  A    between atoms: C_27  and  C_28
REMARK   12  A    between atoms: C_28  and  N_29
REMARK   13  A    between atoms: N_29  and  C_30
REMARK   14  A    between atoms: N_29  and  C_34
REMARK   15  A    between atoms: C_30  and  C_31
REMARK   16  A    between atoms: C_31  and  C_32
REMARK   17  A    between atoms: C_34  and  C_35
REMARK   18  A    between atoms: C_35  and  C_36
REMARK                            x       y       z     vdW  Elec       q    Type
REMARK                         _______ _______ _______ _____ _____    ______ ____
ROOT
ATOM      1  C   UNL     1     -11.050  15.761  67.650  0.00  0.00    +0.198 C 
ATOM      2  O   UNL     1     -11.747  16.664  68.204  0.00  0.00    -0.286 OA
ENDROOT
BRANCH   1   4
ATOM      3  C   UNL     1     -11.856  13.481  66.795  0.00  0.00    +0.126 A 
ATOM      4  C   UNL     1     -11.519  14.387  67.792  0.00  0.00    +0.072 A 
ATOM      5  C   UNL     1     -11.580  13.724  69.013  0.00  0.00    +0.042 A 
ATOM      6  C   UNL     1     -11.743  12.391  68.658  0.00  0.00    +0.145 A 
ATOM      7  C   UNL     1     -11.952  11.505  69.705  0.00  0.00    +0.039 A 
ATOM      8  C   UNL     1     -12.433  11.939  70.927  0.00  0.00    +0.021 A 
ATOM      9  C   UNL     1     -12.527  13.297  71.209  0.00  0.00    +0.091 A 
ATOM     10  C   UNL     1     -11.878  14.132  70.309  0.00  0.00    +0.021 A 
ATOM     11  O   UNL     1     -11.941  12.308  67.368  0.00  0.00    -0.458 OA
BRANCH   3  12
ATOM     12  C   UNL     1     -12.385  13.896  65.458  0.00  0.00    +0.065 C 
BRANCH  12  13
ATOM     13  C   UNL     1     -12.661  12.602  64.702  0.00  0.00    +0.008 C 
BRANCH  13  15
ATOM     14  C   UNL     1     -10.737  11.565  63.634  0.00  0.00    +0.000 C 
ATOM     15  C   UNL     1     -11.830  12.599  63.425  0.00  0.00    +0.000 C 
ENDBRANCH  13  15
ENDBRANCH  12  13
ENDBRANCH   3  12
BRANCH   9  16
ATOM     16  N   UNL     1     -13.437  13.801  72.193  0.00  0.00    -0.101 NA
BRANCH  16  17
ATOM     17  S   UNL     1     -13.222  15.419  72.729  0.00  0.00    +0.075 S 
ATOM     18  O   UNL     1     -14.511  16.168  72.808  0.00  0.00    -0.153 OA
ATOM     19  O   UNL     1     -12.360  16.119  71.711  0.00  0.00    -0.153 OA
ATOM     20  C   UNL     1     -12.479  15.388  74.333  0.00  0.00    +0.202 C 
ENDBRANCH  16  17
ENDBRANCH   9  16
ENDBRANCH   1   4
BRANCH   1  21
ATOM     21  C   UNL     1      -9.595  15.957  67.653  0.00  0.00    +0.039 A 
ATOM     22  C   UNL     1      -8.838  14.971  68.274  0.00  0.00    +0.006 A 
ATOM     23  C   UNL     1      -7.494  14.825  67.969  0.00  0.00    +0.037 A 
ATOM     24  C   UNL     1      -6.883  15.727  67.108  0.00  0.00    +0.139 A 
ATOM     25  C   UNL     1      -7.698  16.446  66.266  0.00  0.00    +0.037 A 
ATOM     26  C   UNL     1      -9.067  16.508  66.492  0.00  0.00    +0.006 A 
BRANCH  24  27
ATOM     27  O   UNL     1      -5.518  15.965  67.236  0.00  0.00    -0.475 OA
BRANCH  27  28
ATOM     28  C   UNL     1      -5.100  16.841  68.280  0.00  0.00    +0.207 C 
BRANCH  28  29
ATOM     29  C   UNL     1      -4.515  18.106  67.668  0.00  0.00    +0.065 C 
BRANCH  29  30
ATOM     30  C   UNL     1      -5.570  19.181  67.759  0.00  0.00    +0.076 C 
BRANCH  30  31
ATOM     31  N   UNL     1      -6.295  19.165  69.002  0.00  0.00    -0.273 NA
BRANCH  31  32
ATOM     32  C   UNL     1      -5.884  20.238  69.897  0.00  0.00    +0.072 C 
BRANCH  32  33
ATOM     33  C   UNL     1      -5.343  19.682  71.191  0.00  0.00    +0.017 C 
BRANCH  33  34
ATOM     34  C   UNL     1      -4.344  20.595  71.847  0.00  0.00    +0.001 C 
ATOM     35  C   UNL     1      -3.029  20.460  71.130  0.00  0.00    +0.000 C 
ENDBRANCH  33  34
ENDBRANCH  32  33
ENDBRANCH  31  32
BRANCH  31  36
ATOM     36  C   UNL     1      -7.724  19.253  68.710  0.00  0.00    +0.072 C 
BRANCH  36  37
ATOM     37  C   UNL     1      -7.839  19.910  67.343  0.00  0.00    +0.017 C 
BRANCH  37  38
ATOM     38  C   UNL     1      -9.271  20.406  67.207  0.00  0.00    +0.001 C 
ATOM     39  C   UNL     1     -10.176  19.680  68.175  0.00  0.00    +0.000 C 
ENDBRANCH  37  38
ENDBRANCH  36  37
ENDBRANCH  31  36
ENDBRANCH  30  31
ENDBRANCH  29  30
ENDBRANCH  28  29
ENDBRANCH  27  28
ENDBRANCH  24  27
ENDBRANCH   1  21
TORSDOF 18
ENDMDL
MODEL 7
REMARK VINA RESULT:      -6.4      3.991      8.132
REMARK  Name = 
REMARK  18 active torsions:
REMARK  status: ('A' for Active; 'I' for Inactive)
REMARK    1  A    between atoms: C_2  and  C_3
REMARK    2  A    between atoms: C_3  and  C_4
REMARK    3  A    between atoms: C_4  and  C_5
REMARK    4  A    between atoms: C_10  and  N_11
REMARK    5  A    between atoms: N_11  and  S_12
REMARK    6  A    between atoms: C_18  and  C_19
REMARK    7  A    between atoms: C_19  and  C_21
REMARK    8  A    between atoms: C_24  and  O_25
REMARK    9  A    between atoms: O_25  and  C_26
REMARK   10  A    between atoms: C_26  and  C_27
REMARK   11  A    between atoms: C_27  and  C_28
REMARK   12  A    between atoms: C_28  and  N_29
REMARK   13  A    between atoms: N_29  and  C_30
REMARK   14  A    between atoms: N_29  and  C_34
REMARK   15  A    between atoms: C_30  and  C_31
REMARK   16  A    between atoms: C_31  and  C_32
REMARK   17  A    between atoms: C_34  and  C_35
REMARK   18  A    between atoms: C_35  and  C_36
REMARK                            x       y       z     vdW  Elec       q    Type
REMARK                         _______ _______ _______ _____ _____    ______ ____
ROOT
ATOM      1  C   UNL     1      -8.921  11.271  66.390  0.00  0.00    +0.198 C 
ATOM      2  O   UNL     1      -7.807  11.817  66.653  0.00  0.00    -0.286 OA
ENDROOT
BRANCH   1   4
ATOM      3  C   UNL     1     -10.341  11.441  64.262  0.00  0.00    +0.126 A 
ATOM      4  C   UNL     1      -9.776  11.951  65.423  0.00  0.00    +0.072 A 
ATOM      5  C   UNL     1     -10.264  13.240  65.609  0.00  0.00    +0.042 A 
ATOM      6  C   UNL     1     -11.268  13.353  64.656  0.00  0.00    +0.145 A 
ATOM      7  C   UNL     1     -11.858  14.604  64.541  0.00  0.00    +0.039 A 
ATOM      8  C   UNL     1     -11.206  15.746  64.971  0.00  0.00    +0.021 A 
ATOM      9  C   UNL     1     -10.035  15.656  65.714  0.00  0.00    +0.091 A 
ATOM     10  C   UNL     1      -9.738  14.386  66.193  0.00  0.00    +0.021 A 
ATOM     11  O   UNL     1     -11.244  12.305  63.874  0.00  0.00    -0.458 OA
BRANCH   3  12
ATOM     12  C   UNL     1      -9.720  10.335  63.466  0.00  0.00    +0.065 C 
BRANCH  12  13
ATOM     13  C   UNL     1      -8.891  11.018  62.385  0.00  0.00    +0.008 C 
BRANCH  13  15
ATOM     14  C   UNL     1      -7.329   9.153  62.411  0.00  0.00    +0.000 C 
ATOM     15  C   UNL     1      -8.259   9.945  61.508  0.00  0.00    +0.000 C 
ENDBRANCH  13  15
ENDBRANCH  12  13
ENDBRANCH   3  12
BRANCH   9  16
ATOM     16  N   UNL     1      -9.084  16.726  65.756  0.00  0.00    -0.101 NA
BRANCH  16  17
ATOM     17  S   UNL     1      -9.580  18.212  66.462  0.00  0.00    +0.075 S 
ATOM     18  O   UNL     1     -10.520  18.972  65.586  0.00  0.00    -0.153 OA
ATOM     19  O   UNL     1      -8.347  19.059  66.636  0.00  0.00    -0.153 OA
ATOM     20  C   UNL     1     -10.383  17.866  67.998  0.00  0.00    +0.202 C 
ENDBRANCH  16  17
ENDBRANCH   9  16
ENDBRANCH   1   4
BRANCH   1  21
ATOM     21  C   UNL     1      -9.603  10.598  67.503  0.00  0.00    +0.039 A 
ATOM     22  C   UNL     1     -10.259   9.411  67.200  0.00  0.00    +0.006 A 
ATOM     23  C   UNL     1     -10.550   8.497  68.201  0.00  0.00    +0.037 A 
ATOM     24  C   UNL     1     -10.263   8.813  69.523  0.00  0.00    +0.139 A 
ATOM     25  C   UNL     1      -9.330   9.796  69.749  0.00  0.00    +0.037 A 
ATOM     26  C   UNL     1      -8.941  10.649  68.724  0.00  0.00    +0.006 A 
BRANCH  24  27
ATOM     27  O   UNL     1     -11.024   8.235  70.535  0.00  0.00    -0.475 OA
BRANCH  27  28
ATOM     28  C   UNL     1     -11.591   9.108  71.508  0.00  0.00    +0.207 C 
BRANCH  28  29
ATOM     29  C   UNL     1     -12.759   9.862  70.886  0.00  0.00    +0.065 C 
BRANCH  29  30
ATOM     30  C   UNL     1     -13.128  10.980  71.829  0.00  0.00    +0.076 C 
BRANCH  30  31
ATOM     31  N   UNL     1     -13.060  12.283  71.223  0.00  0.00    -0.273 NA
BRANCH  31  32
ATOM     32  C   UNL     1     -13.163  13.356  72.204  0.00  0.00    +0.072 C 
BRANCH  32  33
ATOM     33  C   UNL     1     -14.357  14.233  71.919  0.00  0.00    +0.017 C 
BRANCH  33  34
ATOM     34  C   UNL     1     -14.155  15.656  72.361  0.00  0.00    +0.001 C 
ATOM     35  C   UNL     1     -12.797  15.772  72.998  0.00  0.00    +0.000 C 
ENDBRANCH  33  34
ENDBRANCH  32  33
ENDBRANCH  31  32
BRANCH  31  36
ATOM     36  C   UNL     1     -11.810  12.386  70.474  0.00  0.00    +0.072 C 
BRANCH  36  37
ATOM     37  C   UNL     1     -12.195  12.781  69.056  0.00  0.00    +0.017 C 
BRANCH  37  38
ATOM     38  C   UNL     1     -11.981  14.283  68.939  0.00  0.00    +0.001 C 
ATOM     39  C   UNL     1     -10.787  14.712  69.761  0.00  0.00    +0.000 C 
ENDBRANCH  37  38
ENDBRANCH  36  37
ENDBRANCH  31  36
ENDBRANCH  30  31
ENDBRANCH  29  30
ENDBRANCH  28  29
ENDBRANCH  27  28
ENDBRANCH  24  27
ENDBRANCH   1  21
TORSDOF 18
ENDMDL
MODEL 8
REMARK VINA RESULT:      -6.4      3.307      5.524
REMARK  Name = 
REMARK  18 active torsions:
REMARK  status: ('A' for Active; 'I' for Inactive)
REMARK    1  A    between atoms: C_2  and  C_3
REMARK    2  A    between atoms: C_3  and  C_4
REMARK    3  A    between atoms: C_4  and  C_5
REMARK    4  A    between atoms: C_10  and  N_11
REMARK    5  A    between atoms: N_11  and  S_12
REMARK    6  A    between atoms: C_18  and  C_19
REMARK    7  A    between atoms: C_19  and  C_21
REMARK    8  A    between atoms: C_24  and  O_25
REMARK    9  A    between atoms: O_25  and  C_26
REMARK   10  A    between atoms: C_26  and  C_27
REMARK   11  A    between atoms: C_27  and  C_28
REMARK   12  A    between atoms: C_28  and  N_29
REMARK   13  A    between atoms: N_29  and  C_30
REMARK   14  A    between atoms: N_29  and  C_34
REMARK   15  A    between atoms: C_30  and  C_31
REMARK   16  A    between atoms: C_31  and  C_32
REMARK   17  A    between atoms: C_34  and  C_35
REMARK   18  A    between atoms: C_35  and  C_36
REMARK                            x       y       z     vdW  Elec       q    Type
REMARK                         _______ _______ _______ _____ _____    ______ ____
ROOT
ATOM      1  C   UNL     1     -11.228  12.165  68.255  0.00  0.00    +0.198 C 
ATOM      2  O   UNL     1     -12.050  12.228  67.291  0.00  0.00    -0.286 OA
ENDROOT
BRANCH   1   4
ATOM      3  C   UNL     1     -12.276  12.976  70.451  0.00  0.00    +0.126 A 
ATOM      4  C   UNL     1     -11.791  12.000  69.591  0.00  0.00    +0.072 A 
ATOM      5  C   UNL     1     -12.042  10.758  70.165  0.00  0.00    +0.042 A 
ATOM      6  C   UNL     1     -12.862  11.054  71.247  0.00  0.00    +0.145 A 
ATOM      7  C   UNL     1     -13.177   9.989  72.079  0.00  0.00    +0.039 A 
ATOM      8  C   UNL     1     -12.384   8.857  72.126  0.00  0.00    +0.021 A 
ATOM      9  C   UNL     1     -11.368   8.665  71.196  0.00  0.00    +0.091 A 
ATOM     10  C   UNL     1     -11.392   9.530  70.111  0.00  0.00    +0.021 A 
ATOM     11  O   UNL     1     -12.931  12.351  71.396  0.00  0.00    -0.458 OA
BRANCH   3  12
ATOM     12  C   UNL     1     -11.775  14.387  70.453  0.00  0.00    +0.065 C 
BRANCH  12  13
ATOM     13  C   UNL     1     -12.820  15.196  71.212  0.00  0.00    +0.008 C 
BRANCH  13  15
ATOM     14  C   UNL     1     -12.495  15.227  73.622  0.00  0.00    +0.000 C 
ATOM     15  C   UNL     1     -12.126  15.950  72.339  0.00  0.00    +0.000 C 
ENDBRANCH  13  15
ENDBRANCH  12  13
ENDBRANCH   3  12
BRANCH   9  16
ATOM     16  N   UNL     1     -10.244   7.821  71.471  0.00  0.00    -0.101 NA
BRANCH  16  17
ATOM     17  S   UNL     1     -10.403   6.142  71.146  0.00  0.00    +0.075 S 
ATOM     18  O   UNL     1     -11.238   5.873  69.938  0.00  0.00    -0.153 OA
ATOM     19  O   UNL     1     -11.108   5.521  72.324  0.00  0.00    -0.153 OA
ATOM     20  C   UNL     1      -8.792   5.461  70.891  0.00  0.00    +0.202 C 
ENDBRANCH  16  17
ENDBRANCH   9  16
ENDBRANCH   1   4
BRANCH   1  21
ATOM     21  C   UNL     1     -10.027  13.003  68.153  0.00  0.00    +0.039 A 
ATOM     22  C   UNL     1      -8.805  12.352  68.271  0.00  0.00    +0.006 A 
ATOM     23  C   UNL     1      -7.651  12.936  67.774  0.00  0.00    +0.037 A 
ATOM     24  C   UNL     1      -7.705  14.216  67.237  0.00  0.00    +0.139 A 
ATOM     25  C   UNL     1      -8.933  14.676  66.824  0.00  0.00    +0.037 A 
ATOM     26  C   UNL     1     -10.098  14.032  67.221  0.00  0.00    +0.006 A 
BRANCH  24  27
ATOM     27  O   UNL     1      -6.565  15.013  67.277  0.00  0.00    -0.475 OA
BRANCH  27  28
ATOM     28  C   UNL     1      -6.150  15.500  68.550  0.00  0.00    +0.207 C 
BRANCH  28  29
ATOM     29  C   UNL     1      -6.666  16.921  68.737  0.00  0.00    +0.065 C 
BRANCH  29  30
ATOM     30  C   UNL     1      -6.085  17.762  67.628  0.00  0.00    +0.076 C 
BRANCH  30  31
ATOM     31  N   UNL     1      -6.942  18.845  67.224  0.00  0.00    -0.273 NA
BRANCH  31  32
ATOM     32  C   UNL     1      -8.244  18.379  66.767  0.00  0.00    +0.072 C 
BRANCH  32  33
ATOM     33  C   UNL     1      -9.225  19.523  66.680  0.00  0.00    +0.017 C 
BRANCH  33  34
ATOM     34  C   UNL     1     -10.584  19.169  67.219  0.00  0.00    +0.001 C 
ATOM     35  C   UNL     1     -10.474  17.883  67.991  0.00  0.00    +0.000 C 
ENDBRANCH  33  34
ENDBRANCH  32  33
ENDBRANCH  31  32
BRANCH  31  36
ATOM     36  C   UNL     1      -7.088  19.770  68.345  0.00  0.00    +0.072 C 
BRANCH  36  37
ATOM     37  C   UNL     1      -5.962  20.784  68.209  0.00  0.00    +0.017 C 
BRANCH  37  38
ATOM     38  C   UNL     1      -5.284  20.882  69.567  0.00  0.00    +0.001 C 
ATOM     39  C   UNL     1      -6.074  20.123  70.609  0.00  0.00    +0.000 C 
ENDBRANCH  37  38
ENDBRANCH  36  37
ENDBRANCH  31  36
ENDBRANCH  30  31
ENDBRANCH  29  30
ENDBRANCH  28  29
ENDBRANCH  27  28
ENDBRANCH  24  27
ENDBRANCH   1  21
TORSDOF 18
ENDMDL
MODEL 9
REMARK VINA RESULT:      -6.4      2.912      8.844
REMARK  Name = 
REMARK  18 active torsions:
REMARK  status: ('A' for Active; 'I' for Inactive)
REMARK    1  A    between atoms: C_2  and  C_3
REMARK    2  A    between atoms: C_3  and  C_4
REMARK    3  A    between atoms: C_4  and  C_5
REMARK    4  A    between atoms: C_10  and  N_11
REMARK    5  A    between atoms: N_11  and  S_12
REMARK    6  A    between atoms: C_18  and  C_19
REMARK    7  A    between atoms: C_19  and  C_21
REMARK    8  A    between atoms: C_24  and  O_25
REMARK    9  A    between atoms: O_25  and  C_26
REMARK   10  A    between atoms: C_26  and  C_27
REMARK   11  A    between atoms: C_27  and  C_28
REMARK   12  A    between atoms: C_28  and  N_29
REMARK   13  A    between atoms: N_29  and  C_30
REMARK   14  A    between atoms: N_29  and  C_34
REMARK   15  A    between atoms: C_30  and  C_31
REMARK   16  A    between atoms: C_31  and  C_32
REMARK   17  A    between atoms: C_34  and  C_35
REMARK   18  A    between atoms: C_35  and  C_36
REMARK                            x       y       z     vdW  Elec       q    Type
REMARK                         _______ _______ _______ _____ _____    ______ ____
ROOT
ATOM      1  C   UNL     1     -10.974  15.947  68.644  0.00  0.00    +0.198 C 
ATOM      2  O   UNL     1     -12.122  16.355  68.995  0.00  0.00    -0.286 OA
ENDROOT
BRANCH   1   4
ATOM      3  C   UNL     1     -10.643  16.559  66.175  0.00  0.00    +0.126 A 
ATOM      4  C   UNL     1     -10.341  16.642  67.528  0.00  0.00    +0.072 A 
ATOM      5  C   UNL     1      -9.373  17.627  67.693  0.00  0.00    +0.042 A 
ATOM      6  C   UNL     1      -9.303  18.233  66.445  0.00  0.00    +0.145 A 
ATOM      7  C   UNL     1      -8.315  19.195  66.291  0.00  0.00    +0.039 A 
ATOM      8  C   UNL     1      -7.203  19.218  67.113  0.00  0.00    +0.021 A 
ATOM      9  C   UNL     1      -7.140  18.409  68.242  0.00  0.00    +0.091 A 
ATOM     10  C   UNL     1      -8.339  17.809  68.604  0.00  0.00    +0.021 A 
ATOM     11  O   UNL     1     -10.023  17.552  65.592  0.00  0.00    -0.458 OA
BRANCH   3  12
ATOM     12  C   UNL     1     -11.228  15.335  65.541  0.00  0.00    +0.065 C 
BRANCH  12  13
ATOM     13  C   UNL     1     -10.058  14.603  64.895  0.00  0.00    +0.008 C 
BRANCH  13  15
ATOM     14  C   UNL     1     -11.926  13.280  64.072  0.00  0.00    +0.000 C 
ATOM     15  C   UNL     1     -10.495  13.180  64.572  0.00  0.00    +0.000 C 
ENDBRANCH  13  15
ENDBRANCH  12  13
ENDBRANCH   3  12
BRANCH   9  16
ATOM     16  N   UNL     1      -5.890  18.021  68.823  0.00  0.00    -0.101 NA
BRANCH  16  17
ATOM     17  S   UNL     1      -5.071  19.170  69.804  0.00  0.00    +0.075 S 
ATOM     18  O   UNL     1      -4.293  18.528  70.904  0.00  0.00    -0.153 OA
ATOM     19  O   UNL     1      -6.119  20.040  70.446  0.00  0.00    -0.153 OA
ATOM     20  C   UNL     1      -3.962  20.094  68.783  0.00  0.00    +0.202 C 
ENDBRANCH  16  17
ENDBRANCH   9  16
ENDBRANCH   1   4
BRANCH   1  21
ATOM     21  C   UNL     1     -10.732  14.501  68.734  0.00  0.00    +0.039 A 
ATOM     22  C   UNL     1     -11.761  13.673  68.302  0.00  0.00    +0.006 A 
ATOM     23  C   UNL     1     -11.497  12.362  67.939  0.00  0.00    +0.037 A 
ATOM     24  C   UNL     1     -10.215  11.851  68.095  0.00  0.00    +0.139 A 
ATOM     25  C   UNL     1      -9.182  12.753  68.183  0.00  0.00    +0.037 A 
ATOM     26  C   UNL     1      -9.438  14.095  68.433  0.00  0.00    +0.006 A 
BRANCH  24  27
ATOM     27  O   UNL     1     -10.054  10.484  68.299  0.00  0.00    -0.475 OA
BRANCH  27  28
ATOM     28  C   UNL     1      -9.493  10.067  69.541  0.00  0.00    +0.207 C 
BRANCH  28  29
ATOM     29  C   UNL     1     -10.503   9.200  70.281  0.00  0.00    +0.065 C 
BRANCH  29  30
ATOM     30  C   UNL     1     -11.781   9.993  70.396  0.00  0.00    +0.076 C 
BRANCH  30  31
ATOM     31  N   UNL     1     -12.221  10.173  71.754  0.00  0.00    -0.273 NA
BRANCH  31  32
ATOM     32  C   UNL     1     -13.330  11.111  71.857  0.00  0.00    +0.072 C 
BRANCH  32  33
ATOM     33  C   UNL     1     -12.887  12.510  71.503  0.00  0.00    +0.017 C 
BRANCH  33  34
ATOM     34  C   UNL     1     -13.656  13.571  72.241  0.00  0.00    +0.001 C 
ATOM     35  C   UNL     1     -12.749  14.748  72.471  0.00  0.00    +0.000 C 
ENDBRANCH  33  34
ENDBRANCH  32  33
ENDBRANCH  31  32
BRANCH  31  36
ATOM     36  C   UNL     1     -12.593   8.871  72.301  0.00  0.00    +0.072 C 
BRANCH  36  37
ATOM     37  C   UNL     1     -14.106   8.773  72.176  0.00  0.00    +0.017 C 
BRANCH  37  38
ATOM     38  C   UNL     1     -14.423   7.369  71.682  0.00  0.00    +0.001 C 
ATOM     39  C   UNL     1     -13.163   6.677  71.215  0.00  0.00    +0.000 C 
ENDBRANCH  37  38
ENDBRANCH  36  37
ENDBRANCH  31  36
ENDBRANCH  30  31
ENDBRANCH  29  30
ENDBRANCH  28  29
ENDBRANCH  27  28
ENDBRANCH  24  27
ENDBRANCH   1  21
TORSDOF 18
ENDMDL
