MODEL 1
REMARK VINA RESULT:      -7.7      0.000      0.000
REMARK  Name = 
REMARK  4 active torsions:
REMARK  status: ('A' for Active; 'I' for Inactive)
REMARK    1  A    between atoms: C_4  and  C_6
REMARK    2  A    between atoms: N_12  and  C_13
REMARK    3  A    between atoms: C_16  and  N_17
REMARK    4  A    between atoms: N_27  and  C_28
REMARK                            x       y       z     vdW  Elec       q    Type
REMARK                         _______ _______ _______ _____ _____    ______ ____
ROOT
ATOM      1  C   UNL     1     -11.665   8.064  71.793  0.00  0.00    +0.115 A 
ATOM      2  N   UNL     1     -11.149   8.411  70.603  0.00  0.00    -0.311 N 
ATOM      3  C   UNL     1     -11.554   9.674  70.322  0.00  0.00    +0.148 A 
ATOM      4  C   UNL     1     -12.406  10.102  71.330  0.00  0.00    +0.055 A 
ATOM      5  C   UNL     1     -12.796  11.416  71.311  0.00  0.00    +0.105 A 
ATOM      6  N   UNL     1     -12.193  12.278  70.458  0.00  0.00    -0.210 NA
ATOM      7  C   UNL     1     -11.549  11.832  69.352  0.00  0.00    +0.244 A 
ATOM      8  N   UNL     1     -10.696  12.704  68.601  0.00  0.00    -0.159 NA
ATOM      9  N   UNL     1     -11.438  10.487  69.246  0.00  0.00    -0.195 NA
ATOM     10  C   UNL     1     -12.581   9.025  72.189  0.00  0.00    +0.026 A 
ENDROOT
BRANCH   8  11
ATOM     11  C   UNL     1     -11.089  14.050  68.346  0.00  0.00    +0.155 A 
ATOM     12  N   UNL     1     -10.924  14.953  69.343  0.00  0.00    -0.226 NA
ATOM     13  C   UNL     1     -10.687  16.249  69.037  0.00  0.00    +0.115 A 
ATOM     14  C   UNL     1     -10.316  16.653  67.760  0.00  0.00    +0.067 A 
ATOM     15  C   UNL     1     -10.751  15.829  66.728  0.00  0.00    +0.019 A 
ATOM     16  C   UNL     1     -11.188  14.553  67.058  0.00  0.00    +0.037 A 
BRANCH  14  17
ATOM     17  N   UNL     1      -9.250  17.586  67.547  0.00  0.00    -0.303 N 
ATOM     18  C   UNL     1      -9.031  18.523  68.648  0.00  0.00    +0.110 C 
ATOM     19  C   UNL     1      -9.931  19.717  68.356  0.00  0.00    +0.110 C 
ATOM     20  N   UNL     1     -10.988  19.352  67.415  0.00  0.00    -0.214 NA
ATOM     21  C   UNL     1     -10.436  19.052  66.099  0.00  0.00    +0.110 C 
ATOM     22  C   UNL     1      -9.189  18.183  66.215  0.00  0.00    +0.110 C 
ENDBRANCH  14  17
ENDBRANCH   8  11
BRANCH   1  25
ATOM     23  C   UNL     1      -9.212   7.882  73.465  0.00  0.00    +0.115 C 
ATOM     24  N   UNL     1     -10.370   7.023  73.660  0.00  0.00    -0.271 N 
ATOM     25  C   UNL     1     -11.244   6.883  72.545  0.00  0.00    +0.265 C 
ATOM     26  O   UNL     1     -11.452   5.769  72.001  0.00  0.00    -0.268 OA
ATOM     27  C   UNL     1     -10.250   5.941  74.614  0.00  0.00    +0.115 C 
ENDBRANCH   1  25
BRANCH   2  28
ATOM     28  C   UNL     1      -9.982   7.793  69.987  0.00  0.00    +0.087 C 
ATOM     29  C   UNL     1     -10.268   7.358  68.568  0.00  0.00    +0.023 C 
ATOM     30  C   UNL     1      -8.862   7.239  68.001  0.00  0.00    +0.002 C 
ATOM     31  C   UNL     1      -8.106   8.415  68.577  0.00  0.00    +0.002 C 
ATOM     32  C   UNL     1      -8.834   8.756  69.866  0.00  0.00    +0.023 C 
ENDBRANCH   2  28
TORSDOF 4
ENDMDL
MODEL 2
REMARK VINA RESULT:      -7.0      1.480      1.809
REMARK  Name = 
REMARK  4 active torsions:
REMARK  status: ('A' for Active; 'I' for Inactive)
REMARK    1  A    between atoms: C_4  and  C_6
REMARK    2  A    between atoms: N_12  and  C_13
REMARK    3  A    between atoms: C_16  and  N_17
REMARK    4  A    between atoms: N_27  and  C_28
REMARK                            x       y       z     vdW  Elec       q    Type
REMARK                         _______ _______ _______ _____ _____    ______ ____
ROOT
ATOM      1  C   UNL     1     -11.556   9.097  70.950  0.00  0.00    +0.115 A 
ATOM      2  N   UNL     1     -11.089   9.209  69.696  0.00  0.00    -0.311 N 
ATOM      3  C   UNL     1     -11.289  10.486  69.285  0.00  0.00    +0.148 A 
ATOM      4  C   UNL     1     -11.966  11.172  70.284  0.00  0.00    +0.055 A 
ATOM      5  C   UNL     1     -12.121  12.524  70.126  0.00  0.00    +0.105 A 
ATOM      6  N   UNL     1     -11.449  13.161  69.137  0.00  0.00    -0.210 NA
ATOM      7  C   UNL     1     -10.988  12.485  68.057  0.00  0.00    +0.244 A 
ATOM      8  N   UNL     1     -10.062  13.097  67.152  0.00  0.00    -0.159 NA
ATOM      9  N   UNL     1     -11.123  11.139  68.112  0.00  0.00    -0.195 NA
ATOM     10  C   UNL     1     -12.254  10.247  71.279  0.00  0.00    +0.026 A 
ENDROOT
BRANCH   8  11
ATOM     11  C   UNL     1     -10.233  14.455  66.757  0.00  0.00    +0.155 A 
ATOM     12  N   UNL     1     -11.015  15.243  67.533  0.00  0.00    -0.226 NA
ATOM     13  C   UNL     1     -10.762  16.569  67.608  0.00  0.00    +0.115 A 
ATOM     14  C   UNL     1      -9.568  17.122  67.159  0.00  0.00    +0.067 A 
ATOM     15  C   UNL     1      -8.929  16.412  66.149  0.00  0.00    +0.019 A 
ATOM     16  C   UNL     1      -9.324  15.099  65.930  0.00  0.00    +0.037 A 
BRANCH  14  17
ATOM     17  N   UNL     1      -8.853  18.093  67.932  0.00  0.00    -0.303 N 
ATOM     18  C   UNL     1      -9.696  18.968  68.745  0.00  0.00    +0.110 C 
ATOM     19  C   UNL     1     -10.040  20.154  67.852  0.00  0.00    +0.110 C 
ATOM     20  N   UNL     1      -9.837  19.819  66.445  0.00  0.00    -0.214 NA
ATOM     21  C   UNL     1      -8.423  19.614  66.155  0.00  0.00    +0.110 C 
ATOM     22  C   UNL     1      -7.760  18.771  67.238  0.00  0.00    +0.110 C 
ENDBRANCH  14  17
ENDBRANCH   8  11
BRANCH   1  25
ATOM     23  C   UNL     1     -13.527   6.986  71.656  0.00  0.00    +0.115 C 
ATOM     24  N   UNL     1     -12.088   6.778  71.712  0.00  0.00    -0.271 N 
ATOM     25  C   UNL     1     -11.287   7.950  71.815  0.00  0.00    +0.265 C 
ATOM     26  O   UNL     1     -10.537   8.157  72.803  0.00  0.00    -0.268 OA
ATOM     27  C   UNL     1     -11.612   5.534  72.281  0.00  0.00    +0.115 C 
ENDBRANCH   1  25
BRANCH   2  28
ATOM     28  C   UNL     1     -10.103   8.323  69.090  0.00  0.00    +0.087 C 
ATOM     29  C   UNL     1     -10.466   7.983  67.663  0.00  0.00    +0.023 C 
ATOM     30  C   UNL     1      -9.125   7.519  67.114  0.00  0.00    +0.002 C 
ATOM     31  C   UNL     1      -8.109   8.465  67.712  0.00  0.00    +0.002 C 
ATOM     32  C   UNL     1      -8.750   8.969  68.994  0.00  0.00    +0.023 C 
ENDBRANCH   2  28
TORSDOF 4
ENDMDL
MODEL 3
REMARK VINA RESULT:      -7.0      2.883      9.079
REMARK  Name = 
REMARK  4 active torsions:
REMARK  status: ('A' for Active; 'I' for Inactive)
REMARK    1  A    between atoms: C_4  and  C_6
REMARK    2  A    between atoms: N_12  and  C_13
REMARK    3  A    between atoms: C_16  and  N_17
REMARK    4  A    between atoms: N_27  and  C_28
REMARK                            x       y       z     vdW  Elec       q    Type
REMARK                         _______ _______ _______ _____ _____    ______ ____
ROOT
ATOM      1  C   UNL     1     -11.241  14.652  68.612  0.00  0.00    +0.115 A 
ATOM      2  N   UNL     1     -12.027  14.325  69.650  0.00  0.00    -0.311 N 
ATOM      3  C   UNL     1     -12.054  12.973  69.748  0.00  0.00    +0.148 A 
ATOM      4  C   UNL     1     -11.324  12.438  68.696  0.00  0.00    +0.055 A 
ATOM      5  C   UNL     1     -11.097  11.086  68.709  0.00  0.00    +0.105 A 
ATOM      6  N   UNL     1     -11.403  10.370  69.817  0.00  0.00    -0.210 NA
ATOM      7  C   UNL     1     -12.297  10.831  70.724  0.00  0.00    +0.244 A 
ATOM      8  N   UNL     1     -12.424  10.211  72.008  0.00  0.00    -0.159 NA
ATOM      9  N   UNL     1     -12.742  12.093  70.512  0.00  0.00    -0.195 NA
ATOM     10  C   UNL     1     -10.927  13.505  67.901  0.00  0.00    +0.026 A 
ENDROOT
BRANCH   8  11
ATOM     11  C   UNL     1     -12.399   8.791  72.126  0.00  0.00    +0.155 A 
ATOM     12  N   UNL     1     -13.142   8.073  71.249  0.00  0.00    -0.226 NA
ATOM     13  C   UNL     1     -12.739   6.833  70.892  0.00  0.00    +0.115 A 
ATOM     14  C   UNL     1     -11.455   6.367  71.152  0.00  0.00    +0.067 A 
ATOM     15  C   UNL     1     -10.826   6.944  72.249  0.00  0.00    +0.019 A 
ATOM     16  C   UNL     1     -11.356   8.125  72.752  0.00  0.00    +0.037 A 
BRANCH  14  17
ATOM     17  N   UNL     1     -10.694   5.670  70.159  0.00  0.00    -0.303 N 
ATOM     18  C   UNL     1      -9.275   5.514  70.474  0.00  0.00    +0.110 C 
ATOM     19  C   UNL     1      -8.590   6.754  69.911  0.00  0.00    +0.110 C 
ATOM     20  N   UNL     1      -9.558   7.826  69.694  0.00  0.00    -0.214 NA
ATOM     21  C   UNL     1     -10.493   7.480  68.629  0.00  0.00    +0.110 C 
ATOM     22  C   UNL     1     -10.975   6.041  68.773  0.00  0.00    +0.110 C 
ENDBRANCH  14  17
ENDBRANCH   8  11
BRANCH   1  25
ATOM     23  C   UNL     1      -8.539  15.679  69.307  0.00  0.00    +0.115 C 
ATOM     24  N   UNL     1      -9.368  16.269  68.266  0.00  0.00    -0.271 N 
ATOM     25  C   UNL     1     -10.764  16.010  68.353  0.00  0.00    +0.265 C 
ATOM     26  O   UNL     1     -11.603  16.935  68.497  0.00  0.00    -0.268 OA
ATOM     27  C   UNL     1      -8.905  17.497  67.655  0.00  0.00    +0.115 C 
ENDBRANCH   1  25
BRANCH   2  28
ATOM     28  C   UNL     1     -12.353  15.210  70.762  0.00  0.00    +0.087 C 
ATOM     29  C   UNL     1     -13.778  15.015  71.226  0.00  0.00    +0.023 C 
ATOM     30  C   UNL     1     -13.724  15.615  72.623  0.00  0.00    +0.002 C 
ATOM     31  C   UNL     1     -12.394  15.169  73.189  0.00  0.00    +0.002 C 
ATOM     32  C   UNL     1     -11.515  14.921  71.975  0.00  0.00    +0.023 C 
ENDBRANCH   2  28
TORSDOF 4
ENDMDL
MODEL 4
REMARK VINA RESULT:      -6.9      2.866      9.800
REMARK  Name = 
REMARK  4 active torsions:
REMARK  status: ('A' for Active; 'I' for Inactive)
REMARK    1  A    between atoms: C_4  and  C_6
REMARK    2  A    between atoms: N_12  and  C_13
REMARK    3  A    between atoms: C_16  and  N_17
REMARK    4  A    between atoms: N_27  and  C_28
REMARK                            x       y       z     vdW  Elec       q    Type
REMARK                         _______ _______ _______ _____ _____    ______ ____
ROOT
ATOM      1  C   UNL     1     -11.474  13.359  67.570  0.00  0.00    +0.115 A 
ATOM      2  N   UNL     1     -10.630  12.315  67.574  0.00  0.00    -0.311 N 
ATOM      3  C   UNL     1     -10.827  11.618  68.720  0.00  0.00    +0.148 A 
ATOM      4  C   UNL     1     -11.770  12.287  69.489  0.00  0.00    +0.055 A 
ATOM      5  C   UNL     1     -12.226  11.657  70.617  0.00  0.00    +0.105 A 
ATOM      6  N   UNL     1     -11.910  10.356  70.828  0.00  0.00    -0.210 NA
ATOM      7  C   UNL     1     -10.839   9.790  70.222  0.00  0.00    +0.244 A 
ATOM      8  N   UNL     1     -10.658   8.369  70.234  0.00  0.00    -0.159 NA
ATOM      9  N   UNL     1     -10.212  10.564  69.305  0.00  0.00    -0.195 NA
ATOM     10  C   UNL     1     -12.073  13.463  68.815  0.00  0.00    +0.026 A 
ENDROOT
BRANCH   8  11
ATOM     11  C   UNL     1     -10.916   7.621  71.419  0.00  0.00    +0.155 A 
ATOM     12  N   UNL     1     -11.119   6.288  71.291  0.00  0.00    -0.226 NA
ATOM     13  C   UNL     1     -10.773   5.460  72.302  0.00  0.00    +0.115 A 
ATOM     14  C   UNL     1      -9.954   5.869  73.348  0.00  0.00    +0.067 A 
ATOM     15  C   UNL     1      -9.988   7.230  73.630  0.00  0.00    +0.019 A 
ATOM     16  C   UNL     1     -10.530   8.077  72.671  0.00  0.00    +0.037 A 
BRANCH  14  17
ATOM     17  N   UNL     1      -8.875   5.054  73.820  0.00  0.00    -0.303 N 
ATOM     18  C   UNL     1      -9.095   3.615  73.693  0.00  0.00    +0.110 C 
ATOM     19  C   UNL     1      -9.782   3.188  74.984  0.00  0.00    +0.110 C 
ATOM     20  N   UNL     1     -10.382   4.338  75.656  0.00  0.00    -0.214 NA
ATOM     21  C   UNL     1      -9.357   5.255  76.140  0.00  0.00    +0.110 C 
ATOM     22  C   UNL     1      -8.276   5.471  75.087  0.00  0.00    +0.110 C 
ENDBRANCH  14  17
ENDBRANCH   8  11
BRANCH   1  25
ATOM     23  C   UNL     1     -10.604  16.182  67.234  0.00  0.00    +0.115 C 
ATOM     24  N   UNL     1     -10.904  15.306  66.111  0.00  0.00    -0.271 N 
ATOM     25  C   UNL     1     -11.735  14.185  66.393  0.00  0.00    +0.265 C 
ATOM     26  O   UNL     1     -12.853  14.032  65.838  0.00  0.00    -0.268 OA
ATOM     27  C   UNL     1     -10.918  15.892  64.788  0.00  0.00    +0.115 C 
ENDBRANCH   1  25
BRANCH   2  28
ATOM     28  C   UNL     1     -10.013  11.736  66.386  0.00  0.00    +0.087 C 
ATOM     29  C   UNL     1      -8.527  11.537  66.575  0.00  0.00    +0.023 C 
ATOM     30  C   UNL     1      -8.222  10.511  65.494  0.00  0.00    +0.002 C 
ATOM     31  C   UNL     1      -9.393   9.555  65.520  0.00  0.00    +0.002 C 
ATOM     32  C   UNL     1     -10.547  10.362  66.089  0.00  0.00    +0.023 C 
ENDBRANCH   2  28
TORSDOF 4
ENDMDL
MODEL 5
REMARK VINA RESULT:      -6.7      5.506     10.273
REMARK  Name = 
REMARK  4 active torsions:
REMARK  status: ('A' for Active; 'I' for Inactive)
REMARK    1  A    between atoms: C_4  and  C_6
REMARK    2  A    between atoms: N_12  and  C_13
REMARK    3  A    between atoms: C_16  and  N_17
REMARK    4  A    between atoms: N_27  and  C_28
REMARK                            x       y       z     vdW  Elec       q    Type
REMARK                         _______ _______ _______ _____ _____    ______ ____
ROOT
ATOM      1  C   UNL     1      -6.842  20.041  66.791  0.00  0.00    +0.115 A 
ATOM      2  N   UNL     1      -6.902  19.358  67.944  0.00  0.00    -0.311 N 
ATOM      3  C   UNL     1      -7.874  18.419  67.827  0.00  0.00    +0.148 A 
ATOM      4  C   UNL     1      -8.488  18.567  66.592  0.00  0.00    +0.055 A 
ATOM      5  C   UNL     1      -9.391  17.608  66.216  0.00  0.00    +0.105 A 
ATOM      6  N   UNL     1      -9.498  16.471  66.946  0.00  0.00    -0.210 NA
ATOM      7  C   UNL     1      -9.083  16.427  68.235  0.00  0.00    +0.244 A 
ATOM      8  N   UNL     1      -8.951  15.175  68.918  0.00  0.00    -0.159 NA
ATOM      9  N   UNL     1      -8.442  17.534  68.679  0.00  0.00    -0.195 NA
ATOM     10  C   UNL     1      -7.921  19.687  65.996  0.00  0.00    +0.026 A 
ENDROOT
BRANCH   8  11
ATOM     11  C   UNL     1      -9.940  14.161  68.759  0.00  0.00    +0.155 A 
ATOM     12  N   UNL     1     -11.231  14.554  68.637  0.00  0.00    -0.226 NA
ATOM     13  C   UNL     1     -12.092  13.803  67.915  0.00  0.00    +0.115 A 
ATOM     14  C   UNL     1     -11.659  12.802  67.051  0.00  0.00    +0.067 A 
ATOM     15  C   UNL     1     -10.438  12.225  67.378  0.00  0.00    +0.019 A 
ATOM     16  C   UNL     1      -9.624  12.898  68.281  0.00  0.00    +0.037 A 
BRANCH  14  17
ATOM     17  N   UNL     1     -12.203  12.661  65.734  0.00  0.00    -0.303 N 
ATOM     18  C   UNL     1     -11.401  11.842  64.826  0.00  0.00    +0.110 C 
ATOM     19  C   UNL     1     -10.426  12.804  64.158  0.00  0.00    +0.110 C 
ATOM     20  N   UNL     1     -10.297  14.034  64.935  0.00  0.00    -0.214 NA
ATOM     21  C   UNL     1     -11.541  14.795  64.920  0.00  0.00    +0.110 C 
ATOM     22  C   UNL     1     -12.742  13.883  65.139  0.00  0.00    +0.110 C 
ENDBRANCH  14  17
ENDBRANCH   8  11
BRANCH   1  25
ATOM     23  C   UNL     1      -4.175  19.216  65.766  0.00  0.00    +0.115 C 
ATOM     24  N   UNL     1      -4.738  20.539  65.539  0.00  0.00    -0.271 N 
ATOM     25  C   UNL     1      -5.754  20.954  66.445  0.00  0.00    +0.265 C 
ATOM     26  O   UNL     1      -5.616  21.964  67.181  0.00  0.00    -0.268 OA
ATOM     27  C   UNL     1      -3.888  21.532  64.916  0.00  0.00    +0.115 C 
ENDBRANCH   1  25
BRANCH   2  28
ATOM     28  C   UNL     1      -5.822  19.269  68.919  0.00  0.00    +0.087 C 
ATOM     29  C   UNL     1      -6.207  19.909  70.233  0.00  0.00    +0.023 C 
ATOM     30  C   UNL     1      -5.204  19.271  71.183  0.00  0.00    +0.002 C 
ATOM     31  C   UNL     1      -5.107  17.829  70.738  0.00  0.00    +0.002 C 
ATOM     32  C   UNL     1      -5.499  17.844  69.271  0.00  0.00    +0.023 C 
ENDBRANCH   2  28
TORSDOF 4
ENDMDL
MODEL 6
REMARK VINA RESULT:      -6.7      1.883      3.392
REMARK  Name = 
REMARK  4 active torsions:
REMARK  status: ('A' for Active; 'I' for Inactive)
REMARK    1  A    between atoms: C_4  and  C_6
REMARK    2  A    between atoms: N_12  and  C_13
REMARK    3  A    between atoms: C_16  and  N_17
REMARK    4  A    between atoms: N_27  and  C_28
REMARK                            x       y       z     vdW  Elec       q    Type
REMARK                         _______ _______ _______ _____ _____    ______ ____
ROOT
ATOM      1  C   UNL     1      -9.983   7.411  67.693  0.00  0.00    +0.115 A 
ATOM      2  N   UNL     1     -10.015   8.214  68.768  0.00  0.00    -0.311 N 
ATOM      3  C   UNL     1     -10.177   9.489  68.336  0.00  0.00    +0.148 A 
ATOM      4  C   UNL     1     -10.172   9.492  66.948  0.00  0.00    +0.055 A 
ATOM      5  C   UNL     1     -10.484  10.668  66.318  0.00  0.00    +0.105 A 
ATOM      6  N   UNL     1     -10.975  11.702  67.043  0.00  0.00    -0.210 NA
ATOM      7  C   UNL     1     -10.769  11.780  68.379  0.00  0.00    +0.244 A 
ATOM      8  N   UNL     1     -11.499  12.717  69.179  0.00  0.00    -0.159 NA
ATOM      9  N   UNL     1     -10.173  10.701  68.940  0.00  0.00    -0.195 NA
ATOM     10  C   UNL     1      -9.911   8.188  66.548  0.00  0.00    +0.026 A 
ENDROOT
BRANCH   8  11
ATOM     11  C   UNL     1     -11.721  14.044  68.710  0.00  0.00    +0.155 A 
ATOM     12  N   UNL     1     -11.551  15.060  69.590  0.00  0.00    -0.226 NA
ATOM     13  C   UNL     1     -11.151  16.271  69.142  0.00  0.00    +0.115 A 
ATOM     14  C   UNL     1     -10.624  16.454  67.869  0.00  0.00    +0.067 A 
ATOM     15  C   UNL     1     -11.049  15.537  66.915  0.00  0.00    +0.019 A 
ATOM     16  C   UNL     1     -11.649  14.367  67.362  0.00  0.00    +0.037 A 
BRANCH  14  17
ATOM     17  N   UNL     1      -9.450  17.243  67.648  0.00  0.00    -0.303 N 
ATOM     18  C   UNL     1      -9.131  18.180  68.725  0.00  0.00    +0.110 C 
ATOM     19  C   UNL     1      -9.876  19.465  68.384  0.00  0.00    +0.110 C 
ATOM     20  N   UNL     1     -10.957  19.202  67.438  0.00  0.00    -0.214 NA
ATOM     21  C   UNL     1     -10.429  18.799  66.139  0.00  0.00    +0.110 C 
ATOM     22  C   UNL     1      -9.299  17.788  66.300  0.00  0.00    +0.110 C 
ENDBRANCH  14  17
ENDBRANCH   8  11
BRANCH   1  25
ATOM     23  C   UNL     1      -7.684   5.558  68.040  0.00  0.00    +0.115 C 
ATOM     24  N   UNL     1      -9.050   5.204  68.399  0.00  0.00    -0.271 N 
ATOM     25  C   UNL     1     -10.080   5.954  67.767  0.00  0.00    +0.265 C 
ATOM     26  O   UNL     1     -10.935   5.411  67.021  0.00  0.00    -0.268 OA
ATOM     27  C   UNL     1      -9.305   3.836  68.800  0.00  0.00    +0.115 C 
ENDBRANCH   1  25
BRANCH   2  28
ATOM     28  C   UNL     1     -10.344   7.785  70.122  0.00  0.00    +0.087 C 
ATOM     29  C   UNL     1      -9.323   8.276  71.122  0.00  0.00    +0.023 C 
ATOM     30  C   UNL     1     -10.103   8.166  72.424  0.00  0.00    +0.002 C 
ATOM     31  C   UNL     1     -11.502   8.624  72.083  0.00  0.00    +0.002 C 
ATOM     32  C   UNL     1     -11.648   8.362  70.594  0.00  0.00    +0.023 C 
ENDBRANCH   2  28
TORSDOF 4
ENDMDL
MODEL 7
REMARK VINA RESULT:      -6.7      3.461      5.813
REMARK  Name = 
REMARK  4 active torsions:
REMARK  status: ('A' for Active; 'I' for Inactive)
REMARK    1  A    between atoms: C_4  and  C_6
REMARK    2  A    between atoms: N_12  and  C_13
REMARK    3  A    between atoms: C_16  and  N_17
REMARK    4  A    between atoms: N_27  and  C_28
REMARK                            x       y       z     vdW  Elec       q    Type
REMARK                         _______ _______ _______ _____ _____    ______ ____
ROOT
ATOM      1  C   UNL     1      -9.169  10.679  67.165  0.00  0.00    +0.115 A 
ATOM      2  N   UNL     1      -9.940  11.680  66.710  0.00  0.00    -0.311 N 
ATOM      3  C   UNL     1      -9.334  12.852  67.020  0.00  0.00    +0.148 A 
ATOM      4  C   UNL     1      -8.188  12.579  67.753  0.00  0.00    +0.055 A 
ATOM      5  C   UNL     1      -7.348  13.628  68.025  0.00  0.00    +0.105 A 
ATOM      6  N   UNL     1      -7.549  14.819  67.411  0.00  0.00    -0.210 NA
ATOM      7  C   UNL     1      -8.758  15.144  66.894  0.00  0.00    +0.244 A 
ATOM      8  N   UNL     1      -8.902  16.273  66.024  0.00  0.00    -0.159 NA
ATOM      9  N   UNL     1      -9.683  14.155  66.912  0.00  0.00    -0.195 NA
ATOM     10  C   UNL     1      -8.164  11.207  67.960  0.00  0.00    +0.026 A 
ENDROOT
BRANCH   8  11
ATOM     11  C   UNL     1      -8.225  17.493  66.313  0.00  0.00    +0.155 A 
ATOM     12  N   UNL     1      -8.560  18.144  67.452  0.00  0.00    -0.226 NA
ATOM     13  C   UNL     1      -7.634  18.898  68.088  0.00  0.00    +0.115 A 
ATOM     14  C   UNL     1      -6.278  18.808  67.794  0.00  0.00    +0.067 A 
ATOM     15  C   UNL     1      -5.977  18.394  66.502  0.00  0.00    +0.019 A 
ATOM     16  C   UNL     1      -6.988  17.793  65.762  0.00  0.00    +0.037 A 
BRANCH  14  17
ATOM     17  N   UNL     1      -5.289  18.746  68.828  0.00  0.00    -0.303 N 
ATOM     18  C   UNL     1      -5.694  19.346  70.099  0.00  0.00    +0.110 C 
ATOM     19  C   UNL     1      -5.288  20.812  70.008  0.00  0.00    +0.110 C 
ATOM     20  N   UNL     1      -5.090  21.209  68.616  0.00  0.00    -0.214 NA
ATOM     21  C   UNL     1      -3.935  20.533  68.038  0.00  0.00    +0.110 C 
ATOM     22  C   UNL     1      -3.922  19.056  68.414  0.00  0.00    +0.110 C 
ENDBRANCH  14  17
ENDBRANCH   8  11
BRANCH   1  25
ATOM     23  C   UNL     1     -10.256   8.572  68.959  0.00  0.00    +0.115 C 
ATOM     24  N   UNL     1     -10.299   8.477  67.507  0.00  0.00    -0.271 N 
ATOM     25  C   UNL     1      -9.360   9.278  66.797  0.00  0.00    +0.265 C 
ATOM     26  O   UNL     1      -8.483   8.769  66.053  0.00  0.00    -0.268 OA
ATOM     27  C   UNL     1     -10.757   7.232  66.929  0.00  0.00    +0.115 C 
ENDBRANCH   1  25
BRANCH   2  28
ATOM     28  C   UNL     1     -10.934  11.552  65.651  0.00  0.00    +0.087 C 
ATOM     29  C   UNL     1     -12.063  12.540  65.829  0.00  0.00    +0.023 C 
ATOM     30  C   UNL     1     -12.653  12.578  64.428  0.00  0.00    +0.002 C 
ATOM     31  C   UNL     1     -11.460  12.546  63.500  0.00  0.00    +0.002 C 
ATOM     32  C   UNL     1     -10.359  11.871  64.300  0.00  0.00    +0.023 C 
ENDBRANCH   2  28
TORSDOF 4
ENDMDL
MODEL 8
REMARK VINA RESULT:      -6.7      2.436      5.213
REMARK  Name = 
REMARK  4 active torsions:
REMARK  status: ('A' for Active; 'I' for Inactive)
REMARK    1  A    between atoms: C_4  and  C_6
REMARK    2  A    between atoms: N_12  and  C_13
REMARK    3  A    between atoms: C_16  and  N_17
REMARK    4  A    between atoms: N_27  and  C_28
REMARK                            x       y       z     vdW  Elec       q    Type
REMARK                         _______ _______ _______ _____ _____    ______ ____
ROOT
ATOM      1  C   UNL     1     -11.937  11.753  69.995  0.00  0.00    +0.115 A 
ATOM      2  N   UNL     1     -11.902  12.981  70.534  0.00  0.00    -0.311 N 
ATOM      3  C   UNL     1     -11.312  13.815  69.643  0.00  0.00    +0.148 A 
ATOM      4  C   UNL     1     -10.900  13.073  68.546  0.00  0.00    +0.055 A 
ATOM      5  C   UNL     1     -10.423  13.761  67.461  0.00  0.00    +0.105 A 
ATOM      6  N   UNL     1     -10.560  15.108  67.414  0.00  0.00    -0.210 NA
ATOM      7  C   UNL     1     -10.744  15.832  68.544  0.00  0.00    +0.244 A 
ATOM      8  N   UNL     1     -11.147  17.205  68.476  0.00  0.00    -0.159 NA
ATOM      9  N   UNL     1     -10.918  15.110  69.676  0.00  0.00    -0.195 NA
ATOM     10  C   UNL     1     -11.175  11.743  68.837  0.00  0.00    +0.026 A 
ENDROOT
BRANCH   8  11
ATOM     11  C   UNL     1     -10.572  18.076  67.506  0.00  0.00    +0.155 A 
ATOM     12  N   UNL     1     -10.428  19.381  67.839  0.00  0.00    -0.226 NA
ATOM     13  C   UNL     1      -9.416  20.100  67.303  0.00  0.00    +0.115 A 
ATOM     14  C   UNL     1      -8.344  19.499  66.653  0.00  0.00    +0.067 A 
ATOM     15  C   UNL     1      -8.617  18.264  66.076  0.00  0.00    +0.019 A 
ATOM     16  C   UNL     1      -9.770  17.602  66.478  0.00  0.00    +0.037 A 
BRANCH  14  17
ATOM     17  N   UNL     1      -6.993  19.905  66.900  0.00  0.00    -0.303 N 
ATOM     18  C   UNL     1      -5.981  18.915  66.536  0.00  0.00    +0.110 C 
ATOM     19  C   UNL     1      -5.788  18.049  67.775  0.00  0.00    +0.110 C 
ATOM     20  N   UNL     1      -6.930  18.175  68.678  0.00  0.00    -0.214 NA
ATOM     21  C   UNL     1      -7.002  19.516  69.246  0.00  0.00    +0.110 C 
ATOM     22  C   UNL     1      -6.759  20.576  68.178  0.00  0.00    +0.110 C 
ENDBRANCH  14  17
ENDBRANCH   8  11
BRANCH   1  25
ATOM     23  C   UNL     1     -10.812   9.379  71.389  0.00  0.00    +0.115 C 
ATOM     24  N   UNL     1     -12.181   9.836  71.579  0.00  0.00    -0.271 N 
ATOM     25  C   UNL     1     -12.722  10.649  70.544  0.00  0.00    +0.265 C 
ATOM     26  O   UNL     1     -13.730  10.295  69.881  0.00  0.00    -0.268 OA
ATOM     27  C   UNL     1     -13.063   9.003  72.369  0.00  0.00    +0.115 C 
ENDBRANCH   1  25
BRANCH   2  28
ATOM     28  C   UNL     1     -12.774  13.448  71.605  0.00  0.00    +0.087 C 
ATOM     29  C   UNL     1     -12.071  14.442  72.499  0.00  0.00    +0.023 C 
ATOM     30  C   UNL     1     -13.251  15.134  73.166  0.00  0.00    +0.002 C 
ATOM     31  C   UNL     1     -14.280  15.294  72.071  0.00  0.00    +0.002 C 
ATOM     32  C   UNL     1     -13.967  14.192  71.073  0.00  0.00    +0.023 C 
ENDBRANCH   2  28
TORSDOF 4
ENDMDL
MODEL 9
REMARK VINA RESULT:      -6.7      2.408      3.676
REMARK  Name = 
REMARK  4 active torsions:
REMARK  status: ('A' for Active; 'I' for Inactive)
REMARK    1  A    between atoms: C_4  and  C_6
REMARK    2  A    between atoms: N_12  and  C_13
REMARK    3  A    between atoms: C_16  and  N_17
REMARK    4  A    between atoms: N_27  and  C_28
REMARK                            x       y       z     vdW  Elec       q    Type
REMARK                         _______ _______ _______ _____ _____    ______ ____
ROOT
ATOM      1  C   UNL     1     -10.792   6.790  72.618  0.00  0.00    +0.115 A 
ATOM      2  N   UNL     1     -10.355   6.449  71.395  0.00  0.00    -0.311 N 
ATOM      3  C   UNL     1     -10.467   7.535  70.591  0.00  0.00    +0.148 A 
ATOM      4  C   UNL     1     -11.059   8.562  71.312  0.00  0.00    +0.055 A 
ATOM      5  C   UNL     1     -11.113   9.798  70.721  0.00  0.00    +0.105 A 
ATOM      6  N   UNL     1     -10.423  10.020  69.577  0.00  0.00    -0.210 NA
ATOM      7  C   UNL     1     -10.048   8.994  68.776  0.00  0.00    +0.244 A 
ATOM      8  N   UNL     1      -9.104   9.199  67.718  0.00  0.00    -0.159 NA
ATOM      9  N   UNL     1     -10.286   7.755  69.268  0.00  0.00    -0.195 NA
ATOM     10  C   UNL     1     -11.389   8.039  72.555  0.00  0.00    +0.026 A 
ENDROOT
BRANCH   8  11
ATOM     11  C   UNL     1      -9.181  10.364  66.902  0.00  0.00    +0.155 A 
ATOM     12  N   UNL     1     -10.168  10.420  65.975  0.00  0.00    -0.226 NA
ATOM     13  C   UNL     1     -10.681  11.619  65.617  0.00  0.00    +0.115 A 
ATOM     14  C   UNL     1     -10.452  12.773  66.357  0.00  0.00    +0.067 A 
ATOM     15  C   UNL     1      -9.270  12.784  67.088  0.00  0.00    +0.019 A 
ATOM     16  C   UNL     1      -8.624  11.572  67.294  0.00  0.00    +0.037 A 
BRANCH  14  17
ATOM     17  N   UNL     1     -11.510  13.687  66.669  0.00  0.00    -0.303 N 
ATOM     18  C   UNL     1     -12.604  13.709  65.698  0.00  0.00    +0.110 C 
ATOM     19  C   UNL     1     -12.211  14.754  64.661  0.00  0.00    +0.110 C 
ATOM     20  N   UNL     1     -10.775  15.015  64.707  0.00  0.00    -0.214 NA
ATOM     21  C   UNL     1     -10.400  15.665  65.957  0.00  0.00    +0.110 C 
ATOM     22  C   UNL     1     -11.089  15.003  67.144  0.00  0.00    +0.110 C 
ENDBRANCH  14  17
ENDBRANCH   8  11
BRANCH   1  25
ATOM     23  C   UNL     1      -8.340   6.795  74.300  0.00  0.00    +0.115 C 
ATOM     24  N   UNL     1      -9.640   6.367  74.795  0.00  0.00    -0.271 N 
ATOM     25  C   UNL     1     -10.587   5.968  73.809  0.00  0.00    +0.265 C 
ATOM     26  O   UNL     1     -11.057   4.802  73.773  0.00  0.00    -0.268 OA
ATOM     27  C   UNL     1      -9.696   5.781  76.117  0.00  0.00    +0.115 C 
ENDBRANCH   1  25
BRANCH   2  28
ATOM     28  C   UNL     1      -9.459   5.335  71.109  0.00  0.00    +0.087 C 
ATOM     29  C   UNL     1      -9.975   4.487  69.970  0.00  0.00    +0.023 C 
ATOM     30  C   UNL     1      -8.710   3.761  69.539  0.00  0.00    +0.002 C 
ATOM     31  C   UNL     1      -7.615   4.799  69.625  0.00  0.00    +0.002 C 
ATOM     32  C   UNL     1      -8.107   5.805  70.651  0.00  0.00    +0.023 C 
ENDBRANCH   2  28
TORSDOF 4
ENDMDL
