MODEL 1
REMARK VINA RESULT:      -6.4      0.000      0.000
REMARK  Name = 
REMARK  4 active torsions:
REMARK  status: ('A' for Active; 'I' for Inactive)
REMARK    1  A    between atoms: C_2  and  N_5
REMARK    2  A    between atoms: N_5  and  C_6
REMARK    3  A    between atoms: C_6  and  C_7
REMARK    4  A    between atoms: C_7  and  C_9
REMARK                            x       y       z     vdW  Elec       q    Type
REMARK                         _______ _______ _______ _____ _____    ______ ____
ROOT
ATOM      1  C   UNL     1     -11.155  15.536  69.753  0.00  0.00    +0.192 C 
ATOM      2  O   UNL     1     -11.570  16.683  68.837  0.00  0.00    -0.217 OA
ENDROOT
BRANCH   1   3
ATOM      3  C   UNL     1     -11.838  14.447  68.755  0.00  0.00    +0.015 A 
ATOM      4  C   UNL     1     -11.602  13.151  69.169  0.00  0.00    +0.040 A 
ATOM      5  C   UNL     1     -11.783  12.131  68.270  0.00  0.00    +0.199 A 
ATOM      6  O   UNL     1     -12.237  10.880  68.664  0.00  0.00    -0.286 OA
ATOM      7  C   UNL     1     -11.581  12.383  66.932  0.00  0.00    +0.084 A 
ATOM      8  C   UNL     1     -11.434  13.699  66.532  0.00  0.00    +0.199 A 
ATOM      9  O   UNL     1     -10.929  13.938  65.249  0.00  0.00    -0.286 OA
ATOM     10  C   UNL     1     -11.605  14.743  67.420  0.00  0.00    +0.040 A 
ENDBRANCH   1   3
BRANCH   1  11
ATOM     11  C   UNL     1     -12.547  15.659  70.641  0.00  0.00    +0.126 C 
BRANCH  11  12
ATOM     12  N   UNL     1     -12.083  16.096  71.952  0.00  0.00    -0.218 NA
BRANCH  12  14
ATOM     13  C   UNL     1     -13.038  15.496  72.791  0.00  0.00    +0.017 C 
ATOM     14  C   UNL     1     -12.977  15.472  72.896  0.00  0.00    +0.060 C 
ATOM     15  C   UNL     1     -12.483  15.570  74.305  0.00  0.00    +0.017 C 
ATOM     16  C   UNL     1     -13.580  14.173  72.505  0.00  0.00    +0.017 C 
ENDBRANCH  12  14
ENDBRANCH  11  12
ENDBRANCH   1  11
TORSDOF 4
ENDMDL
MODEL 2
REMARK VINA RESULT:      -6.2      2.292      5.607
REMARK  Name = 
REMARK  4 active torsions:
REMARK  status: ('A' for Active; 'I' for Inactive)
REMARK    1  A    between atoms: C_2  and  N_5
REMARK    2  A    between atoms: N_5  and  C_6
REMARK    3  A    between atoms: C_6  and  C_7
REMARK    4  A    between atoms: C_7  and  C_9
REMARK                            x       y       z     vdW  Elec       q    Type
REMARK                         _______ _______ _______ _____ _____    ______ ____
ROOT
ATOM      1  C   UNL     1     -11.531  15.943  69.518  0.00  0.00    +0.192 C 
ATOM      2  O   UNL     1     -10.342  15.362  70.275  0.00  0.00    -0.217 OA
ENDROOT
BRANCH   1   3
ATOM      3  C   UNL     1     -12.498  15.740  70.810  0.00  0.00    +0.015 A 
ATOM      4  C   UNL     1     -11.920  16.223  71.967  0.00  0.00    +0.040 A 
ATOM      5  C   UNL     1     -12.423  15.812  73.175  0.00  0.00    +0.199 A 
ATOM      6  O   UNL     1     -12.439  16.646  74.284  0.00  0.00    -0.286 OA
ATOM      7  C   UNL     1     -12.997  14.564  73.263  0.00  0.00    +0.084 A 
ATOM      8  C   UNL     1     -13.249  13.877  72.089  0.00  0.00    +0.199 A 
ATOM      9  O   UNL     1     -13.537  12.512  72.180  0.00  0.00    -0.286 OA
ATOM     10  C   UNL     1     -13.049  14.468  70.856  0.00  0.00    +0.040 A 
ENDBRANCH   1   3
BRANCH   1  11
ATOM     11  C   UNL     1     -11.952  14.460  68.915  0.00  0.00    +0.126 C 
BRANCH  11  12
ATOM     12  N   UNL     1     -11.833  14.625  67.472  0.00  0.00    -0.218 NA
BRANCH  12  14
ATOM     13  C   UNL     1     -11.545  13.320  67.040  0.00  0.00    +0.017 C 
ATOM     14  C   UNL     1     -11.631  13.296  66.954  0.00  0.00    +0.060 C 
ATOM     15  C   UNL     1     -12.295  13.088  65.630  0.00  0.00    +0.017 C 
ATOM     16  C   UNL     1     -11.729  12.169  67.917  0.00  0.00    +0.017 C 
ENDBRANCH  12  14
ENDBRANCH  11  12
ENDBRANCH   1  11
TORSDOF 4
ENDMDL
MODEL 3
REMARK VINA RESULT:      -6.0      1.312      1.619
REMARK  Name = 
REMARK  4 active torsions:
REMARK  status: ('A' for Active; 'I' for Inactive)
REMARK    1  A    between atoms: C_2  and  N_5
REMARK    2  A    between atoms: N_5  and  C_6
REMARK    3  A    between atoms: C_6  and  C_7
REMARK    4  A    between atoms: C_7  and  C_9
REMARK                            x       y       z     vdW  Elec       q    Type
REMARK                         _______ _______ _______ _____ _____    ______ ____
ROOT
ATOM      1  C   UNL     1     -11.098  15.084  69.862  0.00  0.00    +0.192 C 
ATOM      2  O   UNL     1     -11.402  16.578  69.899  0.00  0.00    -0.217 OA
ENDROOT
BRANCH   1   3
ATOM      3  C   UNL     1     -11.567  14.991  68.307  0.00  0.00    +0.015 A 
ATOM      4  C   UNL     1     -11.622  13.686  67.862  0.00  0.00    +0.040 A 
ATOM      5  C   UNL     1     -11.639  13.452  66.510  0.00  0.00    +0.199 A 
ATOM      6  O   UNL     1     -12.334  12.384  65.961  0.00  0.00    -0.286 OA
ATOM      7  C   UNL     1     -11.011  14.348  65.675  0.00  0.00    +0.084 A 
ATOM      8  C   UNL     1     -10.596  15.555  66.208  0.00  0.00    +0.199 A 
ATOM      9  O   UNL     1      -9.700  16.326  65.458  0.00  0.00    -0.286 OA
ATOM     10  C   UNL     1     -10.906  15.911  67.506  0.00  0.00    +0.040 A 
ENDBRANCH   1   3
BRANCH   1  11
ATOM     11  C   UNL     1     -12.620  14.698  70.389  0.00  0.00    +0.126 C 
BRANCH  11  12
ATOM     12  N   UNL     1     -12.989  15.825  71.236  0.00  0.00    -0.218 NA
BRANCH  12  14
ATOM     13  C   UNL     1     -13.607  15.215  72.341  0.00  0.00    +0.017 C 
ATOM     14  C   UNL     1     -13.529  15.235  72.436  0.00  0.00    +0.060 C 
ATOM     15  C   UNL     1     -12.917  15.800  73.678  0.00  0.00    +0.017 C 
ATOM     16  C   UNL     1     -13.755  13.768  72.430  0.00  0.00    +0.017 C 
ENDBRANCH  12  14
ENDBRANCH  11  12
ENDBRANCH   1  11
TORSDOF 4
ENDMDL
MODEL 4
REMARK VINA RESULT:      -6.0      4.167      4.916
REMARK  Name = 
REMARK  4 active torsions:
REMARK  status: ('A' for Active; 'I' for Inactive)
REMARK    1  A    between atoms: C_2  and  N_5
REMARK    2  A    between atoms: N_5  and  C_6
REMARK    3  A    between atoms: C_6  and  C_7
REMARK    4  A    between atoms: C_7  and  C_9
REMARK                            x       y       z     vdW  Elec       q    Type
REMARK                         _______ _______ _______ _____ _____    ______ ____
ROOT
ATOM      1  C   UNL     1     -10.196  16.007  65.102  0.00  0.00    +0.192 C 
ATOM      2  O   UNL     1     -11.258  16.829  64.379  0.00  0.00    -0.217 OA
ENDROOT
BRANCH   1   3
ATOM      3  C   UNL     1     -11.309  14.916  65.570  0.00  0.00    +0.015 A 
ATOM      4  C   UNL     1     -10.819  14.065  66.540  0.00  0.00    +0.040 A 
ATOM      5  C   UNL     1     -11.480  12.887  66.775  0.00  0.00    +0.199 A 
ATOM      6  O   UNL     1     -11.544  12.323  68.042  0.00  0.00    -0.286 OA
ATOM      7  C   UNL     1     -12.162  12.291  65.738  0.00  0.00    +0.084 A 
ATOM      8  C   UNL     1     -12.344  13.018  64.575  0.00  0.00    +0.199 A 
ATOM      9  O   UNL     1     -12.753  12.325  63.431  0.00  0.00    -0.286 OA
ATOM     10  C   UNL     1     -11.966  14.344  64.491  0.00  0.00    +0.040 A 
ENDBRANCH   1   3
BRANCH   1  11
ATOM     11  C   UNL     1     -10.390  16.871  66.501  0.00  0.00    +0.126 C 
BRANCH  11  12
ATOM     12  N   UNL     1     -10.309  18.259  66.065  0.00  0.00    -0.218 NA
BRANCH  12  14
ATOM     13  C   UNL     1     -10.454  18.944  67.284  0.00  0.00    +0.017 C 
ATOM     14  C   UNL     1     -10.375  19.040  67.275  0.00  0.00    +0.060 C 
ATOM     15  C   UNL     1      -9.831  20.421  67.098  0.00  0.00    +0.017 C 
ATOM     16  C   UNL     1     -10.019  18.357  68.545  0.00  0.00    +0.017 C 
ENDBRANCH  12  14
ENDBRANCH  11  12
ENDBRANCH   1  11
TORSDOF 4
ENDMDL
MODEL 5
REMARK VINA RESULT:      -6.0      1.657      2.856
REMARK  Name = 
REMARK  4 active torsions:
REMARK  status: ('A' for Active; 'I' for Inactive)
REMARK    1  A    between atoms: C_2  and  N_5
REMARK    2  A    between atoms: N_5  and  C_6
REMARK    3  A    between atoms: C_6  and  C_7
REMARK    4  A    between atoms: C_7  and  C_9
REMARK                            x       y       z     vdW  Elec       q    Type
REMARK                         _______ _______ _______ _____ _____    ______ ____
ROOT
ATOM      1  C   UNL     1     -10.137  15.626  67.884  0.00  0.00    +0.192 C 
ATOM      2  O   UNL     1     -10.519  16.753  66.930  0.00  0.00    -0.217 OA
ENDROOT
BRANCH   1   3
ATOM      3  C   UNL     1     -10.471  14.507  66.752  0.00  0.00    +0.015 A 
ATOM      4  C   UNL     1     -11.449  14.936  65.877  0.00  0.00    +0.040 A 
ATOM      5  C   UNL     1     -12.097  14.003  65.108  0.00  0.00    +0.199 A 
ATOM      6  O   UNL     1     -12.536  14.291  63.823  0.00  0.00    -0.286 OA
ATOM      7  C   UNL     1     -12.247  12.727  65.601  0.00  0.00    +0.084 A 
ATOM      8  C   UNL     1     -11.539  12.379  66.738  0.00  0.00    +0.199 A 
ATOM      9  O   UNL     1     -11.915  11.211  67.409  0.00  0.00    -0.286 OA
ATOM     10  C   UNL     1     -10.614  13.240  67.297  0.00  0.00    +0.040 A 
ENDBRANCH   1   3
BRANCH   1  11
ATOM     11  C   UNL     1     -11.675  15.535  68.491  0.00  0.00    +0.126 C 
BRANCH  11  12
ATOM     12  N   UNL     1     -11.628  16.375  69.681  0.00  0.00    -0.218 NA
BRANCH  12  14
ATOM     13  C   UNL     1     -12.401  15.627  70.585  0.00  0.00    +0.017 C 
ATOM     14  C   UNL     1     -12.341  15.637  70.694  0.00  0.00    +0.060 C 
ATOM     15  C   UNL     1     -11.971  16.060  72.080  0.00  0.00    +0.017 C 
ATOM     16  C   UNL     1     -12.507  14.177  70.480  0.00  0.00    +0.017 C 
ENDBRANCH  12  14
ENDBRANCH  11  12
ENDBRANCH   1  11
TORSDOF 4
ENDMDL
MODEL 6
REMARK VINA RESULT:      -5.9      2.232      5.435
REMARK  Name = 
REMARK  4 active torsions:
REMARK  status: ('A' for Active; 'I' for Inactive)
REMARK    1  A    between atoms: C_2  and  N_5
REMARK    2  A    between atoms: N_5  and  C_6
REMARK    3  A    between atoms: C_6  and  C_7
REMARK    4  A    between atoms: C_7  and  C_9
REMARK                            x       y       z     vdW  Elec       q    Type
REMARK                         _______ _______ _______ _____ _____    ______ ____
ROOT
ATOM      1  C   UNL     1     -11.628  15.646  69.143  0.00  0.00    +0.192 C 
ATOM      2  O   UNL     1     -10.134  15.764  69.427  0.00  0.00    -0.217 OA
ENDROOT
BRANCH   1   3
ATOM      3  C   UNL     1     -11.889  14.974  70.601  0.00  0.00    +0.015 A 
ATOM      4  C   UNL     1     -12.500  13.741  70.498  0.00  0.00    +0.040 A 
ATOM      5  C   UNL     1     -13.111  13.216  71.608  0.00  0.00    +0.199 A 
ATOM      6  O   UNL     1     -13.140  11.849  71.850  0.00  0.00    -0.286 OA
ATOM      7  C   UNL     1     -13.643  14.076  72.541  0.00  0.00    +0.084 A 
ATOM      8  C   UNL     1     -13.336  15.421  72.438  0.00  0.00    +0.199 A 
ATOM      9  O   UNL     1     -14.104  16.325  73.179  0.00  0.00    -0.286 OA
ATOM     10  C   UNL     1     -12.426  15.879  71.504  0.00  0.00    +0.040 A 
ENDBRANCH   1   3
BRANCH   1  11
ATOM     11  C   UNL     1     -11.440  14.158  68.442  0.00  0.00    +0.126 C 
BRANCH  11  12
ATOM     12  N   UNL     1     -12.016  14.324  67.114  0.00  0.00    -0.218 NA
BRANCH  12  14
ATOM     13  C   UNL     1     -11.630  13.123  66.495  0.00  0.00    +0.017 C 
ATOM     14  C   UNL     1     -11.723  13.097  66.417  0.00  0.00    +0.060 C 
ATOM     15  C   UNL     1     -12.526  12.941  65.165  0.00  0.00    +0.017 C 
ATOM     16  C   UNL     1     -11.555  11.872  67.241  0.00  0.00    +0.017 C 
ENDBRANCH  12  14
ENDBRANCH  11  12
ENDBRANCH   1  11
TORSDOF 4
ENDMDL
MODEL 7
REMARK VINA RESULT:      -5.9      2.893      5.539
REMARK  Name = 
REMARK  4 active torsions:
REMARK  status: ('A' for Active; 'I' for Inactive)
REMARK    1  A    between atoms: C_2  and  N_5
REMARK    2  A    between atoms: N_5  and  C_6
REMARK    3  A    between atoms: C_6  and  C_7
REMARK    4  A    between atoms: C_7  and  C_9
REMARK                            x       y       z     vdW  Elec       q    Type
REMARK                         _______ _______ _______ _____ _____    ______ ____
ROOT
ATOM      1  C   UNL     1     -10.849  15.218  69.490  0.00  0.00    +0.192 C 
ATOM      2  O   UNL     1     -11.828  15.377  68.331  0.00  0.00    -0.217 OA
ENDROOT
BRANCH   1   3
ATOM      3  C   UNL     1     -12.067  15.237  70.568  0.00  0.00    +0.015 A 
ATOM      4  C   UNL     1     -11.709  15.874  71.739  0.00  0.00    +0.040 A 
ATOM      5  C   UNL     1     -12.468  15.662  72.861  0.00  0.00    +0.199 A 
ATOM      6  O   UNL     1     -12.660  16.654  73.813  0.00  0.00    -0.286 OA
ATOM      7  C   UNL     1     -13.117  14.457  73.005  0.00  0.00    +0.084 A 
ATOM      8  C   UNL     1     -13.164  13.608  71.913  0.00  0.00    +0.199 A 
ATOM      9  O   UNL     1     -13.542  12.280  72.136  0.00  0.00    -0.286 OA
ATOM     10  C   UNL     1     -12.687  14.001  70.678  0.00  0.00    +0.040 A 
ENDBRANCH   1   3
BRANCH   1  11
ATOM     11  C   UNL     1     -10.646  16.856  69.625  0.00  0.00    +0.126 C 
BRANCH  11  12
ATOM     12  N   UNL     1     -10.875  17.346  68.271  0.00  0.00    -0.218 NA
BRANCH  12  14
ATOM     13  C   UNL     1     -10.109  18.525  68.296  0.00  0.00    +0.017 C 
ATOM     14  C   UNL     1     -10.122  18.572  68.181  0.00  0.00    +0.060 C 
ATOM     15  C   UNL     1     -10.566  19.436  67.044  0.00  0.00    +0.017 C 
ATOM     16  C   UNL     1      -8.656  18.488  68.403  0.00  0.00    +0.017 C 
ENDBRANCH  12  14
ENDBRANCH  11  12
ENDBRANCH   1  11
TORSDOF 4
ENDMDL
MODEL 8
REMARK VINA RESULT:      -5.8      2.548      6.155
REMARK  Name = 
REMARK  4 active torsions:
REMARK  status: ('A' for Active; 'I' for Inactive)
REMARK    1  A    between atoms: C_2  and  N_5
REMARK    2  A    between atoms: N_5  and  C_6
REMARK    3  A    between atoms: C_6  and  C_7
REMARK    4  A    between atoms: C_7  and  C_9
REMARK                            x       y       z     vdW  Elec       q    Type
REMARK                         _______ _______ _______ _____ _____    ______ ____
ROOT
ATOM      1  C   UNL     1     -10.804  12.311  68.168  0.00  0.00    +0.192 C 
ATOM      2  O   UNL     1     -12.092  11.507  68.029  0.00  0.00    -0.217 OA
ENDROOT
BRANCH   1   3
ATOM      3  C   UNL     1     -11.634  13.625  68.647  0.00  0.00    +0.015 A 
ATOM      4  C   UNL     1     -10.951  14.793  68.373  0.00  0.00    +0.040 A 
ATOM      5  C   UNL     1     -11.325  15.941  69.024  0.00  0.00    +0.199 A 
ATOM      6  O   UNL     1     -11.243  17.187  68.418  0.00  0.00    -0.286 OA
ATOM      7  C   UNL     1     -11.867  15.841  70.285  0.00  0.00    +0.084 A 
ATOM      8  C   UNL     1     -12.224  14.586  70.744  0.00  0.00    +0.199 A 
ATOM      9  O   UNL     1     -12.481  14.438  72.111  0.00  0.00    -0.286 OA
ATOM     10  C   UNL     1     -12.158  13.476  69.922  0.00  0.00    +0.040 A 
ENDBRANCH   1   3
BRANCH   1  11
ATOM     11  C   UNL     1     -10.862  12.796  66.586  0.00  0.00    +0.126 C 
BRANCH  11  12
ATOM     12  N   UNL     1     -12.065  12.153  66.071  0.00  0.00    -0.218 NA
BRANCH  12  14
ATOM     13  C   UNL     1     -12.462  12.970  64.999  0.00  0.00    +0.017 C 
ATOM     14  C   UNL     1     -12.424  12.909  64.897  0.00  0.00    +0.060 C 
ATOM     15  C   UNL     1     -12.432  12.074  63.657  0.00  0.00    +0.017 C 
ATOM     16  C   UNL     1     -11.848  14.271  64.763  0.00  0.00    +0.017 C 
ENDBRANCH  12  14
ENDBRANCH  11  12
ENDBRANCH   1  11
TORSDOF 4
ENDMDL
MODEL 9
REMARK VINA RESULT:      -5.7      3.820      5.430
REMARK  Name = 
REMARK  4 active torsions:
REMARK  status: ('A' for Active; 'I' for Inactive)
REMARK    1  A    between atoms: C_2  and  N_5
REMARK    2  A    between atoms: N_5  and  C_6
REMARK    3  A    between atoms: C_6  and  C_7
REMARK    4  A    between atoms: C_7  and  C_9
REMARK                            x       y       z     vdW  Elec       q    Type
REMARK                         _______ _______ _______ _____ _____    ______ ____
ROOT
ATOM      1  C   UNL     1     -11.813  11.165  70.561  0.00  0.00    +0.192 C 
ATOM      2  O   UNL     1     -12.850  10.742  69.526  0.00  0.00    -0.217 OA
ENDROOT
BRANCH   1   3
ATOM      3  C   UNL     1     -11.985   9.759  71.360  0.00  0.00    +0.015 A 
ATOM      4  C   UNL     1     -11.495   8.691  70.636  0.00  0.00    +0.040 A 
ATOM      5  C   UNL     1     -11.883   7.424  70.989  0.00  0.00    +0.199 A 
ATOM      6  O   UNL     1     -11.034   6.334  70.855  0.00  0.00    -0.286 OA
ATOM      7  C   UNL     1     -13.122   7.246  71.562  0.00  0.00    +0.084 A 
ATOM      8  C   UNL     1     -13.820   8.369  71.967  0.00  0.00    +0.199 A 
ATOM      9  O   UNL     1     -15.180   8.222  72.258  0.00  0.00    -0.286 OA
ATOM     10  C   UNL     1     -13.249   9.626  71.917  0.00  0.00    +0.040 A 
ENDBRANCH   1   3
BRANCH   1  11
ATOM     11  C   UNL     1     -12.961  11.893  71.505  0.00  0.00    +0.126 C 
BRANCH  11  12
ATOM     12  N   UNL     1     -12.804  13.312  71.210  0.00  0.00    -0.218 NA
BRANCH  12  14
ATOM     13  C   UNL     1     -13.521  13.901  72.265  0.00  0.00    +0.017 C 
ATOM     14  C   UNL     1     -13.583  13.995  72.212  0.00  0.00    +0.060 C 
ATOM     15  C   UNL     1     -14.690  14.809  71.622  0.00  0.00    +0.017 C 
ATOM     16  C   UNL     1     -12.845  14.619  73.340  0.00  0.00    +0.017 C 
ENDBRANCH  12  14
ENDBRANCH  11  12
ENDBRANCH   1  11
TORSDOF 4
ENDMDL
