MODEL 1
REMARK VINA RESULT:      -6.3      0.000      0.000
REMARK  Name = 
REMARK  12 active torsions:
REMARK  status: ('A' for Active; 'I' for Inactive)
REMARK    1  A    between atoms: C_2  and  C_3
REMARK    2  A    between atoms: C_3  and  C_4
REMARK    3  A    between atoms: C_4  and  C_5
REMARK    4  A    between atoms: C_5  and  C_6
REMARK    5  A    between atoms: C_6  and  C_9
REMARK    6  A    between atoms: C_10  and  C_11
REMARK    7  A    between atoms: C_12  and  C_13
REMARK    8  A    between atoms: C_13  and  C_14
REMARK    9  A    between atoms: C_15  and  C_16
REMARK   10  A    between atoms: C_16  and  C_17
REMARK   11  A    between atoms: C_17  and  C_18
REMARK   12  A    between atoms: C_18  and  C_19
REMARK                            x       y       z     vdW  Elec       q    Type
REMARK                         _______ _______ _______ _____ _____    ______ ____
ROOT
ATOM      1  C   UNL     1     -11.547  13.630  66.865  0.00  0.00    +0.055 C 
ATOM      2  C   UNL     1     -10.781  14.464  65.591  0.00  0.00    +0.159 C 
ATOM      3  O   UNL     1      -9.358  14.242  66.091  0.00  0.00    -0.223 OA
ATOM      4  C   UNL     1     -10.624  13.261  64.526  0.00  0.00    +0.066 C 
ATOM      5  C   UNL     1     -11.428  12.007  65.131  0.00  0.00    +0.155 C 
ATOM      6  O   UNL     1     -12.698  12.795  65.389  0.00  0.00    -0.223 OA
ATOM      7  C   UNL     1     -10.649  12.263  66.623  0.00  0.00    +0.041 C 
ENDROOT
BRANCH   1   9
ATOM      8  C   UNL     1     -11.246  14.449  69.147  0.00  0.00    -0.001 C 
ATOM      9  C   UNL     1     -10.637  14.243  68.021  0.00  0.00    -0.026 C 
BRANCH   8  10
ATOM     10  C   UNL     1     -11.532  15.573  69.991  0.00  0.00    +0.145 C 
ATOM     11  O   UNL     1     -12.831  16.106  69.868  0.00  0.00    -0.221 OA
ATOM     12  C   UNL     1     -10.615  16.697  69.505  0.00  0.00    +0.038 C 
BRANCH  10  13
ATOM     13  C   UNL     1     -11.359  15.428  71.451  0.00  0.00    +0.035 C 
BRANCH  13  14
ATOM     14  C   UNL     1     -12.427  15.920  72.352  0.00  0.00    +0.003 C 
BRANCH  14  15
ATOM     15  C   UNL     1     -12.790  14.714  73.193  0.00  0.00    +0.000 C 
BRANCH  15  17
ATOM     16  C   UNL     1     -14.337  13.962  72.143  0.00  0.00    +0.000 C 
ATOM     17  C   UNL     1     -13.398  13.594  72.355  0.00  0.00    +0.000 C 
ENDBRANCH  15  17
ENDBRANCH  14  15
ENDBRANCH  13  14
ENDBRANCH  10  13
ENDBRANCH   8  10
ENDBRANCH   1   9
BRANCH   7  18
ATOM     18  C   UNL     1     -11.680  11.280  67.366  0.00  0.00    +0.029 C 
BRANCH  18  19
ATOM     19  C   UNL     1     -10.836  10.445  68.255  0.00  0.00    -0.031 C 
ATOM     20  C   UNL     1     -10.806  10.802  69.548  0.00  0.00    -0.031 C 
BRANCH  20  21
ATOM     21  C   UNL     1     -12.145  10.769  70.185  0.00  0.00    +0.026 C 
BRANCH  21  22
ATOM     22  C   UNL     1     -12.206   9.888  71.345  0.00  0.00    +0.016 C 
BRANCH  22  23
ATOM     23  C   UNL     1     -13.297   9.368  71.988  0.00  0.00    +0.114 C 
BRANCH  23  24
ATOM     24  C   UNL     1     -14.130   8.251  71.793  0.00  0.00    +0.365 C 
ATOM     25  O   UNL     1     -15.383   8.077  72.346  0.00  0.00    -0.246 OA
ATOM     26  O   UNL     1     -13.522   7.181  71.457  0.00  0.00    -0.246 OA
ENDBRANCH  23  24
ENDBRANCH  22  23
ENDBRANCH  21  22
ENDBRANCH  20  21
ENDBRANCH  18  19
ENDBRANCH   7  18
TORSDOF 12
ENDMDL
MODEL 2
REMARK VINA RESULT:      -6.1      2.260      5.705
REMARK  Name = 
REMARK  12 active torsions:
REMARK  status: ('A' for Active; 'I' for Inactive)
REMARK    1  A    between atoms: C_2  and  C_3
REMARK    2  A    between atoms: C_3  and  C_4
REMARK    3  A    between atoms: C_4  and  C_5
REMARK    4  A    between atoms: C_5  and  C_6
REMARK    5  A    between atoms: C_6  and  C_9
REMARK    6  A    between atoms: C_10  and  C_11
REMARK    7  A    between atoms: C_12  and  C_13
REMARK    8  A    between atoms: C_13  and  C_14
REMARK    9  A    between atoms: C_15  and  C_16
REMARK   10  A    between atoms: C_16  and  C_17
REMARK   11  A    between atoms: C_17  and  C_18
REMARK   12  A    between atoms: C_18  and  C_19
REMARK                            x       y       z     vdW  Elec       q    Type
REMARK                         _______ _______ _______ _____ _____    ______ ____
ROOT
ATOM      1  C   UNL     1     -10.607  12.021  68.480  0.00  0.00    +0.055 C 
ATOM      2  C   UNL     1     -10.768  10.772  69.629  0.00  0.00    +0.159 C 
ATOM      3  O   UNL     1     -12.292  10.772  69.651  0.00  0.00    -0.223 OA
ATOM      4  C   UNL     1     -10.755   9.489  68.648  0.00  0.00    +0.066 C 
ATOM      5  C   UNL     1     -10.407  10.041  67.179  0.00  0.00    +0.155 C 
ATOM      6  O   UNL     1      -9.184  10.816  67.631  0.00  0.00    -0.223 OA
ATOM      7  C   UNL     1     -11.582  11.255  67.386  0.00  0.00    +0.041 C 
ENDROOT
BRANCH   1   9
ATOM      8  C   UNL     1     -11.659  14.206  68.778  0.00  0.00    -0.001 C 
ATOM      9  C   UNL     1     -11.737  12.954  69.108  0.00  0.00    -0.026 C 
BRANCH   8  10
ATOM     10  C   UNL     1     -11.491  15.457  69.457  0.00  0.00    +0.145 C 
ATOM     11  O   UNL     1     -11.764  16.605  68.687  0.00  0.00    -0.221 OA
ATOM     12  C   UNL     1      -9.996  15.559  69.769  0.00  0.00    +0.038 C 
BRANCH  10  13
ATOM     13  C   UNL     1     -12.244  15.696  70.706  0.00  0.00    +0.035 C 
BRANCH  13  14
ATOM     14  C   UNL     1     -11.675  15.221  71.988  0.00  0.00    +0.003 C 
BRANCH  14  15
ATOM     15  C   UNL     1     -12.885  14.824  72.808  0.00  0.00    +0.000 C 
BRANCH  15  17
ATOM     16  C   UNL     1     -13.659  13.031  72.310  0.00  0.00    +0.000 C 
ATOM     17  C   UNL     1     -13.874  13.990  72.001  0.00  0.00    +0.000 C 
ENDBRANCH  15  17
ENDBRANCH  14  15
ENDBRANCH  13  14
ENDBRANCH  10  13
ENDBRANCH   8  10
ENDBRANCH   1   9
BRANCH   7  18
ATOM     18  C   UNL     1     -11.024  12.057  66.111  0.00  0.00    +0.029 C 
BRANCH  18  19
ATOM     19  C   UNL     1     -12.235  12.570  65.425  0.00  0.00    -0.031 C 
ATOM     20  C   UNL     1     -12.365  13.904  65.373  0.00  0.00    -0.031 C 
BRANCH  20  21
ATOM     21  C   UNL     1     -11.241  14.564  64.664  0.00  0.00    +0.026 C 
BRANCH  21  22
ATOM     22  C   UNL     1     -10.529  15.528  65.493  0.00  0.00    +0.016 C 
BRANCH  22  23
ATOM     23  C   UNL     1      -9.291  15.434  66.072  0.00  0.00    +0.114 C 
BRANCH  23  24
ATOM     24  C   UNL     1      -8.269  16.346  66.392  0.00  0.00    +0.365 C 
ATOM     25  O   UNL     1      -7.949  17.479  65.671  0.00  0.00    -0.246 OA
ATOM     26  O   UNL     1      -7.333  15.870  67.116  0.00  0.00    -0.246 OA
ENDBRANCH  23  24
ENDBRANCH  22  23
ENDBRANCH  21  22
ENDBRANCH  20  21
ENDBRANCH  18  19
ENDBRANCH   7  18
TORSDOF 12
ENDMDL
MODEL 3
REMARK VINA RESULT:      -5.9      2.314      5.635
REMARK  Name = 
REMARK  12 active torsions:
REMARK  status: ('A' for Active; 'I' for Inactive)
REMARK    1  A    between atoms: C_2  and  C_3
REMARK    2  A    between atoms: C_3  and  C_4
REMARK    3  A    between atoms: C_4  and  C_5
REMARK    4  A    between atoms: C_5  and  C_6
REMARK    5  A    between atoms: C_6  and  C_9
REMARK    6  A    between atoms: C_10  and  C_11
REMARK    7  A    between atoms: C_12  and  C_13
REMARK    8  A    between atoms: C_13  and  C_14
REMARK    9  A    between atoms: C_15  and  C_16
REMARK   10  A    between atoms: C_16  and  C_17
REMARK   11  A    between atoms: C_17  and  C_18
REMARK   12  A    between atoms: C_18  and  C_19
REMARK                            x       y       z     vdW  Elec       q    Type
REMARK                         _______ _______ _______ _____ _____    ______ ____
ROOT
ATOM      1  C   UNL     1     -10.058  11.653  68.437  0.00  0.00    +0.055 C 
ATOM      2  C   UNL     1     -10.962  10.753  69.566  0.00  0.00    +0.159 C 
ATOM      3  O   UNL     1     -12.287  10.845  68.817  0.00  0.00    -0.223 OA
ATOM      4  C   UNL     1     -10.713   9.262  68.997  0.00  0.00    +0.066 C 
ATOM      5  C   UNL     1      -9.618   9.397  67.828  0.00  0.00    +0.155 C 
ATOM      6  O   UNL     1      -8.641  10.191  68.673  0.00  0.00    -0.223 OA
ATOM      7  C   UNL     1     -10.515  10.688  67.174  0.00  0.00    +0.041 C 
ENDROOT
BRANCH   1   9
ATOM      8  C   UNL     1     -10.737  13.998  68.331  0.00  0.00    -0.001 C 
ATOM      9  C   UNL     1     -11.164  12.779  68.214  0.00  0.00    -0.026 C 
BRANCH   8  10
ATOM     10  C   UNL     1     -11.022  15.130  69.164  0.00  0.00    +0.145 C 
ATOM     11  O   UNL     1     -11.921  16.069  68.622  0.00  0.00    -0.221 OA
ATOM     12  C   UNL     1      -9.702  15.896  69.282  0.00  0.00    +0.038 C 
BRANCH  10  13
ATOM     13  C   UNL     1     -11.548  14.898  70.524  0.00  0.00    +0.035 C 
BRANCH  13  14
ATOM     14  C   UNL     1     -12.833  15.525  70.913  0.00  0.00    +0.003 C 
BRANCH  14  15
ATOM     15  C   UNL     1     -13.109  14.982  72.300  0.00  0.00    +0.000 C 
BRANCH  15  17
ATOM     16  C   UNL     1     -12.450  15.364  74.166  0.00  0.00    +0.000 C 
ATOM     17  C   UNL     1     -12.732  15.980  73.390  0.00  0.00    +0.000 C 
ENDBRANCH  15  17
ENDBRANCH  14  15
ENDBRANCH  13  14
ENDBRANCH  10  13
ENDBRANCH   8  10
ENDBRANCH   1   9
BRANCH   7  18
ATOM     18  C   UNL     1      -9.286  11.102  66.225  0.00  0.00    +0.029 C 
BRANCH  18  19
ATOM     19  C   UNL     1      -9.649  10.583  64.884  0.00  0.00    -0.031 C 
ATOM     20  C   UNL     1     -10.738  11.122  64.316  0.00  0.00    -0.031 C 
BRANCH  20  21
ATOM     21  C   UNL     1     -10.616  12.587  64.115  0.00  0.00    +0.026 C 
BRANCH  21  22
ATOM     22  C   UNL     1     -11.762  13.333  64.621  0.00  0.00    +0.016 C 
BRANCH  22  23
ATOM     23  C   UNL     1     -11.933  14.684  64.754  0.00  0.00    +0.114 C 
BRANCH  23  24
ATOM     24  C   UNL     1     -11.100  15.811  64.629  0.00  0.00    +0.365 C 
ATOM     25  O   UNL     1     -10.046  16.127  65.464  0.00  0.00    -0.246 OA
ATOM     26  O   UNL     1     -11.613  16.791  63.995  0.00  0.00    -0.246 OA
ENDBRANCH  23  24
ENDBRANCH  22  23
ENDBRANCH  21  22
ENDBRANCH  20  21
ENDBRANCH  18  19
ENDBRANCH   7  18
TORSDOF 12
ENDMDL
MODEL 4
REMARK VINA RESULT:      -5.9      3.368      5.335
REMARK  Name = 
REMARK  12 active torsions:
REMARK  status: ('A' for Active; 'I' for Inactive)
REMARK    1  A    between atoms: C_2  and  C_3
REMARK    2  A    between atoms: C_3  and  C_4
REMARK    3  A    between atoms: C_4  and  C_5
REMARK    4  A    between atoms: C_5  and  C_6
REMARK    5  A    between atoms: C_6  and  C_9
REMARK    6  A    between atoms: C_10  and  C_11
REMARK    7  A    between atoms: C_12  and  C_13
REMARK    8  A    between atoms: C_13  and  C_14
REMARK    9  A    between atoms: C_15  and  C_16
REMARK   10  A    between atoms: C_16  and  C_17
REMARK   11  A    between atoms: C_17  and  C_18
REMARK   12  A    between atoms: C_18  and  C_19
REMARK                            x       y       z     vdW  Elec       q    Type
REMARK                         _______ _______ _______ _____ _____    ______ ____
ROOT
ATOM      1  C   UNL     1     -10.407  14.157  66.015  0.00  0.00    +0.055 C 
ATOM      2  C   UNL     1     -10.323  13.223  64.593  0.00  0.00    +0.159 C 
ATOM      3  O   UNL     1     -10.021  11.901  65.290  0.00  0.00    -0.223 OA
ATOM      4  C   UNL     1     -11.878  12.817  64.434  0.00  0.00    +0.066 C 
ATOM      5  C   UNL     1     -12.683  13.647  65.550  0.00  0.00    +0.155 C 
ATOM      6  O   UNL     1     -12.078  14.983  65.162  0.00  0.00    -0.223 OA
ATOM      7  C   UNL     1     -11.531  13.159  66.705  0.00  0.00    +0.041 C 
ENDROOT
BRANCH   1   9
ATOM      8  C   UNL     1      -8.530  14.253  67.577  0.00  0.00    -0.001 C 
ATOM      9  C   UNL     1      -9.131  13.500  66.708  0.00  0.00    -0.026 C 
BRANCH   8  10
ATOM     10  C   UNL     1      -7.225  14.823  67.741  0.00  0.00    +0.145 C 
ATOM     11  O   UNL     1      -6.151  13.997  67.355  0.00  0.00    -0.221 OA
ATOM     12  C   UNL     1      -7.041  15.003  69.249  0.00  0.00    +0.038 C 
BRANCH  10  13
ATOM     13  C   UNL     1      -6.923  16.109  67.079  0.00  0.00    +0.035 C 
BRANCH  13  14
ATOM     14  C   UNL     1      -7.968  16.752  66.250  0.00  0.00    +0.003 C 
BRANCH  14  15
ATOM     15  C   UNL     1      -8.618  17.755  67.181  0.00  0.00    +0.000 C 
BRANCH  15  17
ATOM     16  C   UNL     1     -10.481  17.511  67.909  0.00  0.00    +0.000 C 
ATOM     17  C   UNL     1     -10.130  17.817  66.990  0.00  0.00    +0.000 C 
ENDBRANCH  15  17
ENDBRANCH  14  15
ENDBRANCH  13  14
ENDBRANCH  10  13
ENDBRANCH   8  10
ENDBRANCH   1   9
BRANCH   7  18
ATOM     18  C   UNL     1     -12.070  14.253  67.752  0.00  0.00    +0.029 C 
BRANCH  18  19
ATOM     19  C   UNL     1     -11.897  13.623  69.083  0.00  0.00    -0.031 C 
ATOM     20  C   UNL     1     -11.531  14.440  70.081  0.00  0.00    -0.031 C 
BRANCH  20  21
ATOM     21  C   UNL     1     -12.510  15.529  70.321  0.00  0.00    +0.026 C 
BRANCH  21  22
ATOM     22  C   UNL     1     -13.419  15.250  71.426  0.00  0.00    +0.016 C 
BRANCH  22  23
ATOM     23  C   UNL     1     -13.494  15.834  72.662  0.00  0.00    +0.114 C 
BRANCH  23  24
ATOM     24  C   UNL     1     -12.821  15.668  73.886  0.00  0.00    +0.365 C 
ATOM     25  O   UNL     1     -12.446  16.685  74.741  0.00  0.00    -0.246 OA
ATOM     26  O   UNL     1     -12.151  14.587  73.987  0.00  0.00    -0.246 OA
ENDBRANCH  23  24
ENDBRANCH  22  23
ENDBRANCH  21  22
ENDBRANCH  20  21
ENDBRANCH  18  19
ENDBRANCH   7  18
TORSDOF 12
ENDMDL
MODEL 5
REMARK VINA RESULT:      -5.9      2.805      6.152
REMARK  Name = 
REMARK  12 active torsions:
REMARK  status: ('A' for Active; 'I' for Inactive)
REMARK    1  A    between atoms: C_2  and  C_3
REMARK    2  A    between atoms: C_3  and  C_4
REMARK    3  A    between atoms: C_4  and  C_5
REMARK    4  A    between atoms: C_5  and  C_6
REMARK    5  A    between atoms: C_6  and  C_9
REMARK    6  A    between atoms: C_10  and  C_11
REMARK    7  A    between atoms: C_12  and  C_13
REMARK    8  A    between atoms: C_13  and  C_14
REMARK    9  A    between atoms: C_15  and  C_16
REMARK   10  A    between atoms: C_16  and  C_17
REMARK   11  A    between atoms: C_17  and  C_18
REMARK   12  A    between atoms: C_18  and  C_19
REMARK                            x       y       z     vdW  Elec       q    Type
REMARK                         _______ _______ _______ _____ _____    ______ ____
ROOT
ATOM      1  C   UNL     1      -9.011  15.337  67.432  0.00  0.00    +0.055 C 
ATOM      2  C   UNL     1      -8.509  16.349  66.157  0.00  0.00    +0.159 C 
ATOM      3  O   UNL     1      -9.895  16.542  65.552  0.00  0.00    -0.223 OA
ATOM      4  C   UNL     1      -8.598  17.785  66.891  0.00  0.00    +0.066 C 
ATOM      5  C   UNL     1      -8.909  17.488  68.440  0.00  0.00    +0.155 C 
ATOM      6  O   UNL     1      -7.779  16.488  68.596  0.00  0.00    -0.223 OA
ATOM      7  C   UNL     1     -10.144  16.420  67.959  0.00  0.00    +0.041 C 
ENDROOT
BRANCH   1   9
ATOM      8  C   UNL     1     -10.457  13.390  67.132  0.00  0.00    -0.001 C 
ATOM      9  C   UNL     1     -10.001  14.454  66.548  0.00  0.00    -0.026 C 
BRANCH   8  10
ATOM     10  C   UNL     1     -10.413  11.974  66.908  0.00  0.00    +0.145 C 
ATOM     11  O   UNL     1     -11.665  11.330  66.863  0.00  0.00    -0.221 OA
ATOM     12  C   UNL     1      -9.729  11.383  68.144  0.00  0.00    +0.038 C 
BRANCH  10  13
ATOM     13  C   UNL     1      -9.723  11.465  65.706  0.00  0.00    +0.035 C 
BRANCH  13  14
ATOM     14  C   UNL     1     -10.533  11.024  64.546  0.00  0.00    +0.003 C 
BRANCH  14  15
ATOM     15  C   UNL     1     -10.555  12.228  63.628  0.00  0.00    +0.000 C 
BRANCH  15  17
ATOM     16  C   UNL     1     -12.537  11.910  63.445  0.00  0.00    +0.000 C 
ATOM     17  C   UNL     1     -11.967  12.768  63.426  0.00  0.00    +0.000 C 
ENDBRANCH  15  17
ENDBRANCH  14  15
ENDBRANCH  13  14
ENDBRANCH  10  13
ENDBRANCH   8  10
ENDBRANCH   1   9
BRANCH   7  18
ATOM     18  C   UNL     1     -10.242  15.814  69.444  0.00  0.00    +0.029 C 
BRANCH  18  19
ATOM     19  C   UNL     1     -11.672  15.948  69.816  0.00  0.00    -0.031 C 
ATOM     20  C   UNL     1     -12.435  14.861  69.631  0.00  0.00    -0.031 C 
BRANCH  20  21
ATOM     21  C   UNL     1     -11.966  13.690  70.414  0.00  0.00    +0.026 C 
BRANCH  21  22
ATOM     22  C   UNL     1     -12.943  13.225  71.390  0.00  0.00    +0.016 C 
BRANCH  22  23
ATOM     23  C   UNL     1     -13.334  13.795  72.572  0.00  0.00    +0.114 C 
BRANCH  23  24
ATOM     24  C   UNL     1     -13.476  15.113  73.044  0.00  0.00    +0.365 C 
ATOM     25  O   UNL     1     -14.294  16.080  72.493  0.00  0.00    -0.246 OA
ATOM     26  O   UNL     1     -12.490  15.548  73.726  0.00  0.00    -0.246 OA
ENDBRANCH  23  24
ENDBRANCH  22  23
ENDBRANCH  21  22
ENDBRANCH  20  21
ENDBRANCH  18  19
ENDBRANCH   7  18
TORSDOF 12
ENDMDL
MODEL 6
REMARK VINA RESULT:      -5.8      3.324      6.339
REMARK  Name = 
REMARK  12 active torsions:
REMARK  status: ('A' for Active; 'I' for Inactive)
REMARK    1  A    between atoms: C_2  and  C_3
REMARK    2  A    between atoms: C_3  and  C_4
REMARK    3  A    between atoms: C_4  and  C_5
REMARK    4  A    between atoms: C_5  and  C_6
REMARK    5  A    between atoms: C_6  and  C_9
REMARK    6  A    between atoms: C_10  and  C_11
REMARK    7  A    between atoms: C_12  and  C_13
REMARK    8  A    between atoms: C_13  and  C_14
REMARK    9  A    between atoms: C_15  and  C_16
REMARK   10  A    between atoms: C_16  and  C_17
REMARK   11  A    between atoms: C_17  and  C_18
REMARK   12  A    between atoms: C_18  and  C_19
REMARK                            x       y       z     vdW  Elec       q    Type
REMARK                         _______ _______ _______ _____ _____    ______ ____
ROOT
ATOM      1  C   UNL     1      -8.784  15.917  66.814  0.00  0.00    +0.055 C 
ATOM      2  C   UNL     1      -7.821  17.133  66.109  0.00  0.00    +0.159 C 
ATOM      3  O   UNL     1      -8.931  18.174  66.007  0.00  0.00    -0.223 OA
ATOM      4  C   UNL     1      -7.244  17.838  67.442  0.00  0.00    +0.066 C 
ATOM      5  C   UNL     1      -7.707  16.924  68.680  0.00  0.00    +0.155 C 
ATOM      6  O   UNL     1      -7.192  15.633  68.072  0.00  0.00    -0.223 OA
ATOM      7  C   UNL     1      -9.285  16.907  68.041  0.00  0.00    +0.041 C 
ENDROOT
BRANCH   1   9
ATOM      8  C   UNL     1     -10.986  15.264  65.980  0.00  0.00    -0.001 C 
ATOM      9  C   UNL     1     -10.046  16.149  65.867  0.00  0.00    -0.026 C 
BRANCH   8  10
ATOM     10  C   UNL     1     -11.634  14.312  65.125  0.00  0.00    +0.145 C 
ATOM     11  O   UNL     1     -12.474  14.860  64.137  0.00  0.00    -0.221 OA
ATOM     12  C   UNL     1     -12.582  13.523  66.032  0.00  0.00    +0.038 C 
BRANCH  10  13
ATOM     13  C   UNL     1     -10.802  13.351  64.373  0.00  0.00    +0.035 C 
BRANCH  13  14
ATOM     14  C   UNL     1     -11.467  12.360  63.495  0.00  0.00    +0.003 C 
BRANCH  14  15
ATOM     15  C   UNL     1     -10.581  11.135  63.576  0.00  0.00    +0.000 C 
BRANCH  15  17
ATOM     16  C   UNL     1      -9.814   9.847  64.924  0.00  0.00    +0.000 C 
ATOM     17  C   UNL     1     -10.200  10.798  65.014  0.00  0.00    +0.000 C 
ENDBRANCH  15  17
ENDBRANCH  14  15
ENDBRANCH  13  14
ENDBRANCH  10  13
ENDBRANCH   8  10
ENDBRANCH   1   9
BRANCH   7  18
ATOM     18  C   UNL     1      -9.706  15.710  69.028  0.00  0.00    +0.029 C 
BRANCH  18  19
ATOM     19  C   UNL     1     -10.931  16.193  69.710  0.00  0.00    -0.031 C 
ATOM     20  C   UNL     1     -12.019  15.419  69.591  0.00  0.00    -0.031 C 
BRANCH  20  21
ATOM     21  C   UNL     1     -11.816  14.054  70.136  0.00  0.00    +0.026 C 
BRANCH  21  22
ATOM     22  C   UNL     1     -12.940  13.582  70.935  0.00  0.00    +0.016 C 
BRANCH  22  23
ATOM     23  C   UNL     1     -13.241  13.828  72.247  0.00  0.00    +0.114 C 
BRANCH  23  24
ATOM     24  C   UNL     1     -13.326  14.980  73.052  0.00  0.00    +0.365 C 
ATOM     25  O   UNL     1     -14.091  16.096  72.777  0.00  0.00    -0.246 OA
ATOM     26  O   UNL     1     -12.329  15.171  73.823  0.00  0.00    -0.246 OA
ENDBRANCH  23  24
ENDBRANCH  22  23
ENDBRANCH  21  22
ENDBRANCH  20  21
ENDBRANCH  18  19
ENDBRANCH   7  18
TORSDOF 12
ENDMDL
MODEL 7
REMARK VINA RESULT:      -5.8      2.222      5.100
REMARK  Name = 
REMARK  12 active torsions:
REMARK  status: ('A' for Active; 'I' for Inactive)
REMARK    1  A    between atoms: C_2  and  C_3
REMARK    2  A    between atoms: C_3  and  C_4
REMARK    3  A    between atoms: C_4  and  C_5
REMARK    4  A    between atoms: C_5  and  C_6
REMARK    5  A    between atoms: C_6  and  C_9
REMARK    6  A    between atoms: C_10  and  C_11
REMARK    7  A    between atoms: C_12  and  C_13
REMARK    8  A    between atoms: C_13  and  C_14
REMARK    9  A    between atoms: C_15  and  C_16
REMARK   10  A    between atoms: C_16  and  C_17
REMARK   11  A    between atoms: C_17  and  C_18
REMARK   12  A    between atoms: C_18  and  C_19
REMARK                            x       y       z     vdW  Elec       q    Type
REMARK                         _______ _______ _______ _____ _____    ______ ____
ROOT
ATOM      1  C   UNL     1     -10.754  13.264  66.095  0.00  0.00    +0.055 C 
ATOM      2  C   UNL     1     -11.670  13.098  64.667  0.00  0.00    +0.159 C 
ATOM      3  O   UNL     1     -13.020  12.953  65.361  0.00  0.00    -0.223 OA
ATOM      4  C   UNL     1     -11.969  14.652  64.347  0.00  0.00    +0.066 C 
ATOM      5  C   UNL     1     -11.104  15.510  65.396  0.00  0.00    +0.155 C 
ATOM      6  O   UNL     1      -9.806  14.783  65.099  0.00  0.00    -0.223 OA
ATOM      7  C   UNL     1     -11.686  14.513  66.648  0.00  0.00    +0.041 C 
ENDROOT
BRANCH   1   9
ATOM      8  C   UNL     1     -10.870  11.658  67.933  0.00  0.00    -0.001 C 
ATOM      9  C   UNL     1     -11.505  12.108  66.897  0.00  0.00    -0.026 C 
BRANCH   8  10
ATOM     10  C   UNL     1     -10.339  10.400  68.369  0.00  0.00    +0.145 C 
ATOM     11  O   UNL     1      -9.058  10.453  68.953  0.00  0.00    -0.221 OA
ATOM     12  C   UNL     1     -10.138   9.574  67.095  0.00  0.00    +0.038 C 
BRANCH  10  13
ATOM     13  C   UNL     1     -11.119   9.592  69.329  0.00  0.00    +0.035 C 
BRANCH  13  14
ATOM     14  C   UNL     1     -11.381  10.139  70.680  0.00  0.00    +0.003 C 
BRANCH  14  15
ATOM     15  C   UNL     1     -12.892  10.164  70.786  0.00  0.00    +0.000 C 
BRANCH  15  17
ATOM     16  C   UNL     1     -13.786   8.736  71.892  0.00  0.00    +0.000 C 
ATOM     17  C   UNL     1     -13.379   9.651  72.137  0.00  0.00    +0.000 C 
ENDBRANCH  15  17
ENDBRANCH  14  15
ENDBRANCH  13  14
ENDBRANCH  10  13
ENDBRANCH   8  10
ENDBRANCH   1   9
BRANCH   7  18
ATOM     18  C   UNL     1     -10.575  15.083  67.660  0.00  0.00    +0.029 C 
BRANCH  18  19
ATOM     19  C   UNL     1     -11.316  15.999  68.561  0.00  0.00    -0.031 C 
ATOM     20  C   UNL     1     -12.230  15.430  69.360  0.00  0.00    -0.031 C 
BRANCH  20  21
ATOM     21  C   UNL     1     -11.646  14.418  70.275  0.00  0.00    +0.026 C 
BRANCH  21  22
ATOM     22  C   UNL     1     -12.634  13.794  71.146  0.00  0.00    +0.016 C 
BRANCH  22  23
ATOM     23  C   UNL     1     -13.023  14.142  72.411  0.00  0.00    +0.114 C 
BRANCH  23  24
ATOM     24  C   UNL     1     -13.180  15.354  73.108  0.00  0.00    +0.365 C 
ATOM     25  O   UNL     1     -12.700  15.619  74.376  0.00  0.00    -0.246 OA
ATOM     26  O   UNL     1     -14.170  16.065  72.734  0.00  0.00    -0.246 OA
ENDBRANCH  23  24
ENDBRANCH  22  23
ENDBRANCH  21  22
ENDBRANCH  20  21
ENDBRANCH  18  19
ENDBRANCH   7  18
TORSDOF 12
ENDMDL
MODEL 8
REMARK VINA RESULT:      -5.8      4.889      8.595
REMARK  Name = 
REMARK  12 active torsions:
REMARK  status: ('A' for Active; 'I' for Inactive)
REMARK    1  A    between atoms: C_2  and  C_3
REMARK    2  A    between atoms: C_3  and  C_4
REMARK    3  A    between atoms: C_4  and  C_5
REMARK    4  A    between atoms: C_5  and  C_6
REMARK    5  A    between atoms: C_6  and  C_9
REMARK    6  A    between atoms: C_10  and  C_11
REMARK    7  A    between atoms: C_12  and  C_13
REMARK    8  A    between atoms: C_13  and  C_14
REMARK    9  A    between atoms: C_15  and  C_16
REMARK   10  A    between atoms: C_16  and  C_17
REMARK   11  A    between atoms: C_17  and  C_18
REMARK   12  A    between atoms: C_18  and  C_19
REMARK                            x       y       z     vdW  Elec       q    Type
REMARK                         _______ _______ _______ _____ _____    ______ ____
ROOT
ATOM      1  C   UNL     1      -9.248  17.410  67.440  0.00  0.00    +0.055 C 
ATOM      2  C   UNL     1     -10.386  18.511  66.813  0.00  0.00    +0.159 C 
ATOM      3  O   UNL     1     -10.600  19.276  68.114  0.00  0.00    -0.223 OA
ATOM      4  C   UNL     1      -9.391  19.660  66.268  0.00  0.00    +0.066 C 
ATOM      5  C   UNL     1      -7.899  19.082  66.421  0.00  0.00    +0.155 C 
ATOM      6  O   UNL     1      -8.206  17.776  65.714  0.00  0.00    -0.223 OA
ATOM      7  C   UNL     1      -8.272  18.615  68.015  0.00  0.00    +0.041 C 
ENDROOT
BRANCH   1   9
ATOM      8  C   UNL     1     -10.227  15.891  69.086  0.00  0.00    -0.001 C 
ATOM      9  C   UNL     1     -10.027  17.141  68.805  0.00  0.00    -0.026 C 
BRANCH   8  10
ATOM     10  C   UNL     1     -11.357  15.036  69.300  0.00  0.00    +0.145 C 
ATOM     11  O   UNL     1     -11.056  13.746  69.780  0.00  0.00    -0.221 OA
ATOM     12  C   UNL     1     -11.958  14.791  67.914  0.00  0.00    +0.038 C 
BRANCH  10  13
ATOM     13  C   UNL     1     -12.435  15.493  70.201  0.00  0.00    +0.035 C 
BRANCH  13  14
ATOM     14  C   UNL     1     -13.049  14.521  71.136  0.00  0.00    +0.003 C 
BRANCH  14  15
ATOM     15  C   UNL     1     -13.434  15.355  72.341  0.00  0.00    +0.000 C 
BRANCH  15  17
ATOM     16  C   UNL     1     -12.565  15.932  74.065  0.00  0.00    +0.000 C 
ATOM     17  C   UNL     1     -12.569  15.037  73.556  0.00  0.00    +0.000 C 
ENDBRANCH  15  17
ENDBRANCH  14  15
ENDBRANCH  13  14
ENDBRANCH  10  13
ENDBRANCH   8  10
ENDBRANCH   1   9
BRANCH   7  18
ATOM     18  C   UNL     1      -6.950  17.705  68.092  0.00  0.00    +0.029 C 
BRANCH  18  19
ATOM     19  C   UNL     1      -6.467  17.853  69.487  0.00  0.00    -0.031 C 
ATOM     20  C   UNL     1      -5.140  17.960  69.645  0.00  0.00    -0.031 C 
BRANCH  20  21
ATOM     21  C   UNL     1      -4.570  19.134  68.938  0.00  0.00    +0.026 C 
BRANCH  21  22
ATOM     22  C   UNL     1      -5.059  20.407  69.454  0.00  0.00    +0.016 C 
BRANCH  22  23
ATOM     23  C   UNL     1      -4.464  21.282  70.323  0.00  0.00    +0.114 C 
BRANCH  23  24
ATOM     24  C   UNL     1      -4.139  21.261  71.692  0.00  0.00    +0.365 C 
ATOM     25  O   UNL     1      -3.829  20.133  72.426  0.00  0.00    -0.246 OA
ATOM     26  O   UNL     1      -4.578  22.253  72.363  0.00  0.00    -0.246 OA
ENDBRANCH  23  24
ENDBRANCH  22  23
ENDBRANCH  21  22
ENDBRANCH  20  21
ENDBRANCH  18  19
ENDBRANCH   7  18
TORSDOF 12
ENDMDL
MODEL 9
REMARK VINA RESULT:      -5.8      3.486      5.508
REMARK  Name = 
REMARK  12 active torsions:
REMARK  status: ('A' for Active; 'I' for Inactive)
REMARK    1  A    between atoms: C_2  and  C_3
REMARK    2  A    between atoms: C_3  and  C_4
REMARK    3  A    between atoms: C_4  and  C_5
REMARK    4  A    between atoms: C_5  and  C_6
REMARK    5  A    between atoms: C_6  and  C_9
REMARK    6  A    between atoms: C_10  and  C_11
REMARK    7  A    between atoms: C_12  and  C_13
REMARK    8  A    between atoms: C_13  and  C_14
REMARK    9  A    between atoms: C_15  and  C_16
REMARK   10  A    between atoms: C_16  and  C_17
REMARK   11  A    between atoms: C_17  and  C_18
REMARK   12  A    between atoms: C_18  and  C_19
REMARK                            x       y       z     vdW  Elec       q    Type
REMARK                         _______ _______ _______ _____ _____    ______ ____
ROOT
ATOM      1  C   UNL     1     -11.136  15.183  66.862  0.00  0.00    +0.055 C 
ATOM      2  C   UNL     1     -10.093  14.896  65.545  0.00  0.00    +0.159 C 
ATOM      3  O   UNL     1      -8.841  14.659  66.383  0.00  0.00    -0.223 OA
ATOM      4  C   UNL     1     -10.306  13.306  65.364  0.00  0.00    +0.066 C 
ATOM      5  C   UNL     1     -11.500  12.888  66.357  0.00  0.00    +0.155 C 
ATOM      6  O   UNL     1     -12.446  13.966  65.863  0.00  0.00    -0.223 OA
ATOM      7  C   UNL     1     -10.732  13.760  67.602  0.00  0.00    +0.041 C 
ENDROOT
BRANCH   1   9
ATOM      8  C   UNL     1     -10.550  17.293  67.948  0.00  0.00    -0.001 C 
ATOM      9  C   UNL     1     -10.114  16.104  67.671  0.00  0.00    -0.026 C 
BRANCH   8  10
ATOM     10  C   UNL     1     -10.161  18.642  67.658  0.00  0.00    +0.145 C 
ATOM     11  O   UNL     1     -11.219  19.567  67.553  0.00  0.00    -0.221 OA
ATOM     12  C   UNL     1      -9.554  18.604  66.253  0.00  0.00    +0.038 C 
BRANCH  10  13
ATOM     13  C   UNL     1      -9.206  19.317  68.559  0.00  0.00    +0.035 C 
BRANCH  13  14
ATOM     14  C   UNL     1      -7.798  19.475  68.125  0.00  0.00    +0.003 C 
BRANCH  14  15
ATOM     15  C   UNL     1      -7.040  18.443  68.934  0.00  0.00    +0.000 C 
BRANCH  15  17
ATOM     16  C   UNL     1      -5.836  17.644  67.529  0.00  0.00    +0.000 C 
ATOM     17  C   UNL     1      -6.611  17.252  68.084  0.00  0.00    +0.000 C 
ENDBRANCH  15  17
ENDBRANCH  14  15
ENDBRANCH  13  14
ENDBRANCH  10  13
ENDBRANCH   8  10
ENDBRANCH   1   9
BRANCH   7  18
ATOM     18  C   UNL     1     -12.055  13.690  68.510  0.00  0.00    +0.029 C 
BRANCH  18  19
ATOM     19  C   UNL     1     -11.561  13.749  69.908  0.00  0.00    -0.031 C 
ATOM     20  C   UNL     1     -11.957  14.807  70.631  0.00  0.00    -0.031 C 
BRANCH  20  21
ATOM     21  C   UNL     1     -13.432  14.891  70.766  0.00  0.00    +0.026 C 
BRANCH  21  22
ATOM     22  C   UNL     1     -13.861  15.398  72.063  0.00  0.00    +0.016 C 
BRANCH  22  23
ATOM     23  C   UNL     1     -13.294  15.227  73.297  0.00  0.00    +0.114 C 
BRANCH  23  24
ATOM     24  C   UNL     1     -12.431  15.983  74.111  0.00  0.00    +0.365 C 
ATOM     25  O   UNL     1     -12.511  16.090  75.485  0.00  0.00    -0.246 OA
ATOM     26  O   UNL     1     -11.837  16.943  73.517  0.00  0.00    -0.246 OA
ENDBRANCH  23  24
ENDBRANCH  22  23
ENDBRANCH  21  22
ENDBRANCH  20  21
ENDBRANCH  18  19
ENDBRANCH   7  18
TORSDOF 12
ENDMDL
