MODEL 1
REMARK VINA RESULT:      -7.7      0.000      0.000
REMARK  Name = 
REMARK  8 active torsions:
REMARK  status: ('A' for Active; 'I' for Inactive)
REMARK    1  A    between atoms: O_2  and  N_3
REMARK    2  A    between atoms: C_4  and  C_5
REMARK    3  A    between atoms: C_4  and  C_31
REMARK    4  A    between atoms: N_7  and  CA_8
REMARK    5  A    between atoms: CA_12  and  C_13
REMARK    6  A    between atoms: C_16  and  C_17
REMARK    7  A    between atoms: C_17  and  S_18
REMARK    8  A    between atoms: S_18  and  C_19
REMARK                            x       y       z     vdW  Elec       q    Type
REMARK                         _______ _______ _______ _____ _____    ______ ____
ROOT
ATOM      1  CA  UNL     1     -11.298  14.574  68.228  0.00  0.00    +0.201 C 
ATOM      2  C   UNL     1     -10.447  15.782  69.072  0.00  0.00    +0.157 C 
ATOM      3  N   UNL     1     -10.390  16.387  67.677  0.00  0.00    -0.242 N 
ATOM      4  CA  UNL     1      -9.700  17.642  67.643  0.00  0.00    +0.129 C 
ATOM      5  C   UNL     1      -8.645  17.924  68.404  0.00  0.00    -0.002 C 
ATOM      6  C   UNL     1      -7.764  16.827  68.920  0.00  0.00    +0.083 C 
ATOM      7  S   UNL     1      -8.627  15.218  68.925  0.00  0.00    -0.114 S 
ATOM      8  C   UNL     1     -10.420  15.126  66.968  0.00  0.00    +0.253 C 
ATOM      9  O   UNL     1     -10.983  14.949  65.839  0.00  0.00    -0.273 OA
ENDROOT
BRANCH   1  11
ATOM     10  C   UNL     1     -10.827  12.188  67.961  0.00  0.00    +0.288 C 
ATOM     11  N   UNL     1     -10.301  13.369  68.579  0.00  0.00    -0.190 NA
ATOM     12  O   UNL     1     -12.073  11.962  68.034  0.00  0.00    -0.267 OA
BRANCH  10  14
ATOM     13  N   UNL     1      -9.375  10.293  67.554  0.00  0.00    -0.077 NA
ATOM     14  C   UNL     1     -10.033  11.317  67.091  0.00  0.00    +0.192 C 
BRANCH  14  15
ATOM     15  C   UNL     1     -10.241  11.462  65.643  0.00  0.00    +0.115 A 
ATOM     16  N   UNL     1     -11.484  11.705  65.173  0.00  0.00    -0.220 NA
ATOM     17  C   UNL     1     -11.432  12.227  63.923  0.00  0.00    +0.201 A 
ATOM     18  N   UNL     1     -12.438  13.009  63.266  0.00  0.00    -0.100 NA
ATOM     19  S   UNL     1     -10.189  11.244  63.264  0.00  0.00    -0.048 S 
ATOM     20  C   UNL     1      -9.542  10.658  64.745  0.00  0.00    +0.059 A 
ENDBRANCH  14  15
BRANCH  13  22
ATOM     21  C   UNL     1      -9.403   9.395  69.613  0.00  0.00    +0.288 C 
ATOM     22  O   UNL     1      -9.705   9.951  68.857  0.00  0.00    -0.373 OA
ENDBRANCH  13  22
ENDBRANCH  10  14
ENDBRANCH   1  11
BRANCH   4  23
ATOM     23  C   UNL     1     -10.306  18.630  66.742  0.00  0.00    +0.401 C 
ATOM     24  OXT UNL     1     -11.199  19.535  67.326  0.00  0.00    -0.239 OA
ATOM     25  O   UNL     1     -10.541  18.349  65.540  0.00  0.00    -0.239 OA
ENDBRANCH   4  23
BRANCH   5  26
ATOM     26  C   UNL     1      -7.901  19.182  68.064  0.00  0.00    +0.089 C 
BRANCH  26  27
ATOM     27  S   UNL     1      -6.227  18.647  67.567  0.00  0.00    -0.071 S 
BRANCH  27  28
ATOM     28  C   UNL     1      -4.977  19.281  68.650  0.00  0.00    +0.190 A 
ATOM     29  N   UNL     1      -4.182  20.294  68.256  0.00  0.00    -0.224 N 
ATOM     30  C   UNL     1      -4.256  20.772  66.890  0.00  0.00    +0.156 C 
ATOM     31  N   UNL     1      -3.592  21.026  69.180  0.00  0.00    -0.121 NA
ATOM     32  C   UNL     1      -3.667  20.737  70.483  0.00  0.00    +0.353 A 
ATOM     33  O   UNL     1      -3.498  21.800  71.373  0.00  0.00    -0.258 OA
ATOM     34  C   UNL     1      -4.284  19.565  70.884  0.00  0.00    +0.340 A 
ATOM     35  O   UNL     1      -4.613  19.445  72.103  0.00  0.00    -0.260 OA
ATOM     36  N   UNL     1      -4.821  18.803  69.909  0.00  0.00    -0.179 NA
ENDBRANCH  27  28
ENDBRANCH  26  27
ENDBRANCH   5  26
TORSDOF 8
ENDMDL
MODEL 2
REMARK VINA RESULT:      -7.7      2.772      9.454
REMARK  Name = 
REMARK  8 active torsions:
REMARK  status: ('A' for Active; 'I' for Inactive)
REMARK    1  A    between atoms: O_2  and  N_3
REMARK    2  A    between atoms: C_4  and  C_5
REMARK    3  A    between atoms: C_4  and  C_31
REMARK    4  A    between atoms: N_7  and  CA_8
REMARK    5  A    between atoms: CA_12  and  C_13
REMARK    6  A    between atoms: C_16  and  C_17
REMARK    7  A    between atoms: C_17  and  S_18
REMARK    8  A    between atoms: S_18  and  C_19
REMARK                            x       y       z     vdW  Elec       q    Type
REMARK                         _______ _______ _______ _____ _____    ______ ____
ROOT
ATOM      1  CA  UNL     1      -5.953  17.955  67.664  0.00  0.00    +0.201 C 
ATOM      2  C   UNL     1      -7.193  16.827  67.371  0.00  0.00    +0.157 C 
ATOM      3  N   UNL     1      -8.042  17.981  67.884  0.00  0.00    -0.242 N 
ATOM      4  CA  UNL     1      -9.441  17.677  67.904  0.00  0.00    +0.129 C 
ATOM      5  C   UNL     1      -9.930  16.472  68.188  0.00  0.00    -0.002 C 
ATOM      6  C   UNL     1      -9.148  15.515  69.036  0.00  0.00    +0.083 C 
ATOM      7  S   UNL     1      -7.369  15.925  69.048  0.00  0.00    -0.114 S 
ATOM      8  C   UNL     1      -7.023  18.541  68.746  0.00  0.00    +0.253 C 
ATOM      9  O   UNL     1      -6.882  19.786  68.977  0.00  0.00    -0.273 OA
ENDROOT
BRANCH   1  11
ATOM     10  C   UNL     1      -3.755  17.362  68.562  0.00  0.00    +0.288 C 
ATOM     11  N   UNL     1      -5.147  17.067  68.729  0.00  0.00    -0.190 NA
ATOM     12  O   UNL     1      -3.284  17.444  67.387  0.00  0.00    -0.267 OA
BRANCH  10  14
ATOM     13  N   UNL     1      -2.082  16.905  70.253  0.00  0.00    -0.077 NA
ATOM     14  C   UNL     1      -2.879  17.753  69.669  0.00  0.00    +0.192 C 
BRANCH  14  15
ATOM     15  C   UNL     1      -2.717  19.195  69.905  0.00  0.00    +0.115 A 
ATOM     16  N   UNL     1      -3.770  19.917  70.348  0.00  0.00    -0.220 NA
ATOM     17  C   UNL     1      -3.354  21.078  70.910  0.00  0.00    +0.201 A 
ATOM     18  N   UNL     1      -4.061  21.887  71.859  0.00  0.00    -0.100 NA
ATOM     19  S   UNL     1      -2.132  21.509  69.784  0.00  0.00    -0.048 S 
ATOM     20  C   UNL     1      -1.938  19.968  69.047  0.00  0.00    +0.059 A 
ENDBRANCH  14  15
BRANCH  13  22
ATOM     21  C   UNL     1      -1.945  14.729  69.712  0.00  0.00    +0.288 C 
ATOM     22  O   UNL     1      -1.938  15.705  69.573  0.00  0.00    -0.373 OA
ENDBRANCH  13  22
ENDBRANCH  10  14
ENDBRANCH   1  11
BRANCH   4  23
ATOM     23  C   UNL     1     -10.300  18.799  67.505  0.00  0.00    +0.401 C 
ATOM     24  OXT UNL     1     -10.297  19.129  66.145  0.00  0.00    -0.239 OA
ATOM     25  O   UNL     1     -10.511  19.760  68.287  0.00  0.00    -0.239 OA
ENDBRANCH   4  23
BRANCH   5  26
ATOM     26  C   UNL     1     -11.412  16.393  68.405  0.00  0.00    +0.089 C 
BRANCH  26  27
ATOM     27  S   UNL     1     -11.804  14.613  68.502  0.00  0.00    -0.071 S 
BRANCH  27  28
ATOM     28  C   UNL     1     -11.718  13.824  66.918  0.00  0.00    +0.190 A 
ATOM     29  N   UNL     1     -11.714  12.481  66.823  0.00  0.00    -0.224 N 
ATOM     30  C   UNL     1     -11.638  11.679  68.028  0.00  0.00    +0.156 C 
ATOM     31  N   UNL     1     -12.092  11.930  65.687  0.00  0.00    -0.121 NA
ATOM     32  C   UNL     1     -12.374  12.650  64.597  0.00  0.00    +0.353 A 
ATOM     33  O   UNL     1     -13.245  12.072  63.670  0.00  0.00    -0.258 OA
ATOM     34  C   UNL     1     -12.155  14.016  64.610  0.00  0.00    +0.340 A 
ATOM     35  O   UNL     1     -12.694  14.721  63.705  0.00  0.00    -0.260 OA
ATOM     36  N   UNL     1     -11.705  14.542  65.768  0.00  0.00    -0.179 NA
ENDBRANCH  27  28
ENDBRANCH  26  27
ENDBRANCH   5  26
TORSDOF 8
ENDMDL
MODEL 3
REMARK VINA RESULT:      -7.7      3.117      8.946
REMARK  Name = 
REMARK  8 active torsions:
REMARK  status: ('A' for Active; 'I' for Inactive)
REMARK    1  A    between atoms: O_2  and  N_3
REMARK    2  A    between atoms: C_4  and  C_5
REMARK    3  A    between atoms: C_4  and  C_31
REMARK    4  A    between atoms: N_7  and  CA_8
REMARK    5  A    between atoms: CA_12  and  C_13
REMARK    6  A    between atoms: C_16  and  C_17
REMARK    7  A    between atoms: C_17  and  S_18
REMARK    8  A    between atoms: S_18  and  C_19
REMARK                            x       y       z     vdW  Elec       q    Type
REMARK                         _______ _______ _______ _____ _____    ______ ____
ROOT
ATOM      1  CA  UNL     1      -9.198  16.293  66.079  0.00  0.00    +0.201 C 
ATOM      2  C   UNL     1      -8.911  14.617  66.136  0.00  0.00    +0.157 C 
ATOM      3  N   UNL     1     -10.393  14.613  66.482  0.00  0.00    -0.242 N 
ATOM      4  CA  UNL     1     -10.912  13.295  66.692  0.00  0.00    +0.129 C 
ATOM      5  C   UNL     1     -10.217  12.311  67.257  0.00  0.00    -0.002 C 
ATOM      6  C   UNL     1      -9.097  12.618  68.206  0.00  0.00    +0.083 C 
ATOM      7  S   UNL     1      -8.461  14.312  67.969  0.00  0.00    -0.114 S 
ATOM      8  C   UNL     1     -10.400  15.915  67.114  0.00  0.00    +0.253 C 
ATOM      9  O   UNL     1     -11.380  16.727  67.075  0.00  0.00    -0.273 OA
ENDROOT
BRANCH   1  11
ATOM     10  C   UNL     1      -7.517  17.915  66.809  0.00  0.00    +0.288 C 
ATOM     11  N   UNL     1      -8.148  16.697  67.222  0.00  0.00    -0.190 NA
ATOM     12  O   UNL     1      -7.147  18.033  65.601  0.00  0.00    -0.267 OA
BRANCH  10  14
ATOM     13  N   UNL     1      -8.372  20.011  67.670  0.00  0.00    -0.077 NA
ATOM     14  C   UNL     1      -7.436  19.105  67.659  0.00  0.00    +0.192 C 
BRANCH  14  15
ATOM     15  C   UNL     1      -6.411  19.096  68.712  0.00  0.00    +0.115 A 
ATOM     16  N   UNL     1      -6.148  20.235  69.391  0.00  0.00    -0.220 NA
ATOM     17  C   UNL     1      -5.529  19.962  70.565  0.00  0.00    +0.201 A 
ATOM     18  N   UNL     1      -5.480  20.790  71.735  0.00  0.00    -0.100 NA
ATOM     19  S   UNL     1      -4.452  18.736  70.033  0.00  0.00    -0.048 S 
ATOM     20  C   UNL     1      -5.241  18.357  68.553  0.00  0.00    +0.059 A 
ENDBRANCH  14  15
BRANCH  13  22
ATOM     21  C   UNL     1     -10.299  19.986  66.516  0.00  0.00    +0.288 C 
ATOM     22  O   UNL     1      -9.541  19.624  67.033  0.00  0.00    -0.373 OA
ENDBRANCH  13  22
ENDBRANCH  10  14
ENDBRANCH   1  11
BRANCH   4  23
ATOM     23  C   UNL     1     -12.265  13.095  66.156  0.00  0.00    +0.401 C 
ATOM     24  OXT UNL     1     -12.380  12.203  65.084  0.00  0.00    -0.239 OA
ATOM     25  O   UNL     1     -13.108  14.026  66.170  0.00  0.00    -0.239 OA
ENDBRANCH   4  23
BRANCH   5  26
ATOM     26  C   UNL     1     -10.992  11.078  67.622  0.00  0.00    +0.089 C 
BRANCH  26  27
ATOM     27  S   UNL     1     -10.883  10.945  69.440  0.00  0.00    -0.071 S 
BRANCH  27  28
ATOM     28  C   UNL     1     -12.086  11.959  70.255  0.00  0.00    +0.190 A 
ATOM     29  N   UNL     1     -12.859  11.450  71.233  0.00  0.00    -0.224 N 
ATOM     30  C   UNL     1     -12.804  10.030  71.521  0.00  0.00    +0.156 C 
ATOM     31  N   UNL     1     -13.402  12.278  72.102  0.00  0.00    -0.121 NA
ATOM     32  C   UNL     1     -13.304  13.606  71.987  0.00  0.00    +0.353 A 
ATOM     33  O   UNL     1     -13.417  14.348  73.165  0.00  0.00    -0.258 OA
ATOM     34  C   UNL     1     -12.714  14.149  70.859  0.00  0.00    +0.340 A 
ATOM     35  O   UNL     1     -12.358  15.365  70.892  0.00  0.00    -0.260 OA
ATOM     36  N   UNL     1     -12.225  13.274  69.956  0.00  0.00    -0.179 NA
ENDBRANCH  27  28
ENDBRANCH  26  27
ENDBRANCH   5  26
TORSDOF 8
ENDMDL
MODEL 4
REMARK VINA RESULT:      -7.6      1.812      2.876
REMARK  Name = 
REMARK  8 active torsions:
REMARK  status: ('A' for Active; 'I' for Inactive)
REMARK    1  A    between atoms: O_2  and  N_3
REMARK    2  A    between atoms: C_4  and  C_5
REMARK    3  A    between atoms: C_4  and  C_31
REMARK    4  A    between atoms: N_7  and  CA_8
REMARK    5  A    between atoms: CA_12  and  C_13
REMARK    6  A    between atoms: C_16  and  C_17
REMARK    7  A    between atoms: C_17  and  S_18
REMARK    8  A    between atoms: S_18  and  C_19
REMARK                            x       y       z     vdW  Elec       q    Type
REMARK                         _______ _______ _______ _____ _____    ______ ____
ROOT
ATOM      1  CA  UNL     1     -11.093  14.845  66.936  0.00  0.00    +0.201 C 
ATOM      2  C   UNL     1     -10.410  15.725  68.223  0.00  0.00    +0.157 C 
ATOM      3  N   UNL     1     -10.186  16.733  67.105  0.00  0.00    -0.242 N 
ATOM      4  CA  UNL     1      -9.545  17.932  67.556  0.00  0.00    +0.129 C 
ATOM      5  C   UNL     1      -8.616  17.957  68.508  0.00  0.00    -0.002 C 
ATOM      6  C   UNL     1      -7.772  16.747  68.780  0.00  0.00    +0.083 C 
ATOM      7  S   UNL     1      -8.567  15.222  68.168  0.00  0.00    -0.114 S 
ATOM      8  C   UNL     1     -10.073  15.754  66.045  0.00  0.00    +0.253 C 
ATOM      9  O   UNL     1     -10.470  15.940  64.849  0.00  0.00    -0.273 OA
ENDROOT
BRANCH   1  11
ATOM     10  C   UNL     1     -10.866  12.423  66.673  0.00  0.00    +0.288 C 
ATOM     11  N   UNL     1     -10.108  13.583  67.036  0.00  0.00    -0.190 NA
ATOM     12  O   UNL     1     -12.041  12.291  67.132  0.00  0.00    -0.267 OA
BRANCH  10  14
ATOM     13  N   UNL     1     -10.854  11.523  64.424  0.00  0.00    -0.077 NA
ATOM     14  C   UNL     1     -10.428  11.466  65.654  0.00  0.00    +0.192 C 
BRANCH  14  15
ATOM     15  C   UNL     1      -9.273  10.623  65.992  0.00  0.00    +0.115 A 
ATOM     16  N   UNL     1      -8.425  10.236  65.014  0.00  0.00    -0.220 NA
ATOM     17  C   UNL     1      -7.232   9.857  65.535  0.00  0.00    +0.201 A 
ATOM     18  N   UNL     1      -5.967   9.809  64.862  0.00  0.00    -0.100 NA
ATOM     19  S   UNL     1      -7.792   8.983  66.902  0.00  0.00    -0.048 S 
ATOM     20  C   UNL     1      -9.390   9.614  66.946  0.00  0.00    +0.059 A 
ENDBRANCH  14  15
BRANCH  13  22
ATOM     21  C   UNL     1     -12.136  13.087  63.446  0.00  0.00    +0.288 C 
ATOM     22  O   UNL     1     -11.520  12.698  64.110  0.00  0.00    -0.373 OA
ENDBRANCH  13  22
ENDBRANCH  10  14
ENDBRANCH   1  11
BRANCH   4  23
ATOM     23  C   UNL     1     -10.060  19.155  66.927  0.00  0.00    +0.401 C 
ATOM     24  OXT UNL     1     -11.236  19.683  67.470  0.00  0.00    -0.239 OA
ATOM     25  O   UNL     1      -9.896  19.367  65.699  0.00  0.00    -0.239 OA
ENDBRANCH   4  23
BRANCH   5  26
ATOM     26  C   UNL     1      -7.879  19.253  68.680  0.00  0.00    +0.089 C 
BRANCH  26  27
ATOM     27  S   UNL     1      -6.114  18.855  68.438  0.00  0.00    -0.071 S 
BRANCH  27  28
ATOM     28  C   UNL     1      -5.127  19.333  69.830  0.00  0.00    +0.190 A 
ATOM     29  N   UNL     1      -4.014  18.644  70.147  0.00  0.00    -0.224 N 
ATOM     30  C   UNL     1      -3.700  17.423  69.431  0.00  0.00    +0.156 C 
ATOM     31  N   UNL     1      -3.086  19.244  70.866  0.00  0.00    -0.121 NA
ATOM     32  C   UNL     1      -3.253  20.466  71.379  0.00  0.00    +0.353 A 
ATOM     33  O   UNL     1      -2.095  21.204  71.634  0.00  0.00    -0.258 OA
ATOM     34  C   UNL     1      -4.483  21.091  71.262  0.00  0.00    +0.340 A 
ATOM     35  O   UNL     1      -4.547  22.338  71.477  0.00  0.00    -0.260 OA
ATOM     36  N   UNL     1      -5.433  20.422  70.576  0.00  0.00    -0.179 NA
ENDBRANCH  27  28
ENDBRANCH  26  27
ENDBRANCH   5  26
TORSDOF 8
ENDMDL
MODEL 5
REMARK VINA RESULT:      -7.6      2.723      9.808
REMARK  Name = 
REMARK  8 active torsions:
REMARK  status: ('A' for Active; 'I' for Inactive)
REMARK    1  A    between atoms: O_2  and  N_3
REMARK    2  A    between atoms: C_4  and  C_5
REMARK    3  A    between atoms: C_4  and  C_31
REMARK    4  A    between atoms: N_7  and  CA_8
REMARK    5  A    between atoms: CA_12  and  C_13
REMARK    6  A    between atoms: C_16  and  C_17
REMARK    7  A    between atoms: C_17  and  S_18
REMARK    8  A    between atoms: S_18  and  C_19
REMARK                            x       y       z     vdW  Elec       q    Type
REMARK                         _______ _______ _______ _____ _____    ______ ____
ROOT
ATOM      1  CA  UNL     1      -8.571  19.517  67.057  0.00  0.00    +0.201 C 
ATOM      2  C   UNL     1      -9.128  18.043  66.414  0.00  0.00    +0.157 C 
ATOM      3  N   UNL     1      -9.327  17.744  67.893  0.00  0.00    -0.242 N 
ATOM      4  CA  UNL     1      -9.871  16.440  68.130  0.00  0.00    +0.129 C 
ATOM      5  C   UNL     1      -9.574  15.373  67.393  0.00  0.00    -0.002 C 
ATOM      6  C   UNL     1      -8.273  15.299  66.651  0.00  0.00    +0.083 C 
ATOM      7  S   UNL     1      -7.555  16.956  66.385  0.00  0.00    -0.114 S 
ATOM      8  C   UNL     1      -8.249  18.591  68.360  0.00  0.00    +0.253 C 
ATOM      9  O   UNL     1      -8.267  19.235  69.459  0.00  0.00    -0.273 OA
ENDROOT
BRANCH   1  11
ATOM     10  C   UNL     1      -6.307  20.445  67.095  0.00  0.00    +0.288 C 
ATOM     11  N   UNL     1      -7.088  19.430  66.452  0.00  0.00    -0.190 NA
ATOM     12  O   UNL     1      -6.812  21.598  67.253  0.00  0.00    -0.267 OA
BRANCH  10  14
ATOM     13  N   UNL     1      -3.895  20.233  67.094  0.00  0.00    -0.077 NA
ATOM     14  C   UNL     1      -5.021  20.177  67.744  0.00  0.00    +0.192 C 
BRANCH  14  15
ATOM     15  C   UNL     1      -5.020  20.130  69.213  0.00  0.00    +0.115 A 
ATOM     16  N   UNL     1      -4.262  21.009  69.904  0.00  0.00    -0.220 NA
ATOM     17  C   UNL     1      -4.696  21.118  71.183  0.00  0.00    +0.201 A 
ATOM     18  N   UNL     1      -4.478  22.210  72.085  0.00  0.00    -0.100 NA
ATOM     19  S   UNL     1      -5.017  19.463  71.508  0.00  0.00    -0.048 S 
ATOM     20  C   UNL     1      -5.059  18.908  69.882  0.00  0.00    +0.059 A 
ENDBRANCH  14  15
BRANCH  13  22
ATOM     21  C   UNL     1      -3.544  21.475  65.255  0.00  0.00    +0.288 C 
ATOM     22  O   UNL     1      -3.992  20.821  65.842  0.00  0.00    -0.373 OA
ENDBRANCH  13  22
ENDBRANCH  10  14
ENDBRANCH   1  11
BRANCH   4  23
ATOM     23  C   UNL     1     -10.854  16.394  69.219  0.00  0.00    +0.401 C 
ATOM     24  OXT UNL     1     -10.465  15.710  70.377  0.00  0.00    -0.239 OA
ATOM     25  O   UNL     1     -12.087  16.373  68.975  0.00  0.00    -0.239 OA
ENDBRANCH   4  23
BRANCH   5  26
ATOM     26  C   UNL     1     -10.035  14.049  67.928  0.00  0.00    +0.089 C 
BRANCH  26  27
ATOM     27  S   UNL     1      -9.229  12.786  66.886  0.00  0.00    -0.071 S 
BRANCH  27  28
ATOM     28  C   UNL     1     -10.077  12.550  65.349  0.00  0.00    +0.190 A 
ATOM     29  N   UNL     1     -10.174  11.323  64.803  0.00  0.00    -0.224 N 
ATOM     30  C   UNL     1      -9.461  10.214  65.406  0.00  0.00    +0.156 C 
ATOM     31  N   UNL     1     -11.145  11.092  63.942  0.00  0.00    -0.121 NA
ATOM     32  C   UNL     1     -11.966  12.054  63.510  0.00  0.00    +0.353 A 
ATOM     33  O   UNL     1     -13.226  11.651  63.064  0.00  0.00    -0.258 OA
ATOM     34  C   UNL     1     -11.729  13.366  63.880  0.00  0.00    +0.340 A 
ATOM     35  O   UNL     1     -12.659  14.214  63.721  0.00  0.00    -0.260 OA
ATOM     36  N   UNL     1     -10.687  13.578  64.711  0.00  0.00    -0.179 NA
ENDBRANCH  27  28
ENDBRANCH  26  27
ENDBRANCH   5  26
TORSDOF 8
ENDMDL
MODEL 6
REMARK VINA RESULT:      -7.5      3.693      9.119
REMARK  Name = 
REMARK  8 active torsions:
REMARK  status: ('A' for Active; 'I' for Inactive)
REMARK    1  A    between atoms: O_2  and  N_3
REMARK    2  A    between atoms: C_4  and  C_5
REMARK    3  A    between atoms: C_4  and  C_31
REMARK    4  A    between atoms: N_7  and  CA_8
REMARK    5  A    between atoms: CA_12  and  C_13
REMARK    6  A    between atoms: C_16  and  C_17
REMARK    7  A    between atoms: C_17  and  S_18
REMARK    8  A    between atoms: S_18  and  C_19
REMARK                            x       y       z     vdW  Elec       q    Type
REMARK                         _______ _______ _______ _____ _____    ______ ____
ROOT
ATOM      1  CA  UNL     1      -6.433  17.161  66.289  0.00  0.00    +0.201 C 
ATOM      2  C   UNL     1      -7.325  15.942  67.073  0.00  0.00    +0.157 C 
ATOM      3  N   UNL     1      -8.467  16.636  66.345  0.00  0.00    -0.242 N 
ATOM      4  CA  UNL     1      -9.738  16.023  66.588  0.00  0.00    +0.129 C 
ATOM      5  C   UNL     1     -10.084  15.482  67.754  0.00  0.00    -0.002 C 
ATOM      6  C   UNL     1      -9.445  15.948  69.028  0.00  0.00    +0.083 C 
ATOM      7  S   UNL     1      -7.844  16.768  68.717  0.00  0.00    -0.114 S 
ATOM      8  C   UNL     1      -7.859  17.950  66.338  0.00  0.00    +0.253 C 
ATOM      9  O   UNL     1      -8.002  18.803  65.403  0.00  0.00    -0.273 OA
ENDROOT
BRANCH   1  11
ATOM     10  C   UNL     1      -4.538  18.329  67.305  0.00  0.00    +0.288 C 
ATOM     11  N   UNL     1      -5.849  17.842  67.618  0.00  0.00    -0.190 NA
ATOM     12  O   UNL     1      -3.758  17.594  66.628  0.00  0.00    -0.267 OA
BRANCH  10  14
ATOM     13  N   UNL     1      -4.040  20.599  66.624  0.00  0.00    -0.077 NA
ATOM     14  C   UNL     1      -4.110  19.705  67.569  0.00  0.00    +0.192 C 
BRANCH  14  15
ATOM     15  C   UNL     1      -4.045  20.119  68.977  0.00  0.00    +0.115 A 
ATOM     16  N   UNL     1      -5.152  20.613  69.575  0.00  0.00    -0.220 NA
ATOM     17  C   UNL     1      -5.046  20.532  70.924  0.00  0.00    +0.201 A 
ATOM     18  N   UNL     1      -6.115  20.524  71.880  0.00  0.00    -0.100 NA
ATOM     19  S   UNL     1      -3.407  21.006  71.102  0.00  0.00    -0.048 S 
ATOM     20  C   UNL     1      -2.912  20.757  69.475  0.00  0.00    +0.059 A 
ENDBRANCH  14  15
BRANCH  13  22
ATOM     21  C   UNL     1      -5.061  20.592  64.623  0.00  0.00    +0.288 C 
ATOM     22  O   UNL     1      -4.652  20.220  65.439  0.00  0.00    -0.373 OA
ENDBRANCH  13  22
ENDBRANCH  10  14
ENDBRANCH   1  11
BRANCH   4  23
ATOM     23  C   UNL     1     -10.611  15.972  65.409  0.00  0.00    +0.401 C 
ATOM     24  OXT UNL     1     -10.566  14.793  64.656  0.00  0.00    -0.239 OA
ATOM     25  O   UNL     1     -10.875  17.013  64.756  0.00  0.00    -0.239 OA
ENDBRANCH   4  23
BRANCH   5  26
ATOM     26  C   UNL     1     -11.529  15.110  67.909  0.00  0.00    +0.089 C 
BRANCH  26  27
ATOM     27  S   UNL     1     -11.561  13.738  69.113  0.00  0.00    -0.071 S 
BRANCH  27  28
ATOM     28  C   UNL     1     -12.319  14.213  70.642  0.00  0.00    +0.190 A 
ATOM     29  N   UNL     1     -12.828  13.281  71.471  0.00  0.00    -0.224 N 
ATOM     30  C   UNL     1     -12.881  11.897  71.043  0.00  0.00    +0.156 C 
ATOM     31  N   UNL     1     -12.972  13.583  72.746  0.00  0.00    -0.121 NA
ATOM     32  C   UNL     1     -12.734  14.807  73.225  0.00  0.00    +0.353 A 
ATOM     33  O   UNL     1     -12.391  14.897  74.576  0.00  0.00    -0.258 OA
ATOM     34  C   UNL     1     -12.438  15.836  72.347  0.00  0.00    +0.340 A 
ATOM     35  O   UNL     1     -11.929  16.898  72.814  0.00  0.00    -0.260 OA
ATOM     36  N   UNL     1     -12.363  15.508  71.041  0.00  0.00    -0.179 NA
ENDBRANCH  27  28
ENDBRANCH  26  27
ENDBRANCH   5  26
TORSDOF 8
ENDMDL
MODEL 7
REMARK VINA RESULT:      -7.5      1.936      2.252
REMARK  Name = 
REMARK  8 active torsions:
REMARK  status: ('A' for Active; 'I' for Inactive)
REMARK    1  A    between atoms: O_2  and  N_3
REMARK    2  A    between atoms: C_4  and  C_5
REMARK    3  A    between atoms: C_4  and  C_31
REMARK    4  A    between atoms: N_7  and  CA_8
REMARK    5  A    between atoms: CA_12  and  C_13
REMARK    6  A    between atoms: C_16  and  C_17
REMARK    7  A    between atoms: C_17  and  S_18
REMARK    8  A    between atoms: S_18  and  C_19
REMARK                            x       y       z     vdW  Elec       q    Type
REMARK                         _______ _______ _______ _____ _____    ______ ____
ROOT
ATOM      1  CA  UNL     1     -10.075  16.086  68.143  0.00  0.00    +0.201 C 
ATOM      2  C   UNL     1      -8.591  16.644  68.762  0.00  0.00    +0.157 C 
ATOM      3  N   UNL     1      -8.527  17.287  67.384  0.00  0.00    -0.242 N 
ATOM      4  CA  UNL     1      -7.334  18.053  67.182  0.00  0.00    +0.129 C 
ATOM      5  C   UNL     1      -6.148  17.716  67.683  0.00  0.00    -0.002 C 
ATOM      6  C   UNL     1      -5.834  16.285  67.997  0.00  0.00    +0.083 C 
ATOM      7  S   UNL     1      -7.352  15.295  68.213  0.00  0.00    -0.114 S 
ATOM      8  C   UNL     1      -9.313  16.274  66.713  0.00  0.00    +0.253 C 
ATOM      9  O   UNL     1     -10.105  16.506  65.742  0.00  0.00    -0.273 OA
ENDROOT
BRANCH   1  11
ATOM     10  C   UNL     1     -11.001  13.831  68.349  0.00  0.00    +0.288 C 
ATOM     11  N   UNL     1      -9.748  14.521  68.272  0.00  0.00    -0.190 NA
ATOM     12  O   UNL     1     -11.917  14.304  69.088  0.00  0.00    -0.267 OA
BRANCH  10  14
ATOM     13  N   UNL     1     -11.679  11.538  67.959  0.00  0.00    -0.077 NA
ATOM     14  C   UNL     1     -11.351  12.704  67.480  0.00  0.00    +0.192 C 
BRANCH  14  15
ATOM     15  C   UNL     1     -11.602  13.014  66.065  0.00  0.00    +0.115 A 
ATOM     16  N   UNL     1     -12.554  13.917  65.744  0.00  0.00    -0.220 NA
ATOM     17  C   UNL     1     -12.361  14.392  64.488  0.00  0.00    +0.201 A 
ATOM     18  N   UNL     1     -12.842  15.628  63.944  0.00  0.00    -0.100 NA
ATOM     19  S   UNL     1     -11.936  12.927  63.701  0.00  0.00    -0.048 S 
ATOM     20  C   UNL     1     -11.557  12.008  65.102  0.00  0.00    +0.059 A 
ENDBRANCH  14  15
BRANCH  13  22
ATOM     21  C   UNL     1     -12.197  10.942  70.062  0.00  0.00    +0.288 C 
ATOM     22  O   UNL     1     -11.930  11.537  69.323  0.00  0.00    -0.373 OA
ENDBRANCH  13  22
ENDBRANCH  10  14
ENDBRANCH   1  11
BRANCH   4  23
ATOM     23  C   UNL     1      -7.545  19.298  66.432  0.00  0.00    +0.401 C 
ATOM     24  OXT UNL     1      -7.708  20.460  67.194  0.00  0.00    -0.239 OA
ATOM     25  O   UNL     1      -8.150  19.292  65.330  0.00  0.00    -0.239 OA
ENDBRANCH   4  23
BRANCH   5  26
ATOM     26  C   UNL     1      -4.969  18.491  67.171  0.00  0.00    +0.089 C 
BRANCH  26  27
ATOM     27  S   UNL     1      -3.583  18.078  68.286  0.00  0.00    -0.071 S 
BRANCH  27  28
ATOM     28  C   UNL     1      -3.483  19.190  69.662  0.00  0.00    +0.190 A 
ATOM     29  N   UNL     1      -2.755  20.320  69.575  0.00  0.00    -0.224 N 
ATOM     30  C   UNL     1      -1.938  20.556  68.401  0.00  0.00    +0.156 C 
ATOM     31  N   UNL     1      -3.038  21.315  70.392  0.00  0.00    -0.121 NA
ATOM     32  C   UNL     1      -3.942  21.207  71.370  0.00  0.00    +0.353 A 
ATOM     33  O   UNL     1      -4.545  22.391  71.802  0.00  0.00    -0.258 OA
ATOM     34  C   UNL     1      -4.527  19.978  71.622  0.00  0.00    +0.340 A 
ATOM     35  O   UNL     1      -5.578  19.946  72.330  0.00  0.00    -0.260 OA
ATOM     36  N   UNL     1      -4.168  18.963  70.809  0.00  0.00    -0.179 NA
ENDBRANCH  27  28
ENDBRANCH  26  27
ENDBRANCH   5  26
TORSDOF 8
ENDMDL
MODEL 8
REMARK VINA RESULT:      -7.4      2.697      3.513
REMARK  Name = 
REMARK  8 active torsions:
REMARK  status: ('A' for Active; 'I' for Inactive)
REMARK    1  A    between atoms: O_2  and  N_3
REMARK    2  A    between atoms: C_4  and  C_5
REMARK    3  A    between atoms: C_4  and  C_31
REMARK    4  A    between atoms: N_7  and  CA_8
REMARK    5  A    between atoms: CA_12  and  C_13
REMARK    6  A    between atoms: C_16  and  C_17
REMARK    7  A    between atoms: C_17  and  S_18
REMARK    8  A    between atoms: S_18  and  C_19
REMARK                            x       y       z     vdW  Elec       q    Type
REMARK                         _______ _______ _______ _____ _____    ______ ____
ROOT
ATOM      1  CA  UNL     1     -10.931  15.829  67.637  0.00  0.00    +0.201 C 
ATOM      2  C   UNL     1      -9.981  16.712  68.738  0.00  0.00    +0.157 C 
ATOM      3  N   UNL     1      -9.579  17.427  67.456  0.00  0.00    -0.242 N 
ATOM      4  CA  UNL     1      -8.638  18.484  67.678  0.00  0.00    +0.129 C 
ATOM      5  C   UNL     1      -7.679  18.434  68.599  0.00  0.00    -0.002 C 
ATOM      6  C   UNL     1      -7.145  17.115  69.071  0.00  0.00    +0.083 C 
ATOM      7  S   UNL     1      -8.324  15.759  68.751  0.00  0.00    -0.114 S 
ATOM      8  C   UNL     1      -9.771  16.286  66.586  0.00  0.00    +0.253 C 
ATOM      9  O   UNL     1     -10.177  16.362  65.381  0.00  0.00    -0.273 OA
ENDROOT
BRANCH   1  11
ATOM     10  C   UNL     1     -11.361  13.459  68.069  0.00  0.00    +0.288 C 
ATOM     11  N   UNL     1     -10.283  14.395  67.948  0.00  0.00    -0.190 NA
ATOM     12  O   UNL     1     -12.392  13.794  68.727  0.00  0.00    -0.267 OA
BRANCH  10  14
ATOM     13  N   UNL     1     -11.640  11.059  67.908  0.00  0.00    -0.077 NA
ATOM     14  C   UNL     1     -11.417  12.200  67.322  0.00  0.00    +0.192 C 
BRANCH  14  15
ATOM     15  C   UNL     1     -11.504  12.303  65.858  0.00  0.00    +0.115 A 
ATOM     16  N   UNL     1     -10.371  12.282  65.124  0.00  0.00    -0.220 NA
ATOM     17  C   UNL     1     -10.639  11.954  63.836  0.00  0.00    +0.201 A 
ATOM     18  N   UNL     1      -9.731  11.405  62.872  0.00  0.00    -0.100 NA
ATOM     19  S   UNL     1     -12.070  12.873  63.608  0.00  0.00    -0.048 S 
ATOM     20  C   UNL     1     -12.441  13.146  65.264  0.00  0.00    +0.059 A 
ENDBRANCH  14  15
BRANCH  13  22
ATOM     21  C   UNL     1     -12.082  10.694  70.081  0.00  0.00    +0.288 C 
ATOM     22  O   UNL     1     -12.081  11.172  69.218  0.00  0.00    -0.373 OA
ENDBRANCH  13  22
ENDBRANCH  10  14
ENDBRANCH   1  11
BRANCH   4  23
ATOM     23  C   UNL     1      -8.871  19.673  66.848  0.00  0.00    +0.401 C 
ATOM     24  OXT UNL     1      -9.855  20.560  67.299  0.00  0.00    -0.239 OA
ATOM     25  O   UNL     1      -8.722  19.628  65.601  0.00  0.00    -0.239 OA
ENDBRANCH   4  23
BRANCH   5  26
ATOM     26  C   UNL     1      -6.637  19.512  68.528  0.00  0.00    +0.089 C 
BRANCH  26  27
ATOM     27  S   UNL     1      -5.117  18.694  67.935  0.00  0.00    -0.071 S 
BRANCH  27  28
ATOM     28  C   UNL     1      -4.750  19.109  66.252  0.00  0.00    +0.190 A 
ATOM     29  N   UNL     1      -4.005  18.285  65.492  0.00  0.00    -0.224 N 
ATOM     30  C   UNL     1      -3.384  17.122  66.095  0.00  0.00    +0.156 C 
ATOM     31  N   UNL     1      -4.113  18.369  64.181  0.00  0.00    -0.121 NA
ATOM     32  C   UNL     1      -4.848  19.309  63.579  0.00  0.00    +0.353 A 
ATOM     33  O   UNL     1      -5.327  19.009  62.302  0.00  0.00    -0.258 OA
ATOM     34  C   UNL     1      -5.429  20.308  64.340  0.00  0.00    +0.340 A 
ATOM     35  O   UNL     1      -6.350  21.004  63.817  0.00  0.00    -0.260 OA
ATOM     36  N   UNL     1      -5.246  20.231  65.675  0.00  0.00    -0.179 NA
ENDBRANCH  27  28
ENDBRANCH  26  27
ENDBRANCH   5  26
TORSDOF 8
ENDMDL
MODEL 9
REMARK VINA RESULT:      -7.3      4.640      9.986
REMARK  Name = 
REMARK  8 active torsions:
REMARK  status: ('A' for Active; 'I' for Inactive)
REMARK    1  A    between atoms: O_2  and  N_3
REMARK    2  A    between atoms: C_4  and  C_5
REMARK    3  A    between atoms: C_4  and  C_31
REMARK    4  A    between atoms: N_7  and  CA_8
REMARK    5  A    between atoms: CA_12  and  C_13
REMARK    6  A    between atoms: C_16  and  C_17
REMARK    7  A    between atoms: C_17  and  S_18
REMARK    8  A    between atoms: S_18  and  C_19
REMARK                            x       y       z     vdW  Elec       q    Type
REMARK                         _______ _______ _______ _____ _____    ______ ____
ROOT
ATOM      1  CA  UNL     1      -9.507  13.410  67.833  0.00  0.00    +0.201 C 
ATOM      2  C   UNL     1      -9.234  11.780  68.238  0.00  0.00    +0.157 C 
ATOM      3  N   UNL     1      -9.882  11.578  66.875  0.00  0.00    -0.242 N 
ATOM      4  CA  UNL     1      -9.985  10.198  66.507  0.00  0.00    +0.129 C 
ATOM      5  C   UNL     1     -10.225   9.219  67.376  0.00  0.00    -0.002 C 
ATOM      6  C   UNL     1     -10.950   9.501  68.658  0.00  0.00    +0.083 C 
ATOM      7  S   UNL     1     -10.857  11.268  69.109  0.00  0.00    -0.114 S 
ATOM      8  C   UNL     1     -10.701  12.771  66.924  0.00  0.00    +0.253 C 
ATOM      9  O   UNL     1     -11.001  13.477  65.907  0.00  0.00    -0.273 OA
ENDROOT
BRANCH   1  11
ATOM     10  C   UNL     1     -10.098  15.066  69.535  0.00  0.00    +0.288 C 
ATOM     11  N   UNL     1     -10.450  13.753  69.084  0.00  0.00    -0.190 NA
ATOM     12  O   UNL     1      -8.871  15.375  69.620  0.00  0.00    -0.267 OA
BRANCH  10  14
ATOM     13  N   UNL     1     -11.245  17.089  68.858  0.00  0.00    -0.077 NA
ATOM     14  C   UNL     1     -11.079  16.137  69.731  0.00  0.00    +0.192 C 
BRANCH  14  15
ATOM     15  C   UNL     1     -12.068  15.939  70.799  0.00  0.00    +0.115 A 
ATOM     16  N   UNL     1     -11.644  15.725  72.064  0.00  0.00    -0.220 NA
ATOM     17  C   UNL     1     -12.631  15.993  72.953  0.00  0.00    +0.201 A 
ATOM     18  N   UNL     1     -12.485  16.317  74.342  0.00  0.00    -0.100 NA
ATOM     19  S   UNL     1     -13.957  15.297  72.115  0.00  0.00    -0.048 S 
ATOM     20  C   UNL     1     -13.232  15.212  70.558  0.00  0.00    +0.059 A 
ENDBRANCH  14  15
BRANCH  13  22
ATOM     21  C   UNL     1     -10.414  17.290  66.780  0.00  0.00    +0.288 C 
ATOM     22  O   UNL     1     -10.628  16.854  67.639  0.00  0.00    -0.373 OA
ENDBRANCH  13  22
ENDBRANCH  10  14
ENDBRANCH   1  11
BRANCH   4  23
ATOM     23  C   UNL     1      -9.724   9.940  65.086  0.00  0.00    +0.401 C 
ATOM     24  OXT UNL     1      -8.384   9.757  64.725  0.00  0.00    -0.239 OA
ATOM     25  O   UNL     1     -10.453  10.442  64.194  0.00  0.00    -0.239 OA
ENDBRANCH   4  23
BRANCH   5  26
ATOM     26  C   UNL     1     -10.545   7.876  66.789  0.00  0.00    +0.089 C 
BRANCH  26  27
ATOM     27  S   UNL     1      -9.492   6.681  67.682  0.00  0.00    -0.071 S 
BRANCH  27  28
ATOM     28  C   UNL     1      -9.979   6.499  69.375  0.00  0.00    +0.190 A 
ATOM     29  N   UNL     1      -9.092   6.705  70.367  0.00  0.00    -0.224 N 
ATOM     30  C   UNL     1      -7.699   6.939  70.044  0.00  0.00    +0.156 C 
ATOM     31  N   UNL     1      -9.548   7.002  71.568  0.00  0.00    -0.121 NA
ATOM     32  C   UNL     1     -10.852   6.999  71.862  0.00  0.00    +0.353 A 
ATOM     33  O   UNL     1     -11.258   7.810  72.925  0.00  0.00    -0.258 OA
ATOM     34  C   UNL     1     -11.762   6.559  70.916  0.00  0.00    +0.340 A 
ATOM     35  O   UNL     1     -12.987   6.836  71.085  0.00  0.00    -0.260 OA
ATOM     36  N   UNL     1     -11.256   6.201  69.718  0.00  0.00    -0.179 NA
ENDBRANCH  27  28
ENDBRANCH  26  27
ENDBRANCH   5  26
TORSDOF 8
ENDMDL
