MODEL 1
REMARK VINA RESULT:      -7.0      0.000      0.000
REMARK  Name = 
REMARK  12 active torsions:
REMARK  status: ('A' for Active; 'I' for Inactive)
REMARK    1  A    between atoms: C_2  and  O_3
REMARK    2  A    between atoms: O_3  and  C_4
REMARK    3  A    between atoms: C_4  and  C_6
REMARK    4  A    between atoms: C_6  and  C_7
REMARK    5  A    between atoms: C_6  and  N_15
REMARK    6  A    between atoms: C_7  and  C_8
REMARK    7  A    between atoms: C_8  and  C_9
REMARK    8  A    between atoms: N_15  and  CA_16
REMARK    9  A    between atoms: CA_16  and  C_18
REMARK   10  A    between atoms: C_24  and  O_25
REMARK   11  A    between atoms: C_27  and  O_28
REMARK   12  A    between atoms: C_33  and  C_34
REMARK                            x       y       z     vdW  Elec       q    Type
REMARK                         _______ _______ _______ _____ _____    ______ ____
ROOT
ATOM      1  C   ALA A   1      -8.034  15.254  67.624  0.00  0.00    +0.242 C 
ATOM      2  N   UNK A   2      -8.023  16.557  68.243  0.00  0.00    -0.266 N 
ATOM      3  C   UNK A   2      -9.384  17.339  67.945  0.00  0.00    +0.184 C 
ATOM      4  C   UNK A   2      -8.905  18.769  68.672  0.00  0.00    +0.058 C 
ATOM      5  C   UNK A   2      -7.665  19.181  68.027  0.00  0.00    -0.019 A 
ATOM      6  C   UNK A   2      -6.558  18.401  68.345  0.00  0.00    -0.003 A 
ATOM      7  C   UNK A   2      -5.343  18.591  67.748  0.00  0.00    +0.037 A 
ATOM      8  C   UNK A   2      -5.192  19.711  66.928  0.00  0.00    +0.172 A 
ATOM      9  C   UNK A   2      -6.328  20.350  66.446  0.00  0.00    +0.172 A 
ATOM     10  C   UNK A   2      -7.529  20.213  67.112  0.00  0.00    +0.036 A 
ATOM     11  C   UNK A   2      -6.997  17.126  68.997  0.00  0.00    +0.120 C 
ATOM     12  O   ALA A   1      -6.860  14.755  67.697  0.00  0.00    -0.273 OA
ENDROOT
BRANCH   3  13
ATOM     13  C   UNK A   2      -8.900  17.843  66.458  0.00  0.00    +0.383 C 
ATOM     14  O   UNK A   2      -8.155  16.971  65.729  0.00  0.00    -0.244 OA
ATOM     15  O   UNK A   2      -9.936  18.319  65.896  0.00  0.00    -0.244 OA
ENDBRANCH   3  13
BRANCH   9  16
ATOM     16  O   UNK A   2      -6.213  20.965  65.197  0.00  0.00    -0.468 OA
ATOM     17  C   UNK A   2      -6.068  20.202  64.010  0.00  0.00    +0.253 C 
ENDBRANCH   9  16
BRANCH   1  18
ATOM     18  CA  ALA A   1      -9.158  14.246  68.275  0.00  0.00    +0.149 C 
ATOM     19  CB  ALA A   1      -8.192  12.900  68.035  0.00  0.00    +0.029 C 
BRANCH  18  20
ATOM     20  N   ALA A   1      -9.911  14.017  66.881  0.00  0.00    -0.201 NA
BRANCH  20  21
ATOM     21  C   UNK A   0     -11.066  13.041  67.418  0.00  0.00    +0.172 C 
BRANCH  21  22
ATOM     22  C   UNK A   0     -12.011  13.336  66.120  0.00  0.00    +0.333 C 
ATOM     23  O   UNK A   0     -12.549  14.425  66.046  0.00  0.00    -0.249 OA
BRANCH  22  24
ATOM     24  O   UNK A   0     -12.347  12.215  65.393  0.00  0.00    -0.448 OA
BRANCH  24  26
ATOM     25  C   UNK A   0     -11.137  12.295  63.676  0.00  0.00    +0.051 C 
ATOM     26  C   UNK A   0     -12.260  12.346  63.974  0.00  0.00    +0.209 C 
ENDBRANCH  24  26
ENDBRANCH  22  24
ENDBRANCH  21  22
BRANCH  21  27
ATOM     27  C   UNK A   0     -11.753  14.260  68.338  0.00  0.00    +0.033 C 
BRANCH  27  28
ATOM     28  C   UNK A   0     -12.169  13.393  69.515  0.00  0.00    +0.028 C 
BRANCH  28  29
ATOM     29  C   UNK A   0     -12.135  14.096  70.808  0.00  0.00    -0.022 A 
ATOM     30  C   UNK A   0     -11.877  15.462  70.767  0.00  0.00    -0.004 A 
ATOM     31  C   UNK A   0     -11.959  16.177  71.957  0.00  0.00    -0.000 A 
ATOM     32  C   UNK A   0     -12.501  15.583  73.065  0.00  0.00    -0.000 A 
ATOM     33  C   UNK A   0     -13.188  14.394  72.907  0.00  0.00    -0.000 A 
ATOM     34  C   UNK A   0     -13.102  13.708  71.729  0.00  0.00    -0.004 A 
ENDBRANCH  28  29
ENDBRANCH  27  28
ENDBRANCH  21  27
ENDBRANCH  20  21
ENDBRANCH  18  20
ENDBRANCH   1  18
BRANCH   8  35
ATOM     35  O   UNK A   2      -3.944  20.278  66.712  0.00  0.00    -0.468 OA
ATOM     36  C   UNK A   2      -3.116  20.783  67.747  0.00  0.00    +0.253 C 
ENDBRANCH   8  35
TORSDOF 12
ENDMDL
MODEL 2
REMARK VINA RESULT:      -6.9      2.388      3.983
REMARK  Name = 
REMARK  12 active torsions:
REMARK  status: ('A' for Active; 'I' for Inactive)
REMARK    1  A    between atoms: C_2  and  O_3
REMARK    2  A    between atoms: O_3  and  C_4
REMARK    3  A    between atoms: C_4  and  C_6
REMARK    4  A    between atoms: C_6  and  C_7
REMARK    5  A    between atoms: C_6  and  N_15
REMARK    6  A    between atoms: C_7  and  C_8
REMARK    7  A    between atoms: C_8  and  C_9
REMARK    8  A    between atoms: N_15  and  CA_16
REMARK    9  A    between atoms: CA_16  and  C_18
REMARK   10  A    between atoms: C_24  and  O_25
REMARK   11  A    between atoms: C_27  and  O_28
REMARK   12  A    between atoms: C_33  and  C_34
REMARK                            x       y       z     vdW  Elec       q    Type
REMARK                         _______ _______ _______ _____ _____    ______ ____
ROOT
ATOM      1  C   ALA A   1      -8.552  18.774  67.539  0.00  0.00    +0.242 C 
ATOM      2  N   UNK A   2      -7.295  19.448  67.324  0.00  0.00    -0.266 N 
ATOM      3  C   UNK A   2      -6.436  18.705  66.200  0.00  0.00    +0.184 C 
ATOM      4  C   UNK A   2      -5.080  19.671  66.376  0.00  0.00    +0.058 C 
ATOM      5  C   UNK A   2      -4.680  19.595  67.775  0.00  0.00    -0.019 A 
ATOM      6  C   UNK A   2      -5.527  20.257  68.658  0.00  0.00    -0.003 A 
ATOM      7  C   UNK A   2      -5.351  20.198  70.013  0.00  0.00    +0.037 A 
ATOM      8  C   UNK A   2      -4.186  19.593  70.488  0.00  0.00    +0.172 A 
ATOM      9  C   UNK A   2      -3.468  18.758  69.641  0.00  0.00    +0.172 A 
ATOM     10  C   UNK A   2      -3.596  18.890  68.273  0.00  0.00    +0.036 A 
ATOM     11  C   UNK A   2      -6.822  20.584  67.980  0.00  0.00    +0.120 C 
ATOM     12  O   ALA A   1      -9.105  19.258  68.583  0.00  0.00    -0.273 OA
ENDROOT
BRANCH   3  13
ATOM     13  C   UNK A   2      -5.855  17.569  67.236  0.00  0.00    +0.383 C 
ATOM     14  O   UNK A   2      -6.711  17.115  68.188  0.00  0.00    -0.244 OA
ATOM     15  O   UNK A   2      -5.291  16.691  66.510  0.00  0.00    -0.244 OA
ENDBRANCH   3  13
BRANCH   9  16
ATOM     16  O   UNK A   2      -2.776  17.704  70.245  0.00  0.00    -0.468 OA
ATOM     17  C   UNK A   2      -3.243  16.369  70.155  0.00  0.00    +0.253 C 
ENDBRANCH   9  16
BRANCH   1  18
ATOM     18  CA  ALA A   1      -9.551  18.853  66.236  0.00  0.00    +0.149 C 
ATOM     19  CB  ALA A   1     -10.573  19.938  66.997  0.00  0.00    +0.029 C 
BRANCH  18  20
ATOM     20  N   ALA A   1     -10.439  17.608  66.709  0.00  0.00    -0.201 NA
BRANCH  20  21
ATOM     21  C   UNK A   0      -9.500  16.442  66.133  0.00  0.00    +0.172 C 
BRANCH  21  22
ATOM     22  C   UNK A   0     -10.634  15.968  65.058  0.00  0.00    +0.333 C 
ATOM     23  O   UNK A   0     -11.303  16.832  64.522  0.00  0.00    -0.249 OA
BRANCH  22  24
ATOM     24  O   UNK A   0     -10.925  14.622  65.091  0.00  0.00    -0.448 OA
BRANCH  24  26
ATOM     25  C   UNK A   0     -12.801  13.747  65.455  0.00  0.00    +0.051 C 
ATOM     26  C   UNK A   0     -12.209  14.251  64.591  0.00  0.00    +0.209 C 
ENDBRANCH  24  26
ENDBRANCH  22  24
ENDBRANCH  21  22
BRANCH  21  27
ATOM     27  C   UNK A   0     -10.006  15.366  67.313  0.00  0.00    +0.033 C 
BRANCH  27  28
ATOM     28  C   UNK A   0     -10.987  16.298  68.005  0.00  0.00    +0.028 C 
BRANCH  28  29
ATOM     29  C   UNK A   0     -11.645  15.698  69.178  0.00  0.00    -0.022 A 
ATOM     30  C   UNK A   0     -11.772  14.313  69.178  0.00  0.00    -0.004 A 
ATOM     31  C   UNK A   0     -12.277  13.706  70.323  0.00  0.00    -0.000 A 
ATOM     32  C   UNK A   0     -12.415  14.439  71.471  0.00  0.00    -0.000 A 
ATOM     33  C   UNK A   0     -11.808  15.680  71.539  0.00  0.00    -0.000 A 
ATOM     34  C   UNK A   0     -11.312  16.259  70.406  0.00  0.00    -0.004 A 
ENDBRANCH  28  29
ENDBRANCH  27  28
ENDBRANCH  21  27
ENDBRANCH  20  21
ENDBRANCH  18  20
ENDBRANCH   1  18
BRANCH   8  35
ATOM     35  O   UNK A   2      -3.661  19.925  71.729  0.00  0.00    -0.468 OA
ATOM     36  C   UNK A   2      -2.567  20.809  71.912  0.00  0.00    +0.253 C 
ENDBRANCH   8  35
TORSDOF 12
ENDMDL
MODEL 3
REMARK VINA RESULT:      -6.8      2.238      3.669
REMARK  Name = 
REMARK  12 active torsions:
REMARK  status: ('A' for Active; 'I' for Inactive)
REMARK    1  A    between atoms: C_2  and  O_3
REMARK    2  A    between atoms: O_3  and  C_4
REMARK    3  A    between atoms: C_4  and  C_6
REMARK    4  A    between atoms: C_6  and  C_7
REMARK    5  A    between atoms: C_6  and  N_15
REMARK    6  A    between atoms: C_7  and  C_8
REMARK    7  A    between atoms: C_8  and  C_9
REMARK    8  A    between atoms: N_15  and  CA_16
REMARK    9  A    between atoms: CA_16  and  C_18
REMARK   10  A    between atoms: C_24  and  O_25
REMARK   11  A    between atoms: C_27  and  O_28
REMARK   12  A    between atoms: C_33  and  C_34
REMARK                            x       y       z     vdW  Elec       q    Type
REMARK                         _______ _______ _______ _____ _____    ______ ____
ROOT
ATOM      1  C   ALA A   1      -8.869  18.132  67.918  0.00  0.00    +0.242 C 
ATOM      2  N   UNK A   2      -7.627  18.765  67.545  0.00  0.00    -0.266 N 
ATOM      3  C   UNK A   2      -6.825  17.868  66.495  0.00  0.00    +0.184 C 
ATOM      4  C   UNK A   2      -5.465  18.845  66.462  0.00  0.00    +0.058 C 
ATOM      5  C   UNK A   2      -4.993  18.966  67.835  0.00  0.00    -0.019 A 
ATOM      6  C   UNK A   2      -5.797  19.749  68.658  0.00  0.00    -0.003 A 
ATOM      7  C   UNK A   2      -5.550  19.881  69.997  0.00  0.00    +0.037 A 
ATOM      8  C   UNK A   2      -4.360  19.346  70.492  0.00  0.00    +0.172 A 
ATOM      9  C   UNK A   2      -3.683  18.397  69.736  0.00  0.00    +0.172 A 
ATOM     10  C   UNK A   2      -3.882  18.335  68.371  0.00  0.00    +0.036 A 
ATOM     11  C   UNK A   2      -7.126  19.982  68.009  0.00  0.00    +0.120 C 
ATOM     12  O   ALA A   1      -9.369  18.762  68.910  0.00  0.00    -0.273 OA
ENDROOT
BRANCH   3  13
ATOM     13  C   UNK A   2      -6.186  16.888  67.649  0.00  0.00    +0.383 C 
ATOM     14  O   UNK A   2      -6.990  16.579  68.701  0.00  0.00    -0.244 OA
ATOM     15  O   UNK A   2      -5.659  15.913  67.027  0.00  0.00    -0.244 OA
ENDBRANCH   3  13
BRANCH   9  16
ATOM     16  O   UNK A   2      -2.956  17.437  70.446  0.00  0.00    -0.468 OA
ATOM     17  C   UNK A   2      -2.290  16.378  69.781  0.00  0.00    +0.253 C 
ENDBRANCH   9  16
BRANCH   1  18
ATOM     18  CA  ALA A   1      -9.934  18.030  66.670  0.00  0.00    +0.149 C 
ATOM     19  CB  ALA A   1     -10.775  19.383  67.185  0.00  0.00    +0.029 C 
BRANCH  18  20
ATOM     20  N   ALA A   1     -10.926  17.052  67.459  0.00  0.00    -0.201 NA
BRANCH  20  21
ATOM     21  C   UNK A   0     -10.055  15.711  67.326  0.00  0.00    +0.172 C 
BRANCH  21  22
ATOM     22  C   UNK A   0     -10.805  15.281  65.941  0.00  0.00    +0.333 C 
ATOM     23  O   UNK A   0     -10.432  15.806  64.908  0.00  0.00    -0.249 OA
BRANCH  22  24
ATOM     24  O   UNK A   0     -11.985  14.594  66.120  0.00  0.00    -0.448 OA
BRANCH  24  26
ATOM     25  C   UNK A   0     -12.212  12.702  65.234  0.00  0.00    +0.051 C 
ATOM     26  C   UNK A   0     -12.430  13.821  65.006  0.00  0.00    +0.209 C 
ENDBRANCH  24  26
ENDBRANCH  22  24
ENDBRANCH  21  22
BRANCH  21  27
ATOM     27  C   UNK A   0     -11.115  14.853  68.299  0.00  0.00    +0.033 C 
BRANCH  27  28
ATOM     28  C   UNK A   0     -11.484  16.000  69.227  0.00  0.00    +0.028 C 
BRANCH  28  29
ATOM     29  C   UNK A   0     -12.207  15.572  70.436  0.00  0.00    -0.022 A 
ATOM     30  C   UNK A   0     -12.543  14.224  70.516  0.00  0.00    -0.004 A 
ATOM     31  C   UNK A   0     -13.115  13.765  71.697  0.00  0.00    -0.000 A 
ATOM     32  C   UNK A   0     -13.122  14.572  72.803  0.00  0.00    -0.000 A 
ATOM     33  C   UNK A   0     -12.333  15.707  72.796  0.00  0.00    -0.000 A 
ATOM     34  C   UNK A   0     -11.773  16.141  71.628  0.00  0.00    -0.004 A 
ENDBRANCH  28  29
ENDBRANCH  27  28
ENDBRANCH  21  27
ENDBRANCH  20  21
ENDBRANCH  18  20
ENDBRANCH   1  18
BRANCH   8  35
ATOM     35  O   UNK A   2      -3.773  19.849  71.645  0.00  0.00    -0.468 OA
ATOM     36  C   UNK A   2      -2.652  20.717  71.646  0.00  0.00    +0.253 C 
ENDBRANCH   8  35
TORSDOF 12
ENDMDL
MODEL 4
REMARK VINA RESULT:      -6.7      2.962      7.502
REMARK  Name = 
REMARK  12 active torsions:
REMARK  status: ('A' for Active; 'I' for Inactive)
REMARK    1  A    between atoms: C_2  and  O_3
REMARK    2  A    between atoms: O_3  and  C_4
REMARK    3  A    between atoms: C_4  and  C_6
REMARK    4  A    between atoms: C_6  and  C_7
REMARK    5  A    between atoms: C_6  and  N_15
REMARK    6  A    between atoms: C_7  and  C_8
REMARK    7  A    between atoms: C_8  and  C_9
REMARK    8  A    between atoms: N_15  and  CA_16
REMARK    9  A    between atoms: CA_16  and  C_18
REMARK   10  A    between atoms: C_24  and  O_25
REMARK   11  A    between atoms: C_27  and  O_28
REMARK   12  A    between atoms: C_33  and  C_34
REMARK                            x       y       z     vdW  Elec       q    Type
REMARK                         _______ _______ _______ _____ _____    ______ ____
ROOT
ATOM      1  C   ALA A   1      -8.630  13.900  68.025  0.00  0.00    +0.242 C 
ATOM      2  N   UNK A   2      -8.560  12.550  67.521  0.00  0.00    -0.266 N 
ATOM      3  C   UNK A   2      -9.787  12.242  66.546  0.00  0.00    +0.184 C 
ATOM      4  C   UNK A   2      -9.416  10.623  66.333  0.00  0.00    +0.058 C 
ATOM      5  C   UNK A   2      -9.362  10.020  67.659  0.00  0.00    -0.019 A 
ATOM      6  C   UNK A   2      -8.260  10.392  68.423  0.00  0.00    -0.003 A 
ATOM      7  C   UNK A   2      -8.114   9.995  69.723  0.00  0.00    +0.037 A 
ATOM      8  C   UNK A   2      -9.019   9.057  70.219  0.00  0.00    +0.172 A 
ATOM      9  C   UNK A   2     -10.219   8.858  69.548  0.00  0.00    +0.172 A 
ATOM     10  C   UNK A   2     -10.322   9.187  68.211  0.00  0.00    +0.036 A 
ATOM     11  C   UNK A   2      -7.594  11.588  67.815  0.00  0.00    +0.120 C 
ATOM     12  O   ALA A   1      -7.771  14.036  68.959  0.00  0.00    -0.273 OA
ENDROOT
BRANCH   3  13
ATOM     13  C   UNK A   2     -10.829  11.920  67.775  0.00  0.00    +0.383 C 
ATOM     14  O   UNK A   2     -10.695  12.668  68.902  0.00  0.00    -0.244 OA
ATOM     15  O   UNK A   2     -11.986  11.881  67.250  0.00  0.00    -0.244 OA
ENDBRANCH   3  13
BRANCH   9  16
ATOM     16  O   UNK A   2     -11.316   8.487  70.330  0.00  0.00    -0.468 OA
ATOM     17  C   UNK A   2     -11.988   9.429  71.150  0.00  0.00    +0.253 C 
ENDBRANCH   9  16
BRANCH   1  18
ATOM     18  CA  ALA A   1      -8.426  15.031  66.850  0.00  0.00    +0.149 C 
ATOM     19  CB  ALA A   1      -6.859  15.359  67.339  0.00  0.00    +0.029 C 
BRANCH  18  20
ATOM     20  N   ALA A   1      -9.009  16.222  67.749  0.00  0.00    -0.201 NA
BRANCH  20  21
ATOM     21  C   UNK A   0     -10.566  15.975  67.451  0.00  0.00    +0.172 C 
BRANCH  21  22
ATOM     22  C   UNK A   0     -10.723  17.424  66.716  0.00  0.00    +0.333 C 
ATOM     23  O   UNK A   0     -10.417  17.500  65.541  0.00  0.00    -0.249 OA
BRANCH  22  24
ATOM     24  O   UNK A   0     -10.900  18.485  67.577  0.00  0.00    -0.448 OA
BRANCH  24  26
ATOM     25  C   UNK A   0      -9.467  19.994  67.872  0.00  0.00    +0.051 C 
ATOM     26  C   UNK A   0     -10.343  19.729  67.154  0.00  0.00    +0.209 C 
ENDBRANCH  24  26
ENDBRANCH  22  24
ENDBRANCH  21  22
BRANCH  21  27
ATOM     27  C   UNK A   0     -11.010  16.562  68.956  0.00  0.00    +0.033 C 
BRANCH  27  28
ATOM     28  C   UNK A   0     -12.096  15.537  69.242  0.00  0.00    +0.028 C 
BRANCH  28  29
ATOM     29  C   UNK A   0     -12.594  15.575  70.626  0.00  0.00    -0.022 A 
ATOM     30  C   UNK A   0     -13.261  14.441  71.079  0.00  0.00    -0.004 A 
ATOM     31  C   UNK A   0     -13.635  14.397  72.418  0.00  0.00    -0.000 A 
ATOM     32  C   UNK A   0     -13.151  15.338  73.286  0.00  0.00    -0.000 A 
ATOM     33  C   UNK A   0     -12.104  16.142  72.872  0.00  0.00    -0.000 A 
ATOM     34  C   UNK A   0     -11.745  16.168  71.554  0.00  0.00    -0.004 A 
ENDBRANCH  28  29
ENDBRANCH  27  28
ENDBRANCH  21  27
ENDBRANCH  20  21
ENDBRANCH  18  20
ENDBRANCH   1  18
BRANCH   8  35
ATOM     35  O   UNK A   2      -8.679   8.223  71.276  0.00  0.00    -0.468 OA
ATOM     36  C   UNK A   2      -7.381   8.157  71.844  0.00  0.00    +0.253 C 
ENDBRANCH   8  35
TORSDOF 12
ENDMDL
MODEL 5
REMARK VINA RESULT:      -6.5      2.049      4.808
REMARK  Name = 
REMARK  12 active torsions:
REMARK  status: ('A' for Active; 'I' for Inactive)
REMARK    1  A    between atoms: C_2  and  O_3
REMARK    2  A    between atoms: O_3  and  C_4
REMARK    3  A    between atoms: C_4  and  C_6
REMARK    4  A    between atoms: C_6  and  C_7
REMARK    5  A    between atoms: C_6  and  N_15
REMARK    6  A    between atoms: C_7  and  C_8
REMARK    7  A    between atoms: C_8  and  C_9
REMARK    8  A    between atoms: N_15  and  CA_16
REMARK    9  A    between atoms: CA_16  and  C_18
REMARK   10  A    between atoms: C_24  and  O_25
REMARK   11  A    between atoms: C_27  and  O_28
REMARK   12  A    between atoms: C_33  and  C_34
REMARK                            x       y       z     vdW  Elec       q    Type
REMARK                         _______ _______ _______ _____ _____    ______ ____
ROOT
ATOM      1  C   ALA A   1      -8.645  16.409  68.012  0.00  0.00    +0.242 C 
ATOM      2  N   UNK A   2      -8.744  17.833  67.804  0.00  0.00    -0.266 N 
ATOM      3  C   UNK A   2      -8.608  18.191  66.253  0.00  0.00    +0.184 C 
ATOM      4  C   UNK A   2      -8.622  19.851  66.474  0.00  0.00    +0.058 C 
ATOM      5  C   UNK A   2      -7.540  20.167  67.398  0.00  0.00    -0.019 A 
ATOM      6  C   UNK A   2      -7.767  19.776  68.714  0.00  0.00    -0.003 A 
ATOM      7  C   UNK A   2      -6.812  19.908  69.684  0.00  0.00    +0.037 A 
ATOM      8  C   UNK A   2      -5.651  20.610  69.358  0.00  0.00    +0.172 A 
ATOM      9  C   UNK A   2      -5.335  20.803  68.018  0.00  0.00    +0.172 A 
ATOM     10  C   UNK A   2      -6.328  20.750  67.062  0.00  0.00    +0.036 A 
ATOM     11  C   UNK A   2      -8.918  18.819  68.775  0.00  0.00    +0.120 C 
ATOM     12  O   ALA A   1      -8.537  16.183  69.265  0.00  0.00    -0.273 OA
ENDROOT
BRANCH   3  13
ATOM     13  C   UNK A   2      -6.966  18.126  66.266  0.00  0.00    +0.383 C 
ATOM     14  O   UNK A   2      -6.401  17.093  66.945  0.00  0.00    -0.244 OA
ATOM     15  O   UNK A   2      -6.601  18.285  65.060  0.00  0.00    -0.244 OA
ENDBRANCH   3  13
BRANCH   9  16
ATOM     16  O   UNK A   2      -3.975  20.872  67.704  0.00  0.00    -0.468 OA
ATOM     17  C   UNK A   2      -3.424  20.106  66.646  0.00  0.00    +0.253 C 
ENDBRANCH   9  16
BRANCH   1  18
ATOM     18  CA  ALA A   1      -9.903  15.578  67.357  0.00  0.00    +0.149 C 
ATOM     19  CB  ALA A   1     -11.031  16.615  68.033  0.00  0.00    +0.029 C 
BRANCH  18  20
ATOM     20  N   ALA A   1     -10.016  14.567  68.593  0.00  0.00    -0.201 NA
BRANCH  20  21
ATOM     21  C   UNK A   0     -11.617  14.540  68.703  0.00  0.00    +0.172 C 
BRANCH  21  22
ATOM     22  C   UNK A   0     -11.568  14.074  70.267  0.00  0.00    +0.333 C 
ATOM     23  O   UNK A   0     -12.144  13.045  70.570  0.00  0.00    -0.249 OA
BRANCH  22  24
ATOM     24  O   UNK A   0     -11.137  15.048  71.140  0.00  0.00    -0.448 OA
BRANCH  24  26
ATOM     25  C   UNK A   0     -12.203  16.007  72.677  0.00  0.00    +0.051 C 
ATOM     26  C   UNK A   0     -12.112  16.020  71.517  0.00  0.00    +0.209 C 
ENDBRANCH  24  26
ENDBRANCH  22  24
ENDBRANCH  21  22
BRANCH  21  27
ATOM     27  C   UNK A   0     -11.691  12.971  68.119  0.00  0.00    +0.033 C 
BRANCH  27  28
ATOM     28  C   UNK A   0     -12.289  13.306  66.762  0.00  0.00    +0.028 C 
BRANCH  28  29
ATOM     29  C   UNK A   0     -11.838  12.413  65.682  0.00  0.00    -0.022 A 
ATOM     30  C   UNK A   0     -12.062  12.850  64.380  0.00  0.00    -0.004 A 
ATOM     31  C   UNK A   0     -11.539  12.090  63.340  0.00  0.00    -0.000 A 
ATOM     32  C   UNK A   0     -10.648  11.088  63.616  0.00  0.00    -0.000 A 
ATOM     33  C   UNK A   0     -10.092  11.030  64.881  0.00  0.00    -0.000 A 
ATOM     34  C   UNK A   0     -10.613  11.789  65.890  0.00  0.00    -0.004 A 
ENDBRANCH  28  29
ENDBRANCH  27  28
ENDBRANCH  21  27
ENDBRANCH  20  21
ENDBRANCH  18  20
ENDBRANCH   1  18
BRANCH   8  35
ATOM     35  O   UNK A   2      -4.896  21.240  70.337  0.00  0.00    -0.468 OA
ATOM     36  C   UNK A   2      -4.617  20.671  71.606  0.00  0.00    +0.253 C 
ENDBRANCH   8  35
TORSDOF 12
ENDMDL
MODEL 6
REMARK VINA RESULT:      -6.4      3.059      7.633
REMARK  Name = 
REMARK  12 active torsions:
REMARK  status: ('A' for Active; 'I' for Inactive)
REMARK    1  A    between atoms: C_2  and  O_3
REMARK    2  A    between atoms: O_3  and  C_4
REMARK    3  A    between atoms: C_4  and  C_6
REMARK    4  A    between atoms: C_6  and  C_7
REMARK    5  A    between atoms: C_6  and  N_15
REMARK    6  A    between atoms: C_7  and  C_8
REMARK    7  A    between atoms: C_8  and  C_9
REMARK    8  A    between atoms: N_15  and  CA_16
REMARK    9  A    between atoms: CA_16  and  C_18
REMARK   10  A    between atoms: C_24  and  O_25
REMARK   11  A    between atoms: C_27  and  O_28
REMARK   12  A    between atoms: C_33  and  C_34
REMARK                            x       y       z     vdW  Elec       q    Type
REMARK                         _______ _______ _______ _____ _____    ______ ____
ROOT
ATOM      1  C   ALA A   1     -10.210  13.760  65.777  0.00  0.00    +0.242 C 
ATOM      2  N   UNK A   2     -10.656  12.400  65.957  0.00  0.00    -0.266 N 
ATOM      3  C   UNK A   2     -10.647  11.999  67.504  0.00  0.00    +0.184 C 
ATOM      4  C   UNK A   2     -11.059  10.395  67.252  0.00  0.00    +0.058 C 
ATOM      5  C   UNK A   2     -10.065   9.837  66.344  0.00  0.00    -0.019 A 
ATOM      6  C   UNK A   2     -10.160  10.289  65.031  0.00  0.00    -0.003 A 
ATOM      7  C   UNK A   2      -9.243   9.942  64.078  0.00  0.00    +0.037 A 
ATOM      8  C   UNK A   2      -8.295   8.974  64.414  0.00  0.00    +0.172 A 
ATOM      9  C   UNK A   2      -8.066   8.693  65.756  0.00  0.00    +0.172 A 
ATOM     10  C   UNK A   2      -9.040   8.974  66.693  0.00  0.00    +0.036 A 
ATOM     11  C   UNK A   2     -11.042  11.498  64.966  0.00  0.00    +0.120 C 
ATOM     12  O   ALA A   1     -10.021  13.968  64.531  0.00  0.00    -0.273 OA
ENDROOT
BRANCH   3  13
ATOM     13  C   UNK A   2      -9.039  11.663  67.524  0.00  0.00    +0.383 C 
ATOM     14  O   UNK A   2      -8.224  12.538  66.877  0.00  0.00    -0.244 OA
ATOM     15  O   UNK A   2      -8.752  11.402  68.734  0.00  0.00    -0.244 OA
ENDBRANCH   3  13
BRANCH   9  16
ATOM     16  O   UNK A   2      -6.772   8.291  66.095  0.00  0.00    -0.468 OA
ATOM     17  C   UNK A   2      -6.376   8.150  67.450  0.00  0.00    +0.253 C 
ENDBRANCH   9  16
BRANCH   1  18
ATOM     18  CA  ALA A   1     -11.243  14.862  66.422  0.00  0.00    +0.149 C 
ATOM     19  CB  ALA A   1     -11.221  15.800  65.035  0.00  0.00    +0.029 C 
BRANCH  18  20
ATOM     20  N   ALA A   1     -10.071  15.728  67.087  0.00  0.00    -0.201 NA
BRANCH  20  21
ATOM     21  C   UNK A   0     -10.974  16.554  68.123  0.00  0.00    +0.172 C 
BRANCH  21  22
ATOM     22  C   UNK A   0      -9.898  17.781  68.186  0.00  0.00    +0.333 C 
ATOM     23  O   UNK A   0      -8.744  17.509  68.462  0.00  0.00    -0.249 OA
BRANCH  22  24
ATOM     24  O   UNK A   0     -10.464  19.036  68.217  0.00  0.00    -0.448 OA
BRANCH  24  26
ATOM     25  C   UNK A   0     -10.419  19.546  66.178  0.00  0.00    +0.051 C 
ATOM     26  C   UNK A   0     -10.029  19.939  67.201  0.00  0.00    +0.209 C 
ENDBRANCH  24  26
ENDBRANCH  22  24
ENDBRANCH  21  22
BRANCH  21  27
ATOM     27  C   UNK A   0     -10.310  15.753  69.436  0.00  0.00    +0.033 C 
BRANCH  27  28
ATOM     28  C   UNK A   0     -11.323  16.218  70.469  0.00  0.00    +0.028 C 
BRANCH  28  29
ATOM     29  C   UNK A   0     -11.989  15.114  71.181  0.00  0.00    -0.022 A 
ATOM     30  C   UNK A   0     -13.155  15.432  71.870  0.00  0.00    -0.004 A 
ATOM     31  C   UNK A   0     -13.873  14.391  72.449  0.00  0.00    -0.000 A 
ATOM     32  C   UNK A   0     -13.553  13.097  72.142  0.00  0.00    -0.000 A 
ATOM     33  C   UNK A   0     -12.708  12.861  71.072  0.00  0.00    -0.000 A 
ATOM     34  C   UNK A   0     -12.016  13.896  70.511  0.00  0.00    -0.004 A 
ENDBRANCH  28  29
ENDBRANCH  27  28
ENDBRANCH  21  27
ENDBRANCH  20  21
ENDBRANCH  18  20
ENDBRANCH   1  18
BRANCH   8  35
ATOM     35  O   UNK A   2      -7.693   8.192  63.438  0.00  0.00    -0.468 OA
ATOM     36  C   UNK A   2      -8.352   7.749  62.263  0.00  0.00    +0.253 C 
ENDBRANCH   8  35
TORSDOF 12
ENDMDL
MODEL 7
REMARK VINA RESULT:      -6.3      1.992      9.043
REMARK  Name = 
REMARK  12 active torsions:
REMARK  status: ('A' for Active; 'I' for Inactive)
REMARK    1  A    between atoms: C_2  and  O_3
REMARK    2  A    between atoms: O_3  and  C_4
REMARK    3  A    between atoms: C_4  and  C_6
REMARK    4  A    between atoms: C_6  and  C_7
REMARK    5  A    between atoms: C_6  and  N_15
REMARK    6  A    between atoms: C_7  and  C_8
REMARK    7  A    between atoms: C_8  and  C_9
REMARK    8  A    between atoms: N_15  and  CA_16
REMARK    9  A    between atoms: CA_16  and  C_18
REMARK   10  A    between atoms: C_24  and  O_25
REMARK   11  A    between atoms: C_27  and  O_28
REMARK   12  A    between atoms: C_33  and  C_34
REMARK                            x       y       z     vdW  Elec       q    Type
REMARK                         _______ _______ _______ _____ _____    ______ ____
ROOT
ATOM      1  C   ALA A   1      -8.787  17.514  67.099  0.00  0.00    +0.242 C 
ATOM      2  N   UNK A   2      -9.682  16.721  67.907  0.00  0.00    -0.266 N 
ATOM      3  C   UNK A   2      -8.897  16.029  69.114  0.00  0.00    +0.184 C 
ATOM      4  C   UNK A   2     -10.206  15.140  69.662  0.00  0.00    +0.058 C 
ATOM      5  C   UNK A   2     -10.678  14.340  68.540  0.00  0.00    -0.019 A 
ATOM      6  C   UNK A   2     -11.318  15.064  67.538  0.00  0.00    -0.003 A 
ATOM      7  C   UNK A   2     -11.730  14.479  66.373  0.00  0.00    +0.037 A 
ATOM      8  C   UNK A   2     -11.647  13.089  66.282  0.00  0.00    +0.172 A 
ATOM      9  C   UNK A   2     -10.825  12.404  67.167  0.00  0.00    +0.172 A 
ATOM     10  C   UNK A   2     -10.489  12.977  68.377  0.00  0.00    +0.036 A 
ATOM     11  C   UNK A   2     -11.049  16.527  67.711  0.00  0.00    +0.120 C 
ATOM     12  O   ALA A   1      -9.396  17.865  66.034  0.00  0.00    -0.273 OA
ENDROOT
BRANCH   3  13
ATOM     13  C   UNK A   2      -8.343  14.788  68.191  0.00  0.00    +0.383 C 
ATOM     14  O   UNK A   2      -7.950  15.095  66.927  0.00  0.00    -0.244 OA
ATOM     15  O   UNK A   2      -7.504  14.163  68.914  0.00  0.00    -0.244 OA
ENDBRANCH   3  13
BRANCH   9  16
ATOM     16  O   UNK A   2     -10.243  11.225  66.692  0.00  0.00    -0.468 OA
ATOM     17  C   UNK A   2      -9.096  11.254  65.859  0.00  0.00    +0.253 C 
ENDBRANCH   9  16
BRANCH   1  18
ATOM     18  CA  ALA A   1      -8.182  18.813  67.904  0.00  0.00    +0.149 C 
ATOM     19  CB  ALA A   1      -9.457  19.789  67.429  0.00  0.00    +0.029 C 
BRANCH  18  20
ATOM     20  N   ALA A   1      -7.287  19.294  66.667  0.00  0.00    -0.201 NA
BRANCH  20  21
ATOM     21  C   UNK A   0      -5.866  19.281  67.411  0.00  0.00    +0.172 C 
BRANCH  21  22
ATOM     22  C   UNK A   0      -6.064  20.806  67.960  0.00  0.00    +0.333 C 
ATOM     23  O   UNK A   0      -6.419  21.654  67.162  0.00  0.00    -0.249 OA
BRANCH  22  24
ATOM     24  O   UNK A   0      -5.519  21.041  69.203  0.00  0.00    -0.448 OA
BRANCH  24  26
ATOM     25  C   UNK A   0      -5.759  20.108  71.071  0.00  0.00    +0.051 C 
ATOM     26  C   UNK A   0      -5.313  19.889  70.019  0.00  0.00    +0.209 C 
ENDBRANCH  24  26
ENDBRANCH  22  24
ENDBRANCH  21  22
BRANCH  21  27
ATOM     27  C   UNK A   0      -5.064  19.764  66.022  0.00  0.00    +0.033 C 
BRANCH  27  28
ATOM     28  C   UNK A   0      -5.867  18.924  65.042  0.00  0.00    +0.028 C 
BRANCH  28  29
ATOM     29  C   UNK A   0      -5.879  19.463  63.672  0.00  0.00    -0.022 A 
ATOM     30  C   UNK A   0      -6.071  20.834  63.545  0.00  0.00    -0.004 A 
ATOM     31  C   UNK A   0      -5.965  21.391  62.275  0.00  0.00    -0.000 A 
ATOM     32  C   UNK A   0      -5.461  20.640  61.248  0.00  0.00    -0.000 A 
ATOM     33  C   UNK A   0      -4.829  19.448  61.550  0.00  0.00    -0.000 A 
ATOM     34  C   UNK A   0      -4.939  18.918  62.805  0.00  0.00    -0.004 A 
ENDBRANCH  28  29
ENDBRANCH  27  28
ENDBRANCH  21  27
ENDBRANCH  20  21
ENDBRANCH  18  20
ENDBRANCH   1  18
BRANCH   8  35
ATOM     35  O   UNK A   2     -12.477  12.377  65.427  0.00  0.00    -0.468 OA
ATOM     36  C   UNK A   2     -12.319  12.344  64.018  0.00  0.00    +0.253 C 
ENDBRANCH   8  35
TORSDOF 12
ENDMDL
MODEL 8
REMARK VINA RESULT:      -6.3      1.950      4.505
REMARK  Name = 
REMARK  12 active torsions:
REMARK  status: ('A' for Active; 'I' for Inactive)
REMARK    1  A    between atoms: C_2  and  O_3
REMARK    2  A    between atoms: O_3  and  C_4
REMARK    3  A    between atoms: C_4  and  C_6
REMARK    4  A    between atoms: C_6  and  C_7
REMARK    5  A    between atoms: C_6  and  N_15
REMARK    6  A    between atoms: C_7  and  C_8
REMARK    7  A    between atoms: C_8  and  C_9
REMARK    8  A    between atoms: N_15  and  CA_16
REMARK    9  A    between atoms: CA_16  and  C_18
REMARK   10  A    between atoms: C_24  and  O_25
REMARK   11  A    between atoms: C_27  and  O_28
REMARK   12  A    between atoms: C_33  and  C_34
REMARK                            x       y       z     vdW  Elec       q    Type
REMARK                         _______ _______ _______ _____ _____    ______ ____
ROOT
ATOM      1  C   ALA A   1      -8.093  16.341  67.666  0.00  0.00    +0.242 C 
ATOM      2  N   UNK A   2      -7.259  17.517  67.726  0.00  0.00    -0.266 N 
ATOM      3  C   UNK A   2      -8.139  18.825  67.985  0.00  0.00    +0.184 C 
ATOM      4  C   UNK A   2      -6.866  19.902  67.835  0.00  0.00    +0.058 C 
ATOM      5  C   UNK A   2      -6.263  19.670  66.529  0.00  0.00    -0.019 A 
ATOM      6  C   UNK A   2      -5.548  18.481  66.422  0.00  0.00    -0.003 A 
ATOM      7  C   UNK A   2      -5.007  18.065  65.237  0.00  0.00    +0.037 A 
ATOM      8  C   UNK A   2      -5.040  18.955  64.163  0.00  0.00    +0.172 A 
ATOM      9  C   UNK A   2      -5.926  20.026  64.202  0.00  0.00    +0.172 A 
ATOM     10  C   UNK A   2      -6.396  20.485  65.416  0.00  0.00    +0.036 A 
ATOM     11  C   UNK A   2      -5.874  17.580  67.573  0.00  0.00    +0.120 C 
ATOM     12  O   ALA A   1      -7.391  15.361  67.243  0.00  0.00    -0.273 OA
ENDROOT
BRANCH   3  13
ATOM     13  C   UNK A   2      -8.564  18.989  66.406  0.00  0.00    +0.383 C 
ATOM     14  O   UNK A   2      -8.829  17.844  65.723  0.00  0.00    -0.244 OA
ATOM     15  O   UNK A   2      -9.459  19.891  66.378  0.00  0.00    -0.244 OA
ENDBRANCH   3  13
BRANCH   9  16
ATOM     16  O   UNK A   2      -6.424  20.467  62.973  0.00  0.00    -0.468 OA
ATOM     17  C   UNK A   2      -5.919  21.638  62.352  0.00  0.00    +0.253 C 
ENDBRANCH   9  16
BRANCH   1  18
ATOM     18  CA  ALA A   1      -8.811  15.992  69.103  0.00  0.00    +0.149 C 
ATOM     19  CB  ALA A   1      -7.644  14.856  69.490  0.00  0.00    +0.029 C 
BRANCH  18  20
ATOM     20  N   ALA A   1      -9.765  14.871  68.473  0.00  0.00    -0.201 NA
BRANCH  20  21
ATOM     21  C   UNK A   0     -10.990  15.829  68.076  0.00  0.00    +0.172 C 
BRANCH  21  22
ATOM     22  C   UNK A   0     -11.824  15.431  69.422  0.00  0.00    +0.333 C 
ATOM     23  O   UNK A   0     -12.049  16.312  70.231  0.00  0.00    -0.249 OA
BRANCH  22  24
ATOM     24  O   UNK A   0     -11.927  14.077  69.651  0.00  0.00    -0.448 OA
BRANCH  24  26
ATOM     25  C   UNK A   0     -12.497  12.537  70.963  0.00  0.00    +0.051 C 
ATOM     26  C   UNK A   0     -12.472  13.699  70.914  0.00  0.00    +0.209 C 
ENDBRANCH  24  26
ENDBRANCH  22  24
ENDBRANCH  21  22
BRANCH  21  27
ATOM     27  C   UNK A   0     -11.703  14.634  67.144  0.00  0.00    +0.033 C 
BRANCH  27  28
ATOM     28  C   UNK A   0     -10.948  14.927  65.857  0.00  0.00    +0.028 C 
BRANCH  28  29
ATOM     29  C   UNK A   0     -10.846  13.768  64.955  0.00  0.00    -0.022 A 
ATOM     30  C   UNK A   0     -10.148  12.665  65.436  0.00  0.00    -0.004 A 
ATOM     31  C   UNK A   0     -10.138  11.511  64.659  0.00  0.00    -0.000 A 
ATOM     32  C   UNK A   0     -10.981  11.414  63.585  0.00  0.00    -0.000 A 
ATOM     33  C   UNK A   0     -11.998  12.342  63.457  0.00  0.00    -0.000 A 
ATOM     34  C   UNK A   0     -11.995  13.467  64.232  0.00  0.00    -0.004 A 
ENDBRANCH  28  29
ENDBRANCH  27  28
ENDBRANCH  21  27
ENDBRANCH  20  21
ENDBRANCH  18  20
ENDBRANCH   1  18
BRANCH   8  35
ATOM     35  O   UNK A   2      -4.110  18.874  63.136  0.00  0.00    -0.468 OA
ATOM     36  C   UNK A   2      -3.062  17.919  63.093  0.00  0.00    +0.253 C 
ENDBRANCH   8  35
TORSDOF 12
ENDMDL
MODEL 9
REMARK VINA RESULT:      -6.3      2.649      4.483
REMARK  Name = 
REMARK  12 active torsions:
REMARK  status: ('A' for Active; 'I' for Inactive)
REMARK    1  A    between atoms: C_2  and  O_3
REMARK    2  A    between atoms: O_3  and  C_4
REMARK    3  A    between atoms: C_4  and  C_6
REMARK    4  A    between atoms: C_6  and  C_7
REMARK    5  A    between atoms: C_6  and  N_15
REMARK    6  A    between atoms: C_7  and  C_8
REMARK    7  A    between atoms: C_8  and  C_9
REMARK    8  A    between atoms: N_15  and  CA_16
REMARK    9  A    between atoms: CA_16  and  C_18
REMARK   10  A    between atoms: C_24  and  O_25
REMARK   11  A    between atoms: C_27  and  O_28
REMARK   12  A    between atoms: C_33  and  C_34
REMARK                            x       y       z     vdW  Elec       q    Type
REMARK                         _______ _______ _______ _____ _____    ______ ____
ROOT
ATOM      1  C   ALA A   1      -9.246  16.279  67.910  0.00  0.00    +0.242 C 
ATOM      2  N   UNK A   2      -9.292  17.711  67.741  0.00  0.00    -0.266 N 
ATOM      3  C   UNK A   2      -9.116  18.108  66.204  0.00  0.00    +0.184 C 
ATOM      4  C   UNK A   2      -9.077  19.761  66.473  0.00  0.00    +0.058 C 
ATOM      5  C   UNK A   2      -8.002  20.013  67.423  0.00  0.00    -0.019 A 
ATOM      6  C   UNK A   2      -8.266  19.593  68.723  0.00  0.00    -0.003 A 
ATOM      7  C   UNK A   2      -7.324  19.664  69.712  0.00  0.00    +0.037 A 
ATOM      8  C   UNK A   2      -6.134  20.334  69.426  0.00  0.00    +0.172 A 
ATOM      9  C   UNK A   2      -5.787  20.554  68.099  0.00  0.00    +0.172 A 
ATOM     10  C   UNK A   2      -6.765  20.562  67.125  0.00  0.00    +0.036 A 
ATOM     11  C   UNK A   2      -9.449  18.675  68.737  0.00  0.00    +0.120 C 
ATOM     12  O   ALA A   1      -9.168  16.015  69.157  0.00  0.00    -0.273 OA
ENDROOT
BRANCH   3  13
ATOM     13  C   UNK A   2      -7.478  17.986  66.243  0.00  0.00    +0.383 C 
ATOM     14  O   UNK A   2      -6.962  16.881  66.843  0.00  0.00    -0.244 OA
ATOM     15  O   UNK A   2      -7.081  18.232  65.061  0.00  0.00    -0.244 OA
ENDBRANCH   3  13
BRANCH   9  16
ATOM     16  O   UNK A   2      -4.421  20.585  67.809  0.00  0.00    -0.468 OA
ATOM     17  C   UNK A   2      -3.930  21.214  66.637  0.00  0.00    +0.253 C 
ENDBRANCH   9  16
BRANCH   1  18
ATOM     18  CA  ALA A   1     -10.520  15.512  67.210  0.00  0.00    +0.149 C 
ATOM     19  CB  ALA A   1     -11.509  15.801  68.529  0.00  0.00    +0.029 C 
BRANCH  18  20
ATOM     20  N   ALA A   1     -10.100  14.074  67.776  0.00  0.00    -0.201 NA
BRANCH  20  21
ATOM     21  C   UNK A   0     -10.101  13.284  66.380  0.00  0.00    +0.172 C 
BRANCH  21  22
ATOM     22  C   UNK A   0     -11.683  12.906  66.519  0.00  0.00    +0.333 C 
ATOM     23  O   UNK A   0     -12.022  12.227  67.471  0.00  0.00    -0.249 OA
BRANCH  22  24
ATOM     24  O   UNK A   0     -12.428  13.138  65.384  0.00  0.00    -0.448 OA
BRANCH  24  26
ATOM     25  C   UNK A   0     -12.284  12.139  63.540  0.00  0.00    +0.051 C 
ATOM     26  C   UNK A   0     -11.740  12.970  64.144  0.00  0.00    +0.209 C 
ENDBRANCH  24  26
ENDBRANCH  22  24
ENDBRANCH  21  22
BRANCH  21  27
ATOM     27  C   UNK A   0      -9.581  11.869  67.110  0.00  0.00    +0.033 C 
BRANCH  27  28
ATOM     28  C   UNK A   0      -9.214  11.126  65.835  0.00  0.00    +0.028 C 
BRANCH  28  29
ATOM     29  C   UNK A   0      -9.499   9.683  65.890  0.00  0.00    -0.022 A 
ATOM     30  C   UNK A   0      -8.444   8.829  65.586  0.00  0.00    -0.004 A 
ATOM     31  C   UNK A   0      -8.646   7.462  65.747  0.00  0.00    -0.000 A 
ATOM     32  C   UNK A   0      -9.763   7.017  66.401  0.00  0.00    -0.000 A 
ATOM     33  C   UNK A   0     -10.522   7.931  67.110  0.00  0.00    -0.000 A 
ATOM     34  C   UNK A   0     -10.305   9.269  66.944  0.00  0.00    -0.004 A 
ENDBRANCH  28  29
ENDBRANCH  27  28
ENDBRANCH  21  27
ENDBRANCH  20  21
ENDBRANCH  18  20
ENDBRANCH   1  18
BRANCH   8  35
ATOM     35  O   UNK A   2      -5.375  20.909  70.436  0.00  0.00    -0.468 OA
ATOM     36  C   UNK A   2      -4.925  20.207  71.583  0.00  0.00    +0.253 C 
ENDBRANCH   8  35
TORSDOF 12
ENDMDL
