MODEL 1
REMARK VINA RESULT:      -6.5      0.000      0.000
REMARK  Name = 
REMARK  3 active torsions:
REMARK  status: ('A' for Active; 'I' for Inactive)
REMARK    1  A    between atoms: C_2  and  N_3
REMARK    2  A    between atoms: N_3  and  C_4
REMARK    3  A    between atoms: C_13  and  S_14
REMARK                            x       y       z     vdW  Elec       q    Type
REMARK                         _______ _______ _______ _____ _____    ______ ____
ROOT
ATOM      1  C   UNL     1     -10.775  16.327  68.006  0.00  0.00    +0.098 C 
ATOM      2  C   UNL     1     -11.031  15.362  69.286  0.00  0.00    +0.019 A 
ATOM      3  C   UNL     1     -11.338  14.133  68.692  0.00  0.00    +0.134 A 
ATOM      4  S   UNL     1     -12.035  13.326  70.031  0.00  0.00    -0.049 S 
ATOM      5  C   UNL     1     -12.332  14.686  71.042  0.00  0.00    +0.155 A 
ATOM      6  S   UNL     1     -11.243  13.805  67.004  0.00  0.00    +0.012 S 
ATOM      7  O   UNL     1     -12.470  14.012  66.230  0.00  0.00    -0.168 OA
ATOM      8  O   UNL     1     -10.829  12.360  66.843  0.00  0.00    -0.168 OA
ATOM      9  C   UNL     1      -9.817  14.738  66.256  0.00  0.00    +0.136 C 
ATOM     10  C   UNL     1     -10.659  15.924  65.597  0.00  0.00    +0.026 C 
ATOM     11  C   UNL     1     -12.100  15.698  70.117  0.00  0.00    +0.026 A 
ATOM     12  C   UNL     1      -9.403  15.524  67.577  0.00  0.00    +0.046 C 
ENDROOT
BRANCH   5  13
ATOM     13  S   UNL     1     -13.464  14.789  72.392  0.00  0.00    +0.099 S 
ATOM     14  O   UNL     1     -14.123  13.462  72.556  0.00  0.00    -0.150 OA
ATOM     15  O   UNL     1     -14.486  15.872  72.157  0.00  0.00    -0.150 OA
ATOM     16  N   UNL     1     -12.573  15.215  73.807  0.00  0.00    +0.040 NA
ENDBRANCH   5  13
BRANCH   1  17
ATOM     17  N   UNL     1      -9.930  17.422  68.752  0.00  0.00    -0.215 NA
BRANCH  17  19
ATOM     18  C   UNL     1     -10.498  19.032  67.602  0.00  0.00    +0.020 C 
ATOM     19  C   UNL     1      -9.580  18.486  67.947  0.00  0.00    +0.089 C 
ENDBRANCH  17  19
ENDBRANCH   1  17
TORSDOF 3
ENDMDL
MODEL 2
REMARK VINA RESULT:      -6.0      4.237      5.623
REMARK  Name = 
REMARK  3 active torsions:
REMARK  status: ('A' for Active; 'I' for Inactive)
REMARK    1  A    between atoms: C_2  and  N_3
REMARK    2  A    between atoms: N_3  and  C_4
REMARK    3  A    between atoms: C_13  and  S_14
REMARK                            x       y       z     vdW  Elec       q    Type
REMARK                         _______ _______ _______ _____ _____    ______ ____
ROOT
ATOM      1  C   UNL     1      -8.212  15.975  67.352  0.00  0.00    +0.098 C 
ATOM      2  C   UNL     1      -9.097  15.282  66.181  0.00  0.00    +0.019 A 
ATOM      3  C   UNL     1     -10.057  16.258  65.899  0.00  0.00    +0.134 A 
ATOM      4  S   UNL     1     -11.194  15.311  65.037  0.00  0.00    -0.049 S 
ATOM      5  C   UNL     1     -10.652  13.746  65.505  0.00  0.00    +0.155 A 
ATOM      6  S   UNL     1     -10.072  17.846  66.563  0.00  0.00    +0.012 S 
ATOM      7  O   UNL     1     -10.851  18.032  67.791  0.00  0.00    -0.168 OA
ATOM      8  O   UNL     1     -10.632  18.776  65.510  0.00  0.00    -0.168 OA
ATOM      9  C   UNL     1      -8.328  18.458  66.781  0.00  0.00    +0.136 C 
ATOM     10  C   UNL     1      -8.208  18.206  68.353  0.00  0.00    +0.026 C 
ATOM     11  C   UNL     1      -9.781  14.115  66.524  0.00  0.00    +0.026 A 
ATOM     12  C   UNL     1      -7.607  17.113  66.327  0.00  0.00    +0.046 C 
ENDROOT
BRANCH   5  13
ATOM     13  S   UNL     1     -11.566  12.237  65.451  0.00  0.00    +0.099 S 
ATOM     14  O   UNL     1     -11.825  11.793  66.850  0.00  0.00    -0.150 OA
ATOM     15  O   UNL     1     -10.815  11.180  64.681  0.00  0.00    -0.150 OA
ATOM     16  N   UNL     1     -13.044  12.537  64.612  0.00  0.00    +0.040 NA
ENDBRANCH   5  13
BRANCH   1  17
ATOM     17  N   UNL     1      -6.923  15.094  67.172  0.00  0.00    -0.215 NA
BRANCH  17  19
ATOM     18  C   UNL     1      -7.005  14.737  69.198  0.00  0.00    +0.020 C 
ATOM     19  C   UNL     1      -6.268  14.835  68.358  0.00  0.00    +0.089 C 
ENDBRANCH  17  19
ENDBRANCH   1  17
TORSDOF 3
ENDMDL
MODEL 3
REMARK VINA RESULT:      -5.9      3.470      5.387
REMARK  Name = 
REMARK  3 active torsions:
REMARK  status: ('A' for Active; 'I' for Inactive)
REMARK    1  A    between atoms: C_2  and  N_3
REMARK    2  A    between atoms: N_3  and  C_4
REMARK    3  A    between atoms: C_13  and  S_14
REMARK                            x       y       z     vdW  Elec       q    Type
REMARK                         _______ _______ _______ _____ _____    ______ ____
ROOT
ATOM      1  C   UNL     1     -10.415  16.861  68.707  0.00  0.00    +0.098 C 
ATOM      2  C   UNL     1     -10.218  15.698  67.593  0.00  0.00    +0.019 A 
ATOM      3  C   UNL     1      -9.659  16.392  66.515  0.00  0.00    +0.134 A 
ATOM      4  S   UNL     1      -9.916  15.249  65.265  0.00  0.00    -0.049 S 
ATOM      5  C   UNL     1     -11.088  14.259  66.042  0.00  0.00    +0.155 A 
ATOM      6  S   UNL     1      -9.167  18.041  66.555  0.00  0.00    +0.012 S 
ATOM      7  O   UNL     1     -10.164  19.030  66.134  0.00  0.00    -0.168 OA
ATOM      8  O   UNL     1      -7.962  18.180  65.651  0.00  0.00    -0.168 OA
ATOM      9  C   UNL     1      -8.482  18.458  68.235  0.00  0.00    +0.136 C 
ATOM     10  C   UNL     1      -9.765  19.216  68.806  0.00  0.00    +0.026 C 
ATOM     11  C   UNL     1     -11.378  15.077  67.128  0.00  0.00    +0.026 A 
ATOM     12  C   UNL     1      -8.791  17.049  68.909  0.00  0.00    +0.046 C 
ENDROOT
BRANCH   5  13
ATOM     13  S   UNL     1     -12.230  13.151  65.275  0.00  0.00    +0.099 S 
ATOM     14  O   UNL     1     -13.587  13.763  65.327  0.00  0.00    -0.150 OA
ATOM     15  O   UNL     1     -12.218  11.808  65.960  0.00  0.00    -0.150 OA
ATOM     16  N   UNL     1     -11.723  12.906  63.644  0.00  0.00    +0.040 NA
ENDBRANCH   5  13
BRANCH   1  17
ATOM     17  N   UNL     1     -10.486  15.919  69.963  0.00  0.00    -0.215 NA
BRANCH  17  19
ATOM     18  C   UNL     1     -12.338  15.434  70.722  0.00  0.00    +0.020 C 
ATOM     19  C   UNL     1     -11.535  16.214  70.809  0.00  0.00    +0.089 C 
ENDBRANCH  17  19
ENDBRANCH   1  17
TORSDOF 3
ENDMDL
MODEL 4
REMARK VINA RESULT:      -5.9      4.041      5.349
REMARK  Name = 
REMARK  3 active torsions:
REMARK  status: ('A' for Active; 'I' for Inactive)
REMARK    1  A    between atoms: C_2  and  N_3
REMARK    2  A    between atoms: N_3  and  C_4
REMARK    3  A    between atoms: C_13  and  S_14
REMARK                            x       y       z     vdW  Elec       q    Type
REMARK                         _______ _______ _______ _____ _____    ______ ____
ROOT
ATOM      1  C   UNL     1      -9.500  17.340  67.178  0.00  0.00    +0.098 C 
ATOM      2  C   UNL     1     -10.187  15.876  67.042  0.00  0.00    +0.019 A 
ATOM      3  C   UNL     1      -9.114  15.008  67.268  0.00  0.00    +0.134 A 
ATOM      4  S   UNL     1      -9.781  13.553  66.660  0.00  0.00    -0.049 S 
ATOM      5  C   UNL     1     -11.089  14.212  65.758  0.00  0.00    +0.155 A 
ATOM      6  S   UNL     1      -7.537  15.497  67.756  0.00  0.00    +0.012 S 
ATOM      7  O   UNL     1      -6.569  15.742  66.683  0.00  0.00    -0.168 OA
ATOM      8  O   UNL     1      -6.979  14.412  68.650  0.00  0.00    -0.168 OA
ATOM      9  C   UNL     1      -7.653  16.963  68.897  0.00  0.00    +0.136 C 
ATOM     10  C   UNL     1      -7.267  18.091  67.835  0.00  0.00    +0.026 C 
ATOM     11  C   UNL     1     -10.724  15.553  65.795  0.00  0.00    +0.026 A 
ATOM     12  C   UNL     1      -9.231  17.149  68.792  0.00  0.00    +0.046 C 
ENDROOT
BRANCH   5  13
ATOM     13  S   UNL     1     -11.977  13.440  64.441  0.00  0.00    +0.099 S 
ATOM     14  O   UNL     1     -12.554  14.507  63.574  0.00  0.00    -0.150 OA
ATOM     15  O   UNL     1     -13.060  12.539  64.978  0.00  0.00    -0.150 OA
ATOM     16  N   UNL     1     -10.871  12.454  63.556  0.00  0.00    +0.040 NA
ENDBRANCH   5  13
BRANCH   1  17
ATOM     17  N   UNL     1     -10.816  18.148  67.469  0.00  0.00    -0.215 NA
BRANCH  17  19
ATOM     18  C   UNL     1     -10.366  19.620  66.101  0.00  0.00    +0.020 C 
ATOM     19  C   UNL     1     -10.714  19.489  67.160  0.00  0.00    +0.089 C 
ENDBRANCH  17  19
ENDBRANCH   1  17
TORSDOF 3
ENDMDL
MODEL 5
REMARK VINA RESULT:      -5.8      2.677      3.983
REMARK  Name = 
REMARK  3 active torsions:
REMARK  status: ('A' for Active; 'I' for Inactive)
REMARK    1  A    between atoms: C_2  and  N_3
REMARK    2  A    between atoms: N_3  and  C_4
REMARK    3  A    between atoms: C_13  and  S_14
REMARK                            x       y       z     vdW  Elec       q    Type
REMARK                         _______ _______ _______ _____ _____    ______ ____
ROOT
ATOM      1  C   UNL     1     -10.724  12.577  68.240  0.00  0.00    +0.098 C 
ATOM      2  C   UNL     1     -11.744  13.666  68.878  0.00  0.00    +0.019 A 
ATOM      3  C   UNL     1     -11.034  14.865  68.755  0.00  0.00    +0.134 A 
ATOM      4  S   UNL     1     -11.928  15.847  69.836  0.00  0.00    -0.049 S 
ATOM      5  C   UNL     1     -12.766  14.612  70.692  0.00  0.00    +0.155 A 
ATOM      6  S   UNL     1      -9.533  15.041  67.931  0.00  0.00    +0.012 S 
ATOM      7  O   UNL     1      -8.322  14.894  68.744  0.00  0.00    -0.168 OA
ATOM      8  O   UNL     1      -9.512  16.419  67.309  0.00  0.00    -0.168 OA
ATOM      9  C   UNL     1      -9.485  13.911  66.452  0.00  0.00    +0.136 C 
ATOM     10  C   UNL     1      -8.574  12.765  67.088  0.00  0.00    +0.026 C 
ATOM     11  C   UNL     1     -12.059  13.509  70.228  0.00  0.00    +0.026 A 
ATOM     12  C   UNL     1     -10.884  13.201  66.723  0.00  0.00    +0.046 C 
ENDROOT
BRANCH   5  13
ATOM     13  S   UNL     1     -13.519  14.736  72.284  0.00  0.00    +0.099 S 
ATOM     14  O   UNL     1     -14.191  13.441  72.590  0.00  0.00    -0.150 OA
ATOM     15  O   UNL     1     -14.504  15.877  72.327  0.00  0.00    -0.150 OA
ATOM     16  N   UNL     1     -12.280  15.077  73.437  0.00  0.00    +0.040 NA
ENDBRANCH   5  13
BRANCH   1  17
ATOM     17  N   UNL     1     -11.792  11.469  67.922  0.00  0.00    -0.215 NA
BRANCH  17  19
ATOM     18  C   UNL     1     -10.640   9.763  67.911  0.00  0.00    +0.020 C 
ATOM     19  C   UNL     1     -11.487  10.241  68.471  0.00  0.00    +0.089 C 
ENDBRANCH  17  19
ENDBRANCH   1  17
TORSDOF 3
ENDMDL
MODEL 6
REMARK VINA RESULT:      -5.7      6.733      7.975
REMARK  Name = 
REMARK  3 active torsions:
REMARK  status: ('A' for Active; 'I' for Inactive)
REMARK    1  A    between atoms: C_2  and  N_3
REMARK    2  A    between atoms: N_3  and  C_4
REMARK    3  A    between atoms: C_13  and  S_14
REMARK                            x       y       z     vdW  Elec       q    Type
REMARK                         _______ _______ _______ _____ _____    ______ ____
ROOT
ATOM      1  C   UNL     1      -7.106  20.534  67.034  0.00  0.00    +0.098 C 
ATOM      2  C   UNL     1      -6.010  19.982  68.096  0.00  0.00    +0.019 A 
ATOM      3  C   UNL     1      -6.717  18.992  68.787  0.00  0.00    +0.134 A 
ATOM      4  S   UNL     1      -5.697  18.799  70.148  0.00  0.00    -0.049 S 
ATOM      5  C   UNL     1      -4.779  20.247  70.006  0.00  0.00    +0.155 A 
ATOM      6  S   UNL     1      -8.300  18.451  68.382  0.00  0.00    +0.012 S 
ATOM      7  O   UNL     1      -9.413  19.127  69.056  0.00  0.00    -0.168 OA
ATOM      8  O   UNL     1      -8.378  16.978  68.717  0.00  0.00    -0.168 OA
ATOM      9  C   UNL     1      -8.526  18.474  66.535  0.00  0.00    +0.136 C 
ATOM     10  C   UNL     1      -9.370  19.826  66.440  0.00  0.00    +0.026 C 
ATOM     11  C   UNL     1      -5.545  20.895  69.044  0.00  0.00    +0.026 A 
ATOM     12  C   UNL     1      -7.112  19.120  66.189  0.00  0.00    +0.046 C 
ENDROOT
BRANCH   5  13
ATOM     13  S   UNL     1      -3.850  21.053  71.273  0.00  0.00    +0.099 S 
ATOM     14  O   UNL     1      -3.733  20.125  72.433  0.00  0.00    -0.150 OA
ATOM     15  O   UNL     1      -4.508  22.346  71.682  0.00  0.00    -0.150 OA
ATOM     16  N   UNL     1      -2.295  21.441  70.631  0.00  0.00    +0.040 NA
ENDBRANCH   5  13
BRANCH   1  17
ATOM     17  N   UNL     1      -6.091  21.166  66.015  0.00  0.00    -0.215 NA
BRANCH  17  19
ATOM     18  C   UNL     1      -4.434  20.747  64.866  0.00  0.00    +0.020 C 
ATOM     19  C   UNL     1      -5.272  20.236  65.409  0.00  0.00    +0.089 C 
ENDBRANCH  17  19
ENDBRANCH   1  17
TORSDOF 3
ENDMDL
MODEL 7
REMARK VINA RESULT:      -5.4      3.697      4.597
REMARK  Name = 
REMARK  3 active torsions:
REMARK  status: ('A' for Active; 'I' for Inactive)
REMARK    1  A    between atoms: C_2  and  N_3
REMARK    2  A    between atoms: N_3  and  C_4
REMARK    3  A    between atoms: C_13  and  S_14
REMARK                            x       y       z     vdW  Elec       q    Type
REMARK                         _______ _______ _______ _____ _____    ______ ____
ROOT
ATOM      1  C   UNL     1     -12.011  13.300  69.305  0.00  0.00    +0.098 C 
ATOM      2  C   UNL     1     -11.349  11.938  69.888  0.00  0.00    +0.019 A 
ATOM      3  C   UNL     1     -10.869  11.308  68.735  0.00  0.00    +0.134 A 
ATOM      4  S   UNL     1     -10.625   9.726  69.344  0.00  0.00    -0.049 S 
ATOM      5  C   UNL     1     -11.565   9.843  70.781  0.00  0.00    +0.155 A 
ATOM      6  S   UNL     1     -10.870  12.004  67.160  0.00  0.00    +0.012 S 
ATOM      7  O   UNL     1     -12.039  11.722  66.323  0.00  0.00    -0.168 OA
ATOM      8  O   UNL     1      -9.644  11.495  66.436  0.00  0.00    -0.168 OA
ATOM      9  C   UNL     1     -10.560  13.836  67.277  0.00  0.00    +0.136 C 
ATOM     10  C   UNL     1     -12.069  14.321  67.084  0.00  0.00    +0.026 C 
ATOM     11  C   UNL     1     -12.215  11.043  70.518  0.00  0.00    +0.026 A 
ATOM     12  C   UNL     1     -10.547  13.915  68.867  0.00  0.00    +0.046 C 
ENDROOT
BRANCH   5  13
ATOM     13  S   UNL     1     -12.235   8.514  71.731  0.00  0.00    +0.099 S 
ATOM     14  O   UNL     1     -11.269   8.174  72.813  0.00  0.00    -0.150 OA
ATOM     15  O   UNL     1     -12.511   7.316  70.859  0.00  0.00    -0.150 OA
ATOM     16  N   UNL     1     -13.743   9.036  72.389  0.00  0.00    +0.040 NA
ENDBRANCH   5  13
BRANCH   1  17
ATOM     17  N   UNL     1     -11.981  14.121  70.645  0.00  0.00    -0.215 NA
BRANCH  17  19
ATOM     18  C   UNL     1     -13.296  15.388  71.598  0.00  0.00    +0.020 C 
ATOM     19  C   UNL     1     -12.775  15.249  70.613  0.00  0.00    +0.089 C 
ENDBRANCH  17  19
ENDBRANCH   1  17
TORSDOF 3
ENDMDL
MODEL 8
REMARK VINA RESULT:      -5.3      4.967      6.468
REMARK  Name = 
REMARK  3 active torsions:
REMARK  status: ('A' for Active; 'I' for Inactive)
REMARK    1  A    between atoms: C_2  and  N_3
REMARK    2  A    between atoms: N_3  and  C_4
REMARK    3  A    between atoms: C_13  and  S_14
REMARK                            x       y       z     vdW  Elec       q    Type
REMARK                         _______ _______ _______ _____ _____    ______ ____
ROOT
ATOM      1  C   UNL     1      -9.678  17.960  67.902  0.00  0.00    +0.098 C 
ATOM      2  C   UNL     1      -8.343  17.868  68.820  0.00  0.00    +0.019 A 
ATOM      3  C   UNL     1      -7.501  18.821  68.239  0.00  0.00    +0.134 A 
ATOM      4  S   UNL     1      -6.005  18.349  68.927  0.00  0.00    -0.049 S 
ATOM      5  C   UNL     1      -6.441  16.773  69.463  0.00  0.00    +0.155 A 
ATOM      6  S   UNL     1      -7.958  19.903  66.981  0.00  0.00    +0.012 S 
ATOM      7  O   UNL     1      -7.704  19.453  65.609  0.00  0.00    -0.168 OA
ATOM      8  O   UNL     1      -7.205  21.197  67.195  0.00  0.00    -0.168 OA
ATOM      9  C   UNL     1      -9.736  20.411  67.196  0.00  0.00    +0.136 C 
ATOM     10  C   UNL     1     -10.369  19.449  66.090  0.00  0.00    +0.026 C 
ATOM     11  C   UNL     1      -7.661  16.651  68.808  0.00  0.00    +0.026 A 
ATOM     12  C   UNL     1     -10.041  19.472  68.446  0.00  0.00    +0.046 C 
ENDROOT
BRANCH   5  13
ATOM     13  S   UNL     1      -5.354  15.433  69.839  0.00  0.00    +0.099 S 
ATOM     14  O   UNL     1      -4.415  15.254  68.695  0.00  0.00    -0.150 OA
ATOM     15  O   UNL     1      -6.131  14.168  70.101  0.00  0.00    -0.150 OA
ATOM     16  N   UNL     1      -4.499  15.827  71.285  0.00  0.00    +0.040 NA
ENDBRANCH   5  13
BRANCH   1  17
ATOM     17  N   UNL     1     -10.674  17.323  68.939  0.00  0.00    -0.215 NA
BRANCH  17  19
ATOM     18  C   UNL     1     -11.806  15.643  69.306  0.00  0.00    +0.020 C 
ATOM     19  C   UNL     1     -11.310  16.195  68.464  0.00  0.00    +0.089 C 
ENDBRANCH  17  19
ENDBRANCH   1  17
TORSDOF 3
ENDMDL
MODEL 9
REMARK VINA RESULT:      -5.2      5.221      7.074
REMARK  Name = 
REMARK  3 active torsions:
REMARK  status: ('A' for Active; 'I' for Inactive)
REMARK    1  A    between atoms: C_2  and  N_3
REMARK    2  A    between atoms: N_3  and  C_4
REMARK    3  A    between atoms: C_13  and  S_14
REMARK                            x       y       z     vdW  Elec       q    Type
REMARK                         _______ _______ _______ _____ _____    ______ ____
ROOT
ATOM      1  C   UNL     1     -10.611  10.566  69.106  0.00  0.00    +0.098 C 
ATOM      2  C   UNL     1     -11.071  10.733  67.559  0.00  0.00    +0.019 A 
ATOM      3  C   UNL     1      -9.961  10.259  66.852  0.00  0.00    +0.134 A 
ATOM      4  S   UNL     1     -10.312  10.886  65.298  0.00  0.00    -0.049 S 
ATOM      5  C   UNL     1     -11.497  12.053  65.740  0.00  0.00    +0.155 A 
ATOM      6  S   UNL     1      -8.579   9.522  67.569  0.00  0.00    +0.012 S 
ATOM      7  O   UNL     1      -7.464  10.413  67.900  0.00  0.00    -0.168 OA
ATOM      8  O   UNL     1      -8.070   8.475  66.604  0.00  0.00    -0.168 OA
ATOM      9  C   UNL     1      -9.093   8.517  69.049  0.00  0.00    +0.136 C 
ATOM     10  C   UNL     1      -8.657   9.560  70.177  0.00  0.00    +0.026 C 
ATOM     11  C   UNL     1     -11.317  12.034  67.118  0.00  0.00    +0.026 A 
ATOM     12  C   UNL     1     -10.633   8.922  69.016  0.00  0.00    +0.046 C 
ENDROOT
BRANCH   5  13
ATOM     13  S   UNL     1     -12.015  13.459  64.805  0.00  0.00    +0.099 S 
ATOM     14  O   UNL     1     -10.893  14.440  64.771  0.00  0.00    -0.150 OA
ATOM     15  O   UNL     1     -13.253  14.076  65.403  0.00  0.00    -0.150 OA
ATOM     16  N   UNL     1     -12.418  12.924  63.214  0.00  0.00    +0.040 NA
ENDBRANCH   5  13
BRANCH   1  17
ATOM     17  N   UNL     1     -12.050  10.574  69.740  0.00  0.00    -0.215 NA
BRANCH  17  19
ATOM     18  C   UNL     1     -12.967  10.566  71.584  0.00  0.00    +0.020 C 
ATOM     19  C   UNL     1     -12.072  10.147  71.052  0.00  0.00    +0.089 C 
ENDBRANCH  17  19
ENDBRANCH   1  17
TORSDOF 3
ENDMDL
