MODEL 1
REMARK VINA RESULT:      -7.2      0.000      0.000
REMARK  Name = 
REMARK  3 active torsions:
REMARK  status: ('A' for Active; 'I' for Inactive)
REMARK    1  A    between atoms: C_2  and  C_4
REMARK    2  A    between atoms: N_6  and  C_7
REMARK    3  A    between atoms: C_12  and  N_13
REMARK                            x       y       z     vdW  Elec       q    Type
REMARK                         _______ _______ _______ _____ _____    ______ ____
ROOT
ATOM      1  C   UNL     1     -10.246  11.446  65.901  0.00  0.00    +0.136 A 
ATOM      2  C   UNL     1     -10.910  10.841  66.962  0.00  0.00    +0.205 A 
ATOM      3  O   UNL     1     -10.457   9.709  67.304  0.00  0.00    -0.286 OA
ATOM      4  C   UNL     1     -11.568  11.667  67.865  0.00  0.00    +0.057 A 
ATOM      5  C   UNL     1     -11.404  13.028  67.784  0.00  0.00    +0.064 A 
ATOM      6  C   UNL     1     -11.659  13.841  68.882  0.00  0.00    +0.034 A 
ATOM      7  C   UNL     1     -12.017  13.283  70.103  0.00  0.00    +0.077 A 
ATOM      8  C   UNL     1     -12.219  11.919  70.173  0.00  0.00    +0.154 A 
ATOM      9  F   UNL     1     -12.244  11.381  71.427  0.00  0.00    -0.203 F 
ATOM     10  N   UNL     1     -10.776  13.587  66.724  0.00  0.00    -0.328 N 
ATOM     11  C   UNL     1     -12.033  11.138  69.061  0.00  0.00    +0.036 A 
ATOM     12  C   UNL     1     -10.414  12.795  65.687  0.00  0.00    +0.086 A 
ENDROOT
BRANCH   7  13
ATOM     13  N   UNL     1     -12.409  14.095  71.204  0.00  0.00    -0.303 N 
ATOM     14  C   UNL     1     -11.677  15.302  71.511  0.00  0.00    +0.110 C 
ATOM     15  C   UNL     1     -12.020  15.840  72.868  0.00  0.00    +0.110 C 
ATOM     16  N   UNL     1     -13.430  15.836  73.159  0.00  0.00    -0.214 NA
ATOM     17  C   UNL     1     -14.238  15.377  72.044  0.00  0.00    +0.110 C 
ATOM     18  C   UNL     1     -13.759  13.966  71.725  0.00  0.00    +0.110 C 
ENDBRANCH   7  13
BRANCH   1  20
ATOM     19  O   UNL     1     -10.461  10.674  63.724  0.00  0.00    -0.240 OA
ATOM     20  C   UNL     1      -9.843  10.537  64.820  0.00  0.00    +0.392 C 
ATOM     21  O   UNL     1      -8.475  10.280  64.708  0.00  0.00    -0.240 OA
ENDBRANCH   1  20
BRANCH  10  22
ATOM     22  C   UNL     1     -10.886  15.028  66.572  0.00  0.00    +0.086 C 
ATOM     23  C   UNL     1     -10.795  15.656  65.227  0.00  0.00    +0.024 C 
ATOM     24  C   UNL     1      -9.610  15.756  66.227  0.00  0.00    +0.024 C 
ENDBRANCH  10  22
TORSDOF 3
ENDMDL
MODEL 2
REMARK VINA RESULT:      -7.2      3.585      7.231
REMARK  Name = 
REMARK  3 active torsions:
REMARK  status: ('A' for Active; 'I' for Inactive)
REMARK    1  A    between atoms: C_2  and  C_4
REMARK    2  A    between atoms: N_6  and  C_7
REMARK    3  A    between atoms: C_12  and  N_13
REMARK                            x       y       z     vdW  Elec       q    Type
REMARK                         _______ _______ _______ _____ _____    ______ ____
ROOT
ATOM      1  C   UNL     1     -12.184  14.700  71.043  0.00  0.00    +0.136 A 
ATOM      2  C   UNL     1     -11.907  15.383  69.865  0.00  0.00    +0.205 A 
ATOM      3  O   UNL     1     -11.307  16.487  70.012  0.00  0.00    -0.286 OA
ATOM      4  C   UNL     1     -11.783  14.634  68.701  0.00  0.00    +0.057 A 
ATOM      5  C   UNL     1     -11.765  13.263  68.774  0.00  0.00    +0.064 A 
ATOM      6  C   UNL     1     -11.215  12.504  67.749  0.00  0.00    +0.034 A 
ATOM      7  C   UNL     1     -10.608  13.122  66.662  0.00  0.00    +0.077 A 
ATOM      8  C   UNL     1     -10.661  14.499  66.571  0.00  0.00    +0.154 A 
ATOM      9  F   UNL     1      -9.792  15.073  65.689  0.00  0.00    -0.203 F 
ATOM     10  N   UNL     1     -12.066  12.628  69.931  0.00  0.00    -0.328 N 
ATOM     11  C   UNL     1     -11.271  15.231  67.557  0.00  0.00    +0.036 A 
ATOM     12  C   UNL     1     -12.498  13.361  70.984  0.00  0.00    +0.086 A 
ENDROOT
BRANCH   7  13
ATOM     13  N   UNL     1     -10.155  12.374  65.540  0.00  0.00    -0.303 N 
ATOM     14  C   UNL     1      -9.533  11.084  65.733  0.00  0.00    +0.110 C 
ATOM     15  C   UNL     1      -8.837  10.602  64.494  0.00  0.00    +0.110 C 
ATOM     16  N   UNL     1      -9.597  10.790  63.287  0.00  0.00    -0.214 NA
ATOM     17  C   UNL     1     -10.917  11.344  63.528  0.00  0.00    +0.110 C 
ATOM     18  C   UNL     1     -10.697  12.679  64.228  0.00  0.00    +0.110 C 
ENDBRANCH   7  13
BRANCH   1  20
ATOM     19  O   UNL     1     -13.828  15.898  72.158  0.00  0.00    -0.240 OA
ATOM     20  C   UNL     1     -12.613  15.545  72.166  0.00  0.00    +0.392 C 
ATOM     21  O   UNL     1     -12.092  15.217  73.419  0.00  0.00    -0.240 OA
ENDBRANCH   1  20
BRANCH  10  22
ATOM     22  C   UNL     1     -12.298  11.196  69.860  0.00  0.00    +0.086 C 
ATOM     23  C   UNL     1     -12.852  10.461  71.028  0.00  0.00    +0.024 C 
ATOM     24  C   UNL     1     -11.349  10.333  70.655  0.00  0.00    +0.024 C 
ENDBRANCH  10  22
TORSDOF 3
ENDMDL
MODEL 3
REMARK VINA RESULT:      -7.2      3.484      5.425
REMARK  Name = 
REMARK  3 active torsions:
REMARK  status: ('A' for Active; 'I' for Inactive)
REMARK    1  A    between atoms: C_2  and  C_4
REMARK    2  A    between atoms: N_6  and  C_7
REMARK    3  A    between atoms: C_12  and  N_13
REMARK                            x       y       z     vdW  Elec       q    Type
REMARK                         _______ _______ _______ _____ _____    ______ ____
ROOT
ATOM      1  C   UNL     1     -10.774  15.971  68.398  0.00  0.00    +0.136 A 
ATOM      2  C   UNL     1     -11.002  14.843  67.618  0.00  0.00    +0.205 A 
ATOM      3  O   UNL     1     -10.224  14.709  66.628  0.00  0.00    -0.286 OA
ATOM      4  C   UNL     1     -11.601  13.749  68.230  0.00  0.00    +0.057 A 
ATOM      5  C   UNL     1     -11.789  13.748  69.589  0.00  0.00    +0.064 A 
ATOM      6  C   UNL     1     -11.959  12.557  70.284  0.00  0.00    +0.034 A 
ATOM      7  C   UNL     1     -11.871  11.338  69.622  0.00  0.00    +0.077 A 
ATOM      8  C   UNL     1     -11.721  11.340  68.250  0.00  0.00    +0.154 A 
ATOM      9  F   UNL     1     -11.316  10.163  67.690  0.00  0.00    -0.203 F 
ATOM     10  N   UNL     1     -11.584  14.872  70.316  0.00  0.00    -0.328 N 
ATOM     11  C   UNL     1     -11.626  12.528  67.570  0.00  0.00    +0.036 A 
ATOM     12  C   UNL     1     -11.304  16.027  69.667  0.00  0.00    +0.086 A 
ENDROOT
BRANCH   7  13
ATOM     13  N   UNL     1     -12.170  10.113  70.281  0.00  0.00    -0.303 N 
ATOM     14  C   UNL     1     -11.100   9.236  70.698  0.00  0.00    +0.110 C 
ATOM     15  C   UNL     1     -11.601   7.871  71.069  0.00  0.00    +0.110 C 
ATOM     16  N   UNL     1     -12.791   7.886  71.878  0.00  0.00    -0.214 NA
ATOM     17  C   UNL     1     -13.220   9.228  72.231  0.00  0.00    +0.110 C 
ATOM     18  C   UNL     1     -13.467   9.955  70.915  0.00  0.00    +0.110 C 
ENDBRANCH   7  13
BRANCH   1  20
ATOM     19  O   UNL     1     -11.234  18.162  67.788  0.00  0.00    -0.240 OA
ATOM     20  C   UNL     1     -10.437  17.188  67.648  0.00  0.00    +0.392 C 
ATOM     21  O   UNL     1      -9.084  17.525  67.594  0.00  0.00    -0.240 OA
ENDBRANCH   1  20
BRANCH  10  22
ATOM     22  C   UNL     1     -12.067  14.872  71.687  0.00  0.00    +0.086 C 
ATOM     23  C   UNL     1     -13.338  15.559  72.040  0.00  0.00    +0.024 C 
ATOM     24  C   UNL     1     -11.968  16.187  72.422  0.00  0.00    +0.024 C 
ENDBRANCH  10  22
TORSDOF 3
ENDMDL
MODEL 4
REMARK VINA RESULT:      -7.1      4.432      6.325
REMARK  Name = 
REMARK  3 active torsions:
REMARK  status: ('A' for Active; 'I' for Inactive)
REMARK    1  A    between atoms: C_2  and  C_4
REMARK    2  A    between atoms: N_6  and  C_7
REMARK    3  A    between atoms: C_12  and  N_13
REMARK                            x       y       z     vdW  Elec       q    Type
REMARK                         _______ _______ _______ _____ _____    ______ ____
ROOT
ATOM      1  C   UNL     1     -11.410  14.392  66.611  0.00  0.00    +0.136 A 
ATOM      2  C   UNL     1     -10.144  14.696  66.122  0.00  0.00    +0.205 A 
ATOM      3  O   UNL     1     -10.043  14.703  64.860  0.00  0.00    -0.286 OA
ATOM      4  C   UNL     1      -9.312  15.465  66.926  0.00  0.00    +0.057 A 
ATOM      5  C   UNL     1      -9.810  16.032  68.072  0.00  0.00    +0.064 A 
ATOM      6  C   UNL     1      -9.184  17.129  68.652  0.00  0.00    +0.034 A 
ATOM      7  C   UNL     1      -8.082  17.715  68.042  0.00  0.00    +0.077 A 
ATOM      8  C   UNL     1      -7.559  17.121  66.911  0.00  0.00    +0.154 A 
ATOM      9  F   UNL     1      -6.707  17.889  66.171  0.00  0.00    -0.203 F 
ATOM     10  N   UNL     1     -11.036  15.695  68.535  0.00  0.00    -0.328 N 
ATOM     11  C   UNL     1      -8.147  15.996  66.391  0.00  0.00    +0.036 A 
ATOM     12  C   UNL     1     -11.717  14.702  67.916  0.00  0.00    +0.086 A 
ENDROOT
BRANCH   7  13
ATOM     13  N   UNL     1      -7.345  18.753  68.678  0.00  0.00    -0.303 N 
ATOM     14  C   UNL     1      -6.172  18.435  69.458  0.00  0.00    +0.110 C 
ATOM     15  C   UNL     1      -5.726  19.591  70.304  0.00  0.00    +0.110 C 
ATOM     16  N   UNL     1      -5.734  20.855  69.617  0.00  0.00    -0.214 NA
ATOM     17  C   UNL     1      -6.104  20.738  68.218  0.00  0.00    +0.110 C 
ATOM     18  C   UNL     1      -7.495  20.116  68.197  0.00  0.00    +0.110 C 
ENDBRANCH   7  13
BRANCH   1  20
ATOM     19  O   UNL     1     -12.190  12.212  66.461  0.00  0.00    -0.240 OA
ATOM     20  C   UNL     1     -12.121  13.335  65.880  0.00  0.00    +0.392 C 
ATOM     21  O   UNL     1     -13.273  13.726  65.195  0.00  0.00    -0.240 OA
ENDBRANCH   1  20
BRANCH  10  22
ATOM     22  C   UNL     1     -11.375  16.118  69.884  0.00  0.00    +0.086 C 
ATOM     23  C   UNL     1     -11.267  15.168  71.023  0.00  0.00    +0.024 C 
ATOM     24  C   UNL     1     -12.657  15.557  70.449  0.00  0.00    +0.024 C 
ENDBRANCH  10  22
TORSDOF 3
ENDMDL
MODEL 5
REMARK VINA RESULT:      -6.9      3.366      6.557
REMARK  Name = 
REMARK  3 active torsions:
REMARK  status: ('A' for Active; 'I' for Inactive)
REMARK    1  A    between atoms: C_2  and  C_4
REMARK    2  A    between atoms: N_6  and  C_7
REMARK    3  A    between atoms: C_12  and  N_13
REMARK                            x       y       z     vdW  Elec       q    Type
REMARK                         _______ _______ _______ _____ _____    ______ ____
ROOT
ATOM      1  C   UNL     1     -12.560  15.106  71.038  0.00  0.00    +0.136 A 
ATOM      2  C   UNL     1     -12.399  13.726  70.990  0.00  0.00    +0.205 A 
ATOM      3  O   UNL     1     -13.274  13.061  71.618  0.00  0.00    -0.286 OA
ATOM      4  C   UNL     1     -11.723  13.195  69.898  0.00  0.00    +0.057 A 
ATOM      5  C   UNL     1     -11.393  14.008  68.842  0.00  0.00    +0.064 A 
ATOM      6  C   UNL     1     -11.134  13.472  67.586  0.00  0.00    +0.034 A 
ATOM      7  C   UNL     1     -11.272  12.108  67.361  0.00  0.00    +0.077 A 
ATOM      8  C   UNL     1     -11.566  11.287  68.431  0.00  0.00    +0.154 A 
ATOM      9  F   UNL     1     -12.009  10.034  68.121  0.00  0.00    -0.203 F 
ATOM     10  N   UNL     1     -11.537  15.351  68.931  0.00  0.00    -0.328 N 
ATOM     11  C   UNL     1     -11.749  11.825  69.680  0.00  0.00    +0.036 A 
ATOM     12  C   UNL     1     -11.901  15.890  70.119  0.00  0.00    +0.086 A 
ENDROOT
BRANCH   7  13
ATOM     13  N   UNL     1     -10.888  11.517  66.125  0.00  0.00    -0.303 N 
ATOM     14  C   UNL     1     -11.157  12.201  64.881  0.00  0.00    +0.110 C 
ATOM     15  C   UNL     1     -10.985  11.300  63.693  0.00  0.00    +0.110 C 
ATOM     16  N   UNL     1      -9.804  10.479  63.749  0.00  0.00    -0.214 NA
ATOM     17  C   UNL     1      -8.982  10.747  64.915  0.00  0.00    +0.110 C 
ATOM     18  C   UNL     1      -9.866  10.485  66.128  0.00  0.00    +0.110 C 
ENDBRANCH   7  13
BRANCH   1  20
ATOM     19  O   UNL     1     -12.162  16.387  72.931  0.00  0.00    -0.240 OA
ATOM     20  C   UNL     1     -12.992  15.637  72.338  0.00  0.00    +0.392 C 
ATOM     21  O   UNL     1     -14.328  16.030  72.431  0.00  0.00    -0.240 OA
ENDBRANCH   1  20
BRANCH  10  22
ATOM     22  C   UNL     1     -10.914  16.155  67.894  0.00  0.00    +0.086 C 
ATOM     23  C   UNL     1      -9.467  16.496  67.970  0.00  0.00    +0.024 C 
ATOM     24  C   UNL     1     -10.549  17.567  68.283  0.00  0.00    +0.024 C 
ENDBRANCH  10  22
TORSDOF 3
ENDMDL
MODEL 6
REMARK VINA RESULT:      -6.9      2.724      5.976
REMARK  Name = 
REMARK  3 active torsions:
REMARK  status: ('A' for Active; 'I' for Inactive)
REMARK    1  A    between atoms: C_2  and  C_4
REMARK    2  A    between atoms: N_6  and  C_7
REMARK    3  A    between atoms: C_12  and  N_13
REMARK                            x       y       z     vdW  Elec       q    Type
REMARK                         _______ _______ _______ _____ _____    ______ ____
ROOT
ATOM      1  C   UNL     1     -12.763  10.198  71.333  0.00  0.00    +0.136 A 
ATOM      2  C   UNL     1     -11.772  10.014  70.377  0.00  0.00    +0.205 A 
ATOM      3  O   UNL     1     -11.804   8.900  69.777  0.00  0.00    -0.286 OA
ATOM      4  C   UNL     1     -11.235  11.149  69.781  0.00  0.00    +0.057 A 
ATOM      5  C   UNL     1     -11.802  12.376  70.020  0.00  0.00    +0.064 A 
ATOM      6  C   UNL     1     -11.604  13.435  69.143  0.00  0.00    +0.034 A 
ATOM      7  C   UNL     1     -10.885  13.250  67.969  0.00  0.00    +0.077 A 
ATOM      8  C   UNL     1     -10.282  12.028  67.747  0.00  0.00    +0.154 A 
ATOM      9  F   UNL     1      -9.875  11.784  66.467  0.00  0.00    -0.203 F 
ATOM     10  N   UNL     1     -12.747  12.526  70.978  0.00  0.00    -0.328 N 
ATOM     11  C   UNL     1     -10.428  11.014  68.659  0.00  0.00    +0.036 A 
ATOM     12  C   UNL     1     -13.040  11.471  71.776  0.00  0.00    +0.086 A 
ENDROOT
BRANCH   7  13
ATOM     13  N   UNL     1     -10.556  14.344  67.119  0.00  0.00    -0.303 N 
ATOM     14  C   UNL     1     -11.410  14.674  66.001  0.00  0.00    +0.110 C 
ATOM     15  C   UNL     1     -10.748  15.624  65.047  0.00  0.00    +0.110 C 
ATOM     16  N   UNL     1     -10.058  16.711  65.689  0.00  0.00    -0.214 NA
ATOM     17  C   UNL     1     -10.208  16.704  67.133  0.00  0.00    +0.110 C 
ATOM     18  C   UNL     1      -9.652  15.368  67.612  0.00  0.00    +0.110 C 
ENDBRANCH   7  13
BRANCH   1  20
ATOM     19  O   UNL     1     -12.133   8.597  72.889  0.00  0.00    -0.240 OA
ATOM     20  C   UNL     1     -13.070   9.014  72.147  0.00  0.00    +0.392 C 
ATOM     21  O   UNL     1     -14.347   8.965  72.709  0.00  0.00    -0.240 OA
ENDBRANCH   1  20
BRANCH  10  22
ATOM     22  C   UNL     1     -13.092  13.884  71.361  0.00  0.00    +0.086 C 
ATOM     23  C   UNL     1     -13.065  14.296  72.791  0.00  0.00    +0.024 C 
ATOM     24  C   UNL     1     -14.417  14.055  72.063  0.00  0.00    +0.024 C 
ENDBRANCH  10  22
TORSDOF 3
ENDMDL
MODEL 7
REMARK VINA RESULT:      -6.8      3.176      4.640
REMARK  Name = 
REMARK  3 active torsions:
REMARK  status: ('A' for Active; 'I' for Inactive)
REMARK    1  A    between atoms: C_2  and  C_4
REMARK    2  A    between atoms: N_6  and  C_7
REMARK    3  A    between atoms: C_12  and  N_13
REMARK                            x       y       z     vdW  Elec       q    Type
REMARK                         _______ _______ _______ _____ _____    ______ ____
ROOT
ATOM      1  C   UNL     1     -10.972  15.107  66.059  0.00  0.00    +0.136 A 
ATOM      2  C   UNL     1     -11.017  15.142  67.448  0.00  0.00    +0.205 A 
ATOM      3  O   UNL     1     -11.600  16.151  67.941  0.00  0.00    -0.286 OA
ATOM      4  C   UNL     1     -10.958  13.930  68.125  0.00  0.00    +0.057 A 
ATOM      5  C   UNL     1     -11.030  12.754  67.420  0.00  0.00    +0.064 A 
ATOM      6  C   UNL     1     -11.414  11.573  68.043  0.00  0.00    +0.034 A 
ATOM      7  C   UNL     1     -11.802  11.576  69.377  0.00  0.00    +0.077 A 
ATOM      8  C   UNL     1     -11.693  12.750  70.095  0.00  0.00    +0.154 A 
ATOM      9  F   UNL     1     -12.376  12.795  71.277  0.00  0.00    -0.203 F 
ATOM     10  N   UNL     1     -10.956  12.753  66.068  0.00  0.00    -0.328 N 
ATOM     11  C   UNL     1     -11.243  13.892  69.482  0.00  0.00    +0.036 A 
ATOM     12  C   UNL     1     -10.693  13.917  65.428  0.00  0.00    +0.086 A 
ENDROOT
BRANCH   7  13
ATOM     13  N   UNL     1     -12.074  10.365  70.074  0.00  0.00    -0.303 N 
ATOM     14  C   UNL     1     -10.988   9.584  70.619  0.00  0.00    +0.110 C 
ATOM     15  C   UNL     1     -11.429   8.208  71.021  0.00  0.00    +0.110 C 
ATOM     16  N   UNL     1     -12.679   8.180  71.733  0.00  0.00    -0.214 NA
ATOM     17  C   UNL     1     -13.221   9.504  71.980  0.00  0.00    +0.110 C 
ATOM     18  C   UNL     1     -13.405  10.149  70.612  0.00  0.00    +0.110 C 
ENDBRANCH   7  13
BRANCH   1  20
ATOM     19  O   UNL     1      -9.534  16.834  65.484  0.00  0.00    -0.240 OA
ATOM     20  C   UNL     1     -10.722  16.402  65.412  0.00  0.00    +0.392 C 
ATOM     21  O   UNL     1     -11.365  16.616  64.192  0.00  0.00    -0.240 OA
ENDBRANCH   1  20
BRANCH  10  22
ATOM     22  C   UNL     1     -10.759  11.469  65.416  0.00  0.00    +0.086 C 
ATOM     23  C   UNL     1      -9.616  11.261  64.486  0.00  0.00    +0.024 C 
ATOM     24  C   UNL     1     -11.061  11.425  63.938  0.00  0.00    +0.024 C 
ENDBRANCH  10  22
TORSDOF 3
ENDMDL
MODEL 8
REMARK VINA RESULT:      -6.6      5.996      8.338
REMARK  Name = 
REMARK  3 active torsions:
REMARK  status: ('A' for Active; 'I' for Inactive)
REMARK    1  A    between atoms: C_2  and  C_4
REMARK    2  A    between atoms: N_6  and  C_7
REMARK    3  A    between atoms: C_12  and  N_13
REMARK                            x       y       z     vdW  Elec       q    Type
REMARK                         _______ _______ _______ _____ _____    ______ ____
ROOT
ATOM      1  C   UNL     1      -6.025  19.799  68.710  0.00  0.00    +0.136 A 
ATOM      2  C   UNL     1      -7.228  20.170  68.121  0.00  0.00    +0.205 A 
ATOM      3  O   UNL     1      -7.154  21.142  67.313  0.00  0.00    -0.286 OA
ATOM      4  C   UNL     1      -8.214  19.198  68.005  0.00  0.00    +0.057 A 
ATOM      5  C   UNL     1      -7.920  17.892  68.309  0.00  0.00    +0.064 A 
ATOM      6  C   UNL     1      -8.693  16.853  67.806  0.00  0.00    +0.034 A 
ATOM      7  C   UNL     1      -9.737  17.115  66.927  0.00  0.00    +0.077 A 
ATOM      8  C   UNL     1     -10.057  18.430  66.652  0.00  0.00    +0.154 A 
ATOM      9  F   UNL     1     -10.848  18.638  65.560  0.00  0.00    -0.203 F 
ATOM     10  N   UNL     1      -6.749  17.568  68.907  0.00  0.00    -0.328 N 
ATOM     11  C   UNL     1      -9.328  19.446  67.215  0.00  0.00    +0.036 A 
ATOM     12  C   UNL     1      -5.924  18.564  69.307  0.00  0.00    +0.086 A 
ENDROOT
BRANCH   7  13
ATOM     13  N   UNL     1     -10.624  16.087  66.500  0.00  0.00    -0.303 N 
ATOM     14  C   UNL     1     -10.505  15.534  65.171  0.00  0.00    +0.110 C 
ATOM     15  C   UNL     1     -11.703  14.715  64.791  0.00  0.00    +0.110 C 
ATOM     16  N   UNL     1     -12.160  13.832  65.831  0.00  0.00    -0.214 NA
ATOM     17  C   UNL     1     -11.318  13.863  67.013  0.00  0.00    +0.110 C 
ATOM     18  C   UNL     1     -11.327  15.306  67.503  0.00  0.00    +0.110 C 
ENDBRANCH   7  13
BRANCH   1  20
ATOM     19  O   UNL     1      -5.218  21.284  70.300  0.00  0.00    -0.240 OA
ATOM     20  C   UNL     1      -5.149  20.915  69.091  0.00  0.00    +0.392 C 
ATOM     21  O   UNL     1      -3.867  20.910  68.539  0.00  0.00    -0.240 OA
ENDBRANCH   1  20
BRANCH  10  22
ATOM     22  C   UNL     1      -6.630  16.224  69.445  0.00  0.00    +0.086 C 
ATOM     23  C   UNL     1      -5.514  15.874  70.365  0.00  0.00    +0.024 C 
ATOM     24  C   UNL     1      -5.504  15.387  68.889  0.00  0.00    +0.024 C 
ENDBRANCH  10  22
TORSDOF 3
ENDMDL
MODEL 9
REMARK VINA RESULT:      -6.6      3.191      5.726
REMARK  Name = 
REMARK  3 active torsions:
REMARK  status: ('A' for Active; 'I' for Inactive)
REMARK    1  A    between atoms: C_2  and  C_4
REMARK    2  A    between atoms: N_6  and  C_7
REMARK    3  A    between atoms: C_12  and  N_13
REMARK                            x       y       z     vdW  Elec       q    Type
REMARK                         _______ _______ _______ _____ _____    ______ ____
ROOT
ATOM      1  C   UNL     1     -11.830  12.175  69.655  0.00  0.00    +0.136 A 
ATOM      2  C   UNL     1     -10.801  12.453  68.763  0.00  0.00    +0.205 A 
ATOM      3  O   UNL     1     -10.711  11.658  67.782  0.00  0.00    -0.286 OA
ATOM      4  C   UNL     1     -10.358  13.767  68.681  0.00  0.00    +0.057 A 
ATOM      5  C   UNL     1     -11.045  14.758  69.337  0.00  0.00    +0.064 A 
ATOM      6  C   UNL     1     -10.925  16.086  68.945  0.00  0.00    +0.034 A 
ATOM      7  C   UNL     1     -10.161  16.426  67.836  0.00  0.00    +0.077 A 
ATOM      8  C   UNL     1      -9.440  15.435  67.200  0.00  0.00    +0.154 A 
ATOM      9  F   UNL     1      -8.979  15.737  65.952  0.00  0.00    -0.203 F 
ATOM     10  N   UNL     1     -12.025  14.452  70.220  0.00  0.00    -0.328 N 
ATOM     11  C   UNL     1      -9.513  14.139  67.644  0.00  0.00    +0.036 A 
ATOM     12  C   UNL     1     -12.237  13.152  70.534  0.00  0.00    +0.086 A 
ENDROOT
BRANCH   7  13
ATOM     13  N   UNL     1      -9.916  17.785  67.491  0.00  0.00    -0.303 N 
ATOM     14  C   UNL     1     -10.637  18.396  66.399  0.00  0.00    +0.110 C 
ATOM     15  C   UNL     1     -10.026  19.700  65.978  0.00  0.00    +0.110 C 
ATOM     16  N   UNL     1      -9.654  20.552  67.077  0.00  0.00    -0.214 NA
ATOM     17  C   UNL     1     -10.017  20.000  68.370  0.00  0.00    +0.110 C 
ATOM     18  C   UNL     1      -9.302  18.658  68.476  0.00  0.00    +0.110 C 
ENDBRANCH   7  13
BRANCH   1  20
ATOM     19  O   UNL     1     -11.026  10.103  70.322  0.00  0.00    -0.240 OA
ATOM     20  C   UNL     1     -12.044  10.748  69.933  0.00  0.00    +0.392 C 
ATOM     21  O   UNL     1     -13.242  10.416  70.567  0.00  0.00    -0.240 OA
ENDBRANCH   1  20
BRANCH  10  22
ATOM     22  C   UNL     1     -12.508  15.525  71.072  0.00  0.00    +0.086 C 
ATOM     23  C   UNL     1     -12.284  15.482  72.542  0.00  0.00    +0.024 C 
ATOM     24  C   UNL     1     -13.690  15.192  71.948  0.00  0.00    +0.024 C 
ENDBRANCH  10  22
TORSDOF 3
ENDMDL
