MODEL 1
REMARK VINA RESULT:      -6.0      0.000      0.000
REMARK  Name = 
REMARK  5 active torsions:
REMARK  status: ('A' for Active; 'I' for Inactive)
REMARK    1  A    between atoms: C_2  and  C_3
REMARK    2  A    between atoms: C_3  and  S_4
REMARK    3  A    between atoms: S_4  and  C_5
REMARK    4  A    between atoms: N_11  and  C_12
REMARK    5  A    between atoms: C_12  and  O_14
REMARK                            x       y       z     vdW  Elec       q    Type
REMARK                         _______ _______ _______ _____ _____    ______ ____
ROOT
ATOM      1  C   UNL     1     -12.468  14.725  70.489  0.00  0.00    +0.027 A 
ATOM      2  C   UNL     1     -12.412  13.865  69.408  0.00  0.00    +0.027 A 
ATOM      3  C   UNL     1     -11.773  14.265  68.247  0.00  0.00    +0.102 A 
ATOM      4  C   UNL     1     -10.791  15.236  68.401  0.00  0.00    +0.102 A 
ATOM      5  N   UNL     1     -10.168  15.263  67.197  0.00  0.00    -0.211 NA
ATOM      6  C   UNL     1     -10.957  14.622  66.302  0.00  0.00    +0.246 A 
ATOM      7  N   UNL     1     -10.884  14.631  65.007  0.00  0.00    -0.106 NA
ATOM      8  C   UNL     1     -10.775  16.036  69.529  0.00  0.00    +0.021 A 
ATOM      9  N   UNL     1     -12.058  14.137  66.928  0.00  0.00    -0.211 NA
ATOM     10  C   UNL     1     -11.801  15.944  70.461  0.00  0.00    +0.008 A 
ENDROOT
BRANCH   7  11
ATOM     11  C   UNL     1     -12.021  14.917  64.182  0.00  0.00    +0.428 C 
ATOM     12  O   UNL     1     -12.298  16.106  63.849  0.00  0.00    -0.224 OA
BRANCH  11  13
ATOM     13  O   UNL     1     -12.533  13.887  63.399  0.00  0.00    -0.429 OA
ATOM     14  C   UNL     1     -12.139  12.528  63.567  0.00  0.00    +0.257 C 
ENDBRANCH  11  13
ENDBRANCH   7  11
BRANCH   1  15
ATOM     15  S   UNL     1     -13.122  14.058  72.026  0.00  0.00    -0.114 S 
BRANCH  15  16
ATOM     16  C   UNL     1     -13.427  15.497  73.106  0.00  0.00    +0.062 C 
BRANCH  16  18
ATOM     17  C   UNL     1     -12.373  16.681  75.058  0.00  0.00    +0.001 C 
ATOM     18  C   UNL     1     -12.405  15.401  74.231  0.00  0.00    +0.012 C 
ENDBRANCH  16  18
ENDBRANCH  15  16
ENDBRANCH   1  15
TORSDOF 5
ENDMDL
MODEL 2
REMARK VINA RESULT:      -5.7      2.467      3.390
REMARK  Name = 
REMARK  5 active torsions:
REMARK  status: ('A' for Active; 'I' for Inactive)
REMARK    1  A    between atoms: C_2  and  C_3
REMARK    2  A    between atoms: C_3  and  S_4
REMARK    3  A    between atoms: S_4  and  C_5
REMARK    4  A    between atoms: N_11  and  C_12
REMARK    5  A    between atoms: C_12  and  O_14
REMARK                            x       y       z     vdW  Elec       q    Type
REMARK                         _______ _______ _______ _____ _____    ______ ____
ROOT
ATOM      1  C   UNL     1     -12.226  13.887  70.259  0.00  0.00    +0.027 A 
ATOM      2  C   UNL     1     -12.190  15.149  69.697  0.00  0.00    +0.027 A 
ATOM      3  C   UNL     1     -11.615  15.328  68.450  0.00  0.00    +0.102 A 
ATOM      4  C   UNL     1     -11.603  14.211  67.624  0.00  0.00    +0.102 A 
ATOM      5  N   UNL     1     -11.231  14.703  66.416  0.00  0.00    -0.211 NA
ATOM      6  C   UNL     1     -10.716  15.941  66.608  0.00  0.00    +0.246 A 
ATOM      7  N   UNL     1     -10.016  16.661  65.788  0.00  0.00    -0.106 NA
ATOM      8  C   UNL     1     -11.742  12.946  68.164  0.00  0.00    +0.021 A 
ATOM      9  N   UNL     1     -10.799  16.272  67.921  0.00  0.00    -0.211 NA
ATOM     10  C   UNL     1     -11.788  12.779  69.542  0.00  0.00    +0.008 A 
ENDROOT
BRANCH   7  11
ATOM     11  C   UNL     1      -8.769  17.257  66.171  0.00  0.00    +0.428 C 
ATOM     12  O   UNL     1      -7.699  16.581  66.163  0.00  0.00    -0.224 OA
BRANCH  11  13
ATOM     13  O   UNL     1      -8.664  18.642  66.111  0.00  0.00    -0.429 OA
ATOM     14  C   UNL     1      -9.801  19.500  66.148  0.00  0.00    +0.257 C 
ENDBRANCH  11  13
ENDBRANCH   7  11
BRANCH   1  15
ATOM     15  S   UNL     1     -13.176  13.698  71.774  0.00  0.00    -0.114 S 
BRANCH  15  16
ATOM     16  C   UNL     1     -14.116  15.249  71.972  0.00  0.00    +0.062 C 
BRANCH  16  18
ATOM     17  C   UNL     1     -12.409  15.116  73.815  0.00  0.00    +0.001 C 
ATOM     18  C   UNL     1     -13.500  15.962  73.170  0.00  0.00    +0.012 C 
ENDBRANCH  16  18
ENDBRANCH  15  16
ENDBRANCH   1  15
TORSDOF 5
ENDMDL
MODEL 3
REMARK VINA RESULT:      -5.7      3.507      4.496
REMARK  Name = 
REMARK  5 active torsions:
REMARK  status: ('A' for Active; 'I' for Inactive)
REMARK    1  A    between atoms: C_2  and  C_3
REMARK    2  A    between atoms: C_3  and  S_4
REMARK    3  A    between atoms: S_4  and  C_5
REMARK    4  A    between atoms: N_11  and  C_12
REMARK    5  A    between atoms: C_12  and  O_14
REMARK                            x       y       z     vdW  Elec       q    Type
REMARK                         _______ _______ _______ _____ _____    ______ ____
ROOT
ATOM      1  C   UNL     1     -12.723  10.888  71.093  0.00  0.00    +0.027 A 
ATOM      2  C   UNL     1     -12.040  10.733  69.902  0.00  0.00    +0.027 A 
ATOM      3  C   UNL     1     -11.838  11.827  69.079  0.00  0.00    +0.102 A 
ATOM      4  C   UNL     1     -11.841  13.066  69.709  0.00  0.00    +0.102 A 
ATOM      5  N   UNL     1     -11.385  13.917  68.757  0.00  0.00    -0.211 NA
ATOM      6  C   UNL     1     -11.458  13.286  67.561  0.00  0.00    +0.246 A 
ATOM      7  N   UNL     1     -11.373  13.796  66.372  0.00  0.00    -0.106 NA
ATOM      8  C   UNL     1     -12.433  13.212  70.950  0.00  0.00    +0.021 A 
ATOM      9  N   UNL     1     -11.908  12.019  67.739  0.00  0.00    -0.211 NA
ATOM     10  C   UNL     1     -13.118  12.149  71.524  0.00  0.00    +0.008 A 
ENDROOT
BRANCH   7  11
ATOM     11  C   UNL     1     -12.350  13.529  65.357  0.00  0.00    +0.428 C 
ATOM     12  O   UNL     1     -13.507  14.039  65.422  0.00  0.00    -0.224 OA
BRANCH  11  13
ATOM     13  O   UNL     1     -11.898  13.100  64.114  0.00  0.00    -0.429 OA
ATOM     14  C   UNL     1     -12.468  11.986  63.433  0.00  0.00    +0.257 C 
ENDBRANCH  11  13
ENDBRANCH   7  11
BRANCH   1  15
ATOM     15  S   UNL     1     -12.757   9.473  72.202  0.00  0.00    -0.114 S 
BRANCH  15  16
ATOM     16  C   UNL     1     -12.115   8.064  71.237  0.00  0.00    +0.062 C 
BRANCH  16  18
ATOM     17  C   UNL     1     -14.529   7.454  71.597  0.00  0.00    +0.001 C 
ATOM     18  C   UNL     1     -13.106   6.927  71.446  0.00  0.00    +0.012 C 
ENDBRANCH  16  18
ENDBRANCH  15  16
ENDBRANCH   1  15
TORSDOF 5
ENDMDL
MODEL 4
REMARK VINA RESULT:      -5.6      4.412      6.812
REMARK  Name = 
REMARK  5 active torsions:
REMARK  status: ('A' for Active; 'I' for Inactive)
REMARK    1  A    between atoms: C_2  and  C_3
REMARK    2  A    between atoms: C_3  and  S_4
REMARK    3  A    between atoms: S_4  and  C_5
REMARK    4  A    between atoms: N_11  and  C_12
REMARK    5  A    between atoms: C_12  and  O_14
REMARK                            x       y       z     vdW  Elec       q    Type
REMARK                         _______ _______ _______ _____ _____    ______ ____
ROOT
ATOM      1  C   UNL     1      -9.702  16.708  67.578  0.00  0.00    +0.027 A 
ATOM      2  C   UNL     1      -9.734  16.600  68.955  0.00  0.00    +0.027 A 
ATOM      3  C   UNL     1     -10.691  15.801  69.558  0.00  0.00    +0.102 A 
ATOM      4  C   UNL     1     -11.192  14.765  68.779  0.00  0.00    +0.102 A 
ATOM      5  N   UNL     1     -11.896  14.008  69.656  0.00  0.00    -0.211 NA
ATOM      6  C   UNL     1     -12.091  14.740  70.779  0.00  0.00    +0.246 A 
ATOM      7  N   UNL     1     -12.914  14.518  71.756  0.00  0.00    -0.106 NA
ATOM      8  C   UNL     1     -11.075  14.813  67.402  0.00  0.00    +0.021 A 
ATOM      9  N   UNL     1     -11.475  15.942  70.654  0.00  0.00    -0.211 NA
ATOM     10  C   UNL     1     -10.551  15.943  66.787  0.00  0.00    +0.008 A 
ENDROOT
BRANCH   7  11
ATOM     11  C   UNL     1     -13.814  15.525  72.237  0.00  0.00    +0.428 C 
ATOM     12  O   UNL     1     -14.973  15.648  71.742  0.00  0.00    -0.224 OA
BRANCH  11  13
ATOM     13  O   UNL     1     -13.591  16.043  73.508  0.00  0.00    -0.429 OA
ATOM     14  C   UNL     1     -12.462  15.680  74.297  0.00  0.00    +0.257 C 
ENDBRANCH  11  13
ENDBRANCH   7  11
BRANCH   1  15
ATOM     15  S   UNL     1      -8.306  17.587  66.863  0.00  0.00    -0.114 S 
BRANCH  15  16
ATOM     16  C   UNL     1      -8.520  19.336  67.336  0.00  0.00    +0.062 C 
BRANCH  16  18
ATOM     17  C   UNL     1     -10.513  19.856  65.893  0.00  0.00    +0.001 C 
ATOM     18  C   UNL     1     -10.021  19.597  67.312  0.00  0.00    +0.012 C 
ENDBRANCH  16  18
ENDBRANCH  15  16
ENDBRANCH   1  15
TORSDOF 5
ENDMDL
MODEL 5
REMARK VINA RESULT:      -5.6      4.505      5.753
REMARK  Name = 
REMARK  5 active torsions:
REMARK  status: ('A' for Active; 'I' for Inactive)
REMARK    1  A    between atoms: C_2  and  C_3
REMARK    2  A    between atoms: C_3  and  S_4
REMARK    3  A    between atoms: S_4  and  C_5
REMARK    4  A    between atoms: N_11  and  C_12
REMARK    5  A    between atoms: C_12  and  O_14
REMARK                            x       y       z     vdW  Elec       q    Type
REMARK                         _______ _______ _______ _____ _____    ______ ____
ROOT
ATOM      1  C   UNL     1      -9.119  18.596  67.802  0.00  0.00    +0.027 A 
ATOM      2  C   UNL     1      -8.906  17.341  67.265  0.00  0.00    +0.027 A 
ATOM      3  C   UNL     1      -9.793  16.834  66.331  0.00  0.00    +0.102 A 
ATOM      4  C   UNL     1     -10.507  17.777  65.602  0.00  0.00    +0.102 A 
ATOM      5  N   UNL     1     -11.094  17.053  64.617  0.00  0.00    -0.211 NA
ATOM      6  C   UNL     1     -11.022  15.744  64.961  0.00  0.00    +0.246 A 
ATOM      7  N   UNL     1     -11.667  14.740  64.454  0.00  0.00    -0.106 NA
ATOM      8  C   UNL     1     -10.642  19.068  66.080  0.00  0.00    +0.021 A 
ATOM      9  N   UNL     1     -10.350  15.614  66.131  0.00  0.00    -0.211 NA
ATOM     10  C   UNL     1     -10.156  19.399  67.338  0.00  0.00    +0.008 A 
ENDROOT
BRANCH   7  11
ATOM     11  C   UNL     1     -12.383  13.804  65.271  0.00  0.00    +0.428 C 
ATOM     12  O   UNL     1     -13.616  13.962  65.509  0.00  0.00    -0.224 OA
BRANCH  11  13
ATOM     13  O   UNL     1     -11.851  12.527  65.418  0.00  0.00    -0.429 OA
ATOM     14  C   UNL     1     -11.307  12.060  66.649  0.00  0.00    +0.257 C 
ENDBRANCH  11  13
ENDBRANCH   7  11
BRANCH   1  15
ATOM     15  S   UNL     1      -7.815  19.270  68.840  0.00  0.00    -0.114 S 
BRANCH  15  16
ATOM     16  C   UNL     1      -6.345  19.411  67.769  0.00  0.00    +0.062 C 
BRANCH  16  18
ATOM     17  C   UNL     1      -6.802  20.020  65.372  0.00  0.00    +0.001 C 
ATOM     18  C   UNL     1      -6.643  20.544  66.795  0.00  0.00    +0.012 C 
ENDBRANCH  16  18
ENDBRANCH  15  16
ENDBRANCH   1  15
TORSDOF 5
ENDMDL
MODEL 6
REMARK VINA RESULT:      -5.6      3.797      5.079
REMARK  Name = 
REMARK  5 active torsions:
REMARK  status: ('A' for Active; 'I' for Inactive)
REMARK    1  A    between atoms: C_2  and  C_3
REMARK    2  A    between atoms: C_3  and  S_4
REMARK    3  A    between atoms: S_4  and  C_5
REMARK    4  A    between atoms: N_11  and  C_12
REMARK    5  A    between atoms: C_12  and  O_14
REMARK                            x       y       z     vdW  Elec       q    Type
REMARK                         _______ _______ _______ _____ _____    ______ ____
ROOT
ATOM      1  C   UNL     1     -12.395  10.286  70.878  0.00  0.00    +0.027 A 
ATOM      2  C   UNL     1     -11.677  10.373  69.700  0.00  0.00    +0.027 A 
ATOM      3  C   UNL     1     -11.659  11.564  68.994  0.00  0.00    +0.102 A 
ATOM      4  C   UNL     1     -11.888  12.713  69.741  0.00  0.00    +0.102 A 
ATOM      5  N   UNL     1     -11.575  13.722  68.892  0.00  0.00    -0.211 NA
ATOM      6  C   UNL     1     -11.518  13.213  67.638  0.00  0.00    +0.246 A 
ATOM      7  N   UNL     1     -11.506  13.848  66.508  0.00  0.00    -0.106 NA
ATOM      8  C   UNL     1     -12.515  12.628  70.971  0.00  0.00    +0.021 A 
ATOM      9  N   UNL     1     -11.741  11.875  67.677  0.00  0.00    -0.211 NA
ATOM     10  C   UNL     1     -13.012  11.410  71.416  0.00  0.00    +0.008 A 
ENDROOT
BRANCH   7  11
ATOM     11  C   UNL     1     -12.406  13.520  65.441  0.00  0.00    +0.428 C 
ATOM     12  O   UNL     1     -13.582  13.989  65.417  0.00  0.00    -0.224 OA
BRANCH  11  13
ATOM     13  O   UNL     1     -11.860  13.075  64.241  0.00  0.00    -0.429 OA
ATOM     14  C   UNL     1     -12.457  12.041  63.464  0.00  0.00    +0.257 C 
ENDBRANCH  11  13
ENDBRANCH   7  11
BRANCH   1  15
ATOM     15  S   UNL     1     -12.196   8.782  71.843  0.00  0.00    -0.114 S 
BRANCH  15  16
ATOM     16  C   UNL     1     -10.936   7.791  70.972  0.00  0.00    +0.062 C 
BRANCH  16  18
ATOM     17  C   UNL     1     -11.143   6.157  69.071  0.00  0.00    +0.001 C 
ATOM     18  C   UNL     1     -11.661   6.559  70.447  0.00  0.00    +0.012 C 
ENDBRANCH  16  18
ENDBRANCH  15  16
ENDBRANCH   1  15
TORSDOF 5
ENDMDL
MODEL 7
REMARK VINA RESULT:      -5.5      4.074      7.086
REMARK  Name = 
REMARK  5 active torsions:
REMARK  status: ('A' for Active; 'I' for Inactive)
REMARK    1  A    between atoms: C_2  and  C_3
REMARK    2  A    between atoms: C_3  and  S_4
REMARK    3  A    between atoms: S_4  and  C_5
REMARK    4  A    between atoms: N_11  and  C_12
REMARK    5  A    between atoms: C_12  and  O_14
REMARK                            x       y       z     vdW  Elec       q    Type
REMARK                         _______ _______ _______ _____ _____    ______ ____
ROOT
ATOM      1  C   UNL     1     -10.071  13.468  67.598  0.00  0.00    +0.027 A 
ATOM      2  C   UNL     1     -11.399  13.468  67.979  0.00  0.00    +0.027 A 
ATOM      3  C   UNL     1     -11.825  14.322  68.982  0.00  0.00    +0.102 A 
ATOM      4  C   UNL     1     -11.062  15.469  69.164  0.00  0.00    +0.102 A 
ATOM      5  N   UNL     1     -11.811  16.229  70.000  0.00  0.00    -0.211 NA
ATOM      6  C   UNL     1     -12.762  15.437  70.549  0.00  0.00    +0.246 A 
ATOM      7  N   UNL     1     -13.518  15.674  71.575  0.00  0.00    -0.106 NA
ATOM      8  C   UNL     1      -9.762  15.520  68.695  0.00  0.00    +0.021 A 
ATOM      9  N   UNL     1     -12.666  14.184  70.036  0.00  0.00    -0.211 NA
ATOM     10  C   UNL     1      -9.179  14.390  68.135  0.00  0.00    +0.008 A 
ENDROOT
BRANCH   7  11
ATOM     11  C   UNL     1     -13.645  14.744  72.659  0.00  0.00    +0.428 C 
ATOM     12  O   UNL     1     -14.362  13.707  72.541  0.00  0.00    -0.224 OA
BRANCH  11  13
ATOM     13  O   UNL     1     -12.656  14.743  73.636  0.00  0.00    -0.429 OA
ATOM     14  C   UNL     1     -12.435  15.850  74.505  0.00  0.00    +0.257 C 
ENDBRANCH  11  13
ENDBRANCH   7  11
BRANCH   1  15
ATOM     15  S   UNL     1      -9.639  12.493  66.150  0.00  0.00    -0.114 S 
BRANCH  15  16
ATOM     16  C   UNL     1     -10.285  13.414  64.714  0.00  0.00    +0.062 C 
BRANCH  16  18
ATOM     17  C   UNL     1     -12.646  12.561  64.551  0.00  0.00    +0.001 C 
ATOM     18  C   UNL     1     -11.230  12.460  63.995  0.00  0.00    +0.012 C 
ENDBRANCH  16  18
ENDBRANCH  15  16
ENDBRANCH   1  15
TORSDOF 5
ENDMDL
MODEL 8
REMARK VINA RESULT:      -5.4      3.750      4.697
REMARK  Name = 
REMARK  5 active torsions:
REMARK  status: ('A' for Active; 'I' for Inactive)
REMARK    1  A    between atoms: C_2  and  C_3
REMARK    2  A    between atoms: C_3  and  S_4
REMARK    3  A    between atoms: S_4  and  C_5
REMARK    4  A    between atoms: N_11  and  C_12
REMARK    5  A    between atoms: C_12  and  O_14
REMARK                            x       y       z     vdW  Elec       q    Type
REMARK                         _______ _______ _______ _____ _____    ______ ____
ROOT
ATOM      1  C   UNL     1      -8.848  16.678  67.044  0.00  0.00    +0.027 A 
ATOM      2  C   UNL     1      -9.834  16.571  66.082  0.00  0.00    +0.027 A 
ATOM      3  C   UNL     1     -10.739  15.525  66.141  0.00  0.00    +0.102 A 
ATOM      4  C   UNL     1     -10.953  14.981  67.401  0.00  0.00    +0.102 A 
ATOM      5  N   UNL     1     -12.031  14.177  67.231  0.00  0.00    -0.211 NA
ATOM      6  C   UNL     1     -12.207  13.987  65.901  0.00  0.00    +0.246 A 
ATOM      7  N   UNL     1     -12.940  13.102  65.301  0.00  0.00    -0.106 NA
ATOM      8  C   UNL     1     -10.021  15.168  68.406  0.00  0.00    +0.021 A 
ATOM      9  N   UNL     1     -11.283  14.702  65.211  0.00  0.00    -0.211 NA
ATOM     10  C   UNL     1      -8.820  15.809  68.130  0.00  0.00    +0.008 A 
ENDROOT
BRANCH   7  11
ATOM     11  C   UNL     1     -12.422  12.263  64.260  0.00  0.00    +0.428 C 
ATOM     12  O   UNL     1     -12.754  12.451  63.052  0.00  0.00    -0.224 OA
BRANCH  11  13
ATOM     13  O   UNL     1     -11.246  11.565  64.510  0.00  0.00    -0.429 OA
ATOM     14  C   UNL     1     -10.341  11.191  63.475  0.00  0.00    +0.257 C 
ENDBRANCH  11  13
ENDBRANCH   7  11
BRANCH   1  15
ATOM     15  S   UNL     1      -7.850  18.173  67.024  0.00  0.00    -0.114 S 
BRANCH  15  16
ATOM     16  C   UNL     1      -8.222  19.045  68.582  0.00  0.00    +0.062 C 
BRANCH  16  18
ATOM     17  C   UNL     1      -9.961  20.282  67.251  0.00  0.00    +0.001 C 
ATOM     18  C   UNL     1      -9.689  19.448  68.497  0.00  0.00    +0.012 C 
ENDBRANCH  16  18
ENDBRANCH  15  16
ENDBRANCH   1  15
TORSDOF 5
ENDMDL
MODEL 9
REMARK VINA RESULT:      -5.4      4.597      6.618
REMARK  Name = 
REMARK  5 active torsions:
REMARK  status: ('A' for Active; 'I' for Inactive)
REMARK    1  A    between atoms: C_2  and  C_3
REMARK    2  A    between atoms: C_3  and  S_4
REMARK    3  A    between atoms: S_4  and  C_5
REMARK    4  A    between atoms: N_11  and  C_12
REMARK    5  A    between atoms: C_12  and  O_14
REMARK                            x       y       z     vdW  Elec       q    Type
REMARK                         _______ _______ _______ _____ _____    ______ ____
ROOT
ATOM      1  C   UNL     1     -11.770  13.527  64.721  0.00  0.00    +0.027 A 
ATOM      2  C   UNL     1     -10.615  14.281  64.642  0.00  0.00    +0.027 A 
ATOM      3  C   UNL     1     -10.340  15.220  65.621  0.00  0.00    +0.102 A 
ATOM      4  C   UNL     1     -10.920  14.987  66.862  0.00  0.00    +0.102 A 
ATOM      5  N   UNL     1     -10.310  15.880  67.680  0.00  0.00    -0.211 NA
ATOM      6  C   UNL     1      -9.690  16.802  66.906  0.00  0.00    +0.246 A 
ATOM      7  N   UNL     1      -9.212  17.957  67.251  0.00  0.00    -0.106 NA
ATOM      8  C   UNL     1     -12.016  14.151  66.970  0.00  0.00    +0.021 A 
ATOM      9  N   UNL     1      -9.852  16.485  65.597  0.00  0.00    -0.211 NA
ATOM     10  C   UNL     1     -12.606  13.626  65.828  0.00  0.00    +0.008 A 
ENDROOT
BRANCH   7  11
ATOM     11  C   UNL     1      -9.542  19.160  66.544  0.00  0.00    +0.428 C 
ATOM     12  O   UNL     1     -10.668  19.716  66.701  0.00  0.00    -0.224 OA
BRANCH  11  13
ATOM     13  O   UNL     1      -8.496  19.936  66.056  0.00  0.00    -0.429 OA
ATOM     14  C   UNL     1      -7.209  19.396  65.769  0.00  0.00    +0.257 C 
ENDBRANCH  11  13
ENDBRANCH   7  11
BRANCH   1  15
ATOM     15  S   UNL     1     -11.950  12.186  63.537  0.00  0.00    -0.114 S 
BRANCH  15  16
ATOM     16  C   UNL     1     -10.317  11.379  63.442  0.00  0.00    +0.062 C 
BRANCH  16  18
ATOM     17  C   UNL     1      -9.217  11.022  65.676  0.00  0.00    +0.001 C 
ATOM     18  C   UNL     1     -10.223  10.479  64.667  0.00  0.00    +0.012 C 
ENDBRANCH  16  18
ENDBRANCH  15  16
ENDBRANCH   1  15
TORSDOF 5
ENDMDL
