MODEL 1
REMARK VINA RESULT:      -6.9      0.000      0.000
REMARK  Name = 
REMARK  5 active torsions:
REMARK  status: ('A' for Active; 'I' for Inactive)
REMARK    1  A    between atoms: C_2  and  C_3
REMARK    2  A    between atoms: C_3  and  O_4
REMARK    3  A    between atoms: O_4  and  C_5
REMARK    4  A    between atoms: C_5  and  C_6
REMARK    5  A    between atoms: C_6  and  N_7
REMARK                            x       y       z     vdW  Elec       q    Type
REMARK                         _______ _______ _______ _____ _____    ______ ____
ROOT
ATOM      1  N   UNL     1     -10.249  13.538  65.753  0.00  0.00    -0.264 NA
ATOM      2  C   UNL     1     -11.047  12.337  65.761  0.00  0.00    +0.124 C 
ATOM      3  C   UNL     1     -11.619  12.010  67.113  0.00  0.00    +0.220 C 
ATOM      4  N   UNL     1     -10.579  11.953  68.116  0.00  0.00    -0.188 N 
ATOM      5  C   UNL     1     -10.841  11.199  69.306  0.00  0.00    +0.324 C 
ATOM      6  C   UNL     1     -11.851  11.830  70.166  0.00  0.00    +0.088 A 
ATOM      7  C   UNL     1     -12.814  11.202  70.948  0.00  0.00    +0.037 A 
ATOM      8  C   UNL     1     -13.444  11.967  71.922  0.00  0.00    +0.007 A 
ATOM      9  C   UNL     1     -13.040  13.281  72.105  0.00  0.00    +0.001 A 
ATOM     10  C   UNL     1     -12.457  13.968  71.049  0.00  0.00    +0.000 A 
ATOM     11  S   UNL     1     -12.938   9.457  71.358  0.00  0.00    -0.083 S 
ATOM     12  C   UNL     1     -11.262   8.811  71.320  0.00  0.00    +0.072 A 
ATOM     13  C   UNL     1     -10.148   9.227  70.605  0.00  0.00    +0.199 A 
ATOM     14  C   UNL     1      -8.899   8.732  70.910  0.00  0.00    +0.047 A 
ATOM     15  C   UNL     1      -8.672   8.102  72.126  0.00  0.00    +0.004 A 
ATOM     16  C   UNL     1      -9.709   8.106  73.049  0.00  0.00    +0.001 A 
ATOM     17  C   UNL     1     -10.990   8.159  72.517  0.00  0.00    +0.010 A 
ATOM     18  C   UNL     1     -11.786  13.212  70.095  0.00  0.00    +0.008 A 
ATOM     19  N   UNL     1     -10.184  10.118  69.506  0.00  0.00    -0.040 NA
ATOM     20  C   UNL     1      -9.412  12.775  67.938  0.00  0.00    +0.220 C 
ATOM     21  C   UNL     1      -9.824  13.954  67.065  0.00  0.00    +0.124 C 
ENDROOT
BRANCH   1  22
ATOM     22  C   UNL     1     -11.039  14.621  65.185  0.00  0.00    +0.105 C 
BRANCH  22  23
ATOM     23  C   UNL     1     -10.901  15.863  66.023  0.00  0.00    +0.160 C 
BRANCH  23  24
ATOM     24  O   UNL     1     -10.292  16.907  65.348  0.00  0.00    -0.350 OA
BRANCH  24  25
ATOM     25  C   UNL     1      -9.646  17.803  66.204  0.00  0.00    +0.178 C 
BRANCH  25  27
ATOM     26  O   UNL     1     -11.105  19.227  67.460  0.00  0.00    -0.218 OA
ATOM     27  C   UNL     1     -10.453  19.088  66.235  0.00  0.00    +0.214 C 
ENDBRANCH  25  27
ENDBRANCH  24  25
ENDBRANCH  23  24
ENDBRANCH  22  23
ENDBRANCH   1  22
TORSDOF 5
ENDMDL
MODEL 2
REMARK VINA RESULT:      -6.9      1.893      3.549
REMARK  Name = 
REMARK  5 active torsions:
REMARK  status: ('A' for Active; 'I' for Inactive)
REMARK    1  A    between atoms: C_2  and  C_3
REMARK    2  A    between atoms: C_3  and  O_4
REMARK    3  A    between atoms: O_4  and  C_5
REMARK    4  A    between atoms: C_5  and  C_6
REMARK    5  A    between atoms: C_6  and  N_7
REMARK                            x       y       z     vdW  Elec       q    Type
REMARK                         _______ _______ _______ _____ _____    ______ ____
ROOT
ATOM      1  N   UNL     1     -10.651  15.260  66.861  0.00  0.00    -0.264 NA
ATOM      2  C   UNL     1      -9.804  14.942  67.984  0.00  0.00    +0.124 C 
ATOM      3  C   UNL     1      -9.621  13.464  68.194  0.00  0.00    +0.220 C 
ATOM      4  N   UNL     1     -10.898  12.793  68.296  0.00  0.00    -0.188 N 
ATOM      5  C   UNL     1     -10.934  11.527  68.966  0.00  0.00    +0.324 C 
ATOM      6  C   UNL     1     -10.261  10.465  68.208  0.00  0.00    +0.088 A 
ATOM      7  C   UNL     1      -9.520   9.401  68.709  0.00  0.00    +0.037 A 
ATOM      8  C   UNL     1      -9.252   8.346  67.846  0.00  0.00    +0.007 A 
ATOM      9  C   UNL     1      -9.785   8.377  66.566  0.00  0.00    +0.001 A 
ATOM     10  C   UNL     1     -10.090   9.600  65.985  0.00  0.00    +0.000 A 
ATOM     11  S   UNL     1      -9.392   8.850  70.414  0.00  0.00    -0.083 S 
ATOM     12  C   UNL     1     -10.936   9.312  71.209  0.00  0.00    +0.072 A 
ATOM     13  C   UNL     1     -11.825  10.339  70.929  0.00  0.00    +0.199 A 
ATOM     14  C   UNL     1     -13.070  10.364  71.519  0.00  0.00    +0.047 A 
ATOM     15  C   UNL     1     -13.590   9.219  72.109  0.00  0.00    +0.004 A 
ATOM     16  C   UNL     1     -12.864   8.045  71.968  0.00  0.00    +0.001 A 
ATOM     17  C   UNL     1     -11.491   8.197  71.825  0.00  0.00    +0.010 A 
ATOM     18  C   UNL     1     -10.402  10.648  66.842  0.00  0.00    +0.008 A 
ATOM     19  N   UNL     1     -11.540  11.444  70.092  0.00  0.00    -0.040 NA
ATOM     20  C   UNL     1     -12.022  13.350  67.592  0.00  0.00    +0.220 C 
ATOM     21  C   UNL     1     -11.463  14.153  66.424  0.00  0.00    +0.124 C 
ENDROOT
BRANCH   1  22
ATOM     22  C   UNL     1      -9.812  15.657  65.740  0.00  0.00    +0.105 C 
BRANCH  22  23
ATOM     23  C   UNL     1      -8.641  16.467  66.226  0.00  0.00    +0.160 C 
BRANCH  23  24
ATOM     24  O   UNL     1      -8.603  17.742  65.687  0.00  0.00    -0.350 OA
BRANCH  24  25
ATOM     25  C   UNL     1      -8.775  18.741  66.649  0.00  0.00    +0.178 C 
BRANCH  25  27
ATOM     26  O   UNL     1     -10.993  18.801  67.549  0.00  0.00    -0.218 OA
ATOM     27  C   UNL     1     -10.187  19.282  66.518  0.00  0.00    +0.214 C 
ENDBRANCH  25  27
ENDBRANCH  24  25
ENDBRANCH  23  24
ENDBRANCH  22  23
ENDBRANCH   1  22
TORSDOF 5
ENDMDL
MODEL 3
REMARK VINA RESULT:      -6.7      1.818      2.489
REMARK  Name = 
REMARK  5 active torsions:
REMARK  status: ('A' for Active; 'I' for Inactive)
REMARK    1  A    between atoms: C_2  and  C_3
REMARK    2  A    between atoms: C_3  and  O_4
REMARK    3  A    between atoms: O_4  and  C_5
REMARK    4  A    between atoms: C_5  and  C_6
REMARK    5  A    between atoms: C_6  and  N_7
REMARK                            x       y       z     vdW  Elec       q    Type
REMARK                         _______ _______ _______ _____ _____    ______ ____
ROOT
ATOM      1  N   UNL     1      -9.854  11.582  65.977  0.00  0.00    -0.264 NA
ATOM      2  C   UNL     1     -10.135  10.177  66.144  0.00  0.00    +0.124 C 
ATOM      3  C   UNL     1     -10.736   9.843  67.481  0.00  0.00    +0.220 C 
ATOM      4  N   UNL     1      -9.912  10.343  68.559  0.00  0.00    -0.188 N 
ATOM      5  C   UNL     1     -10.045   9.722  69.843  0.00  0.00    +0.324 C 
ATOM      6  C   UNL     1     -11.333  10.016  70.485  0.00  0.00    +0.088 A 
ATOM      7  C   UNL     1     -12.094   9.175  71.288  0.00  0.00    +0.037 A 
ATOM      8  C   UNL     1     -13.102   9.757  72.047  0.00  0.00    +0.007 A 
ATOM      9  C   UNL     1     -13.253  11.135  72.015  0.00  0.00    +0.001 A 
ATOM     10  C   UNL     1     -12.821  11.841  70.900  0.00  0.00    +0.000 A 
ATOM     11  S   UNL     1     -11.614   7.600  72.005  0.00  0.00    -0.083 S 
ATOM     12  C   UNL     1      -9.832   7.670  72.226  0.00  0.00    +0.072 A 
ATOM     13  C   UNL     1      -8.863   8.388  71.540  0.00  0.00    +0.199 A 
ATOM     14  C   UNL     1      -7.580   8.474  72.034  0.00  0.00    +0.047 A 
ATOM     15  C   UNL     1      -7.315   8.162  73.361  0.00  0.00    +0.004 A 
ATOM     16  C   UNL     1      -8.402   7.885  74.178  0.00  0.00    +0.001 A 
ATOM     17  C   UNL     1      -9.516   7.353  73.542  0.00  0.00    +0.010 A 
ATOM     18  C   UNL     1     -11.782  11.286  70.163  0.00  0.00    +0.008 A 
ATOM     19  N   UNL     1      -9.068   9.028  70.295  0.00  0.00    -0.040 NA
ATOM     20  C   UNL     1      -9.126  11.526  68.327  0.00  0.00    +0.220 C 
ATOM     21  C   UNL     1      -9.816  12.311  67.219  0.00  0.00    +0.124 C 
ENDROOT
BRANCH   1  22
ATOM     22  C   UNL     1     -10.899  12.173  65.154  0.00  0.00    +0.105 C 
BRANCH  22  23
ATOM     23  C   UNL     1     -11.952  12.807  66.023  0.00  0.00    +0.160 C 
BRANCH  23  24
ATOM     24  O   UNL     1     -12.613  13.851  65.398  0.00  0.00    -0.350 OA
BRANCH  24  25
ATOM     25  C   UNL     1     -11.905  14.364  64.307  0.00  0.00    +0.178 C 
BRANCH  25  27
ATOM     26  O   UNL     1     -11.576  16.710  63.964  0.00  0.00    -0.218 OA
ATOM     27  C   UNL     1     -11.197  15.628  64.758  0.00  0.00    +0.214 C 
ENDBRANCH  25  27
ENDBRANCH  24  25
ENDBRANCH  23  24
ENDBRANCH  22  23
ENDBRANCH   1  22
TORSDOF 5
ENDMDL
MODEL 4
REMARK VINA RESULT:      -6.7      3.761      5.827
REMARK  Name = 
REMARK  5 active torsions:
REMARK  status: ('A' for Active; 'I' for Inactive)
REMARK    1  A    between atoms: C_2  and  C_3
REMARK    2  A    between atoms: C_3  and  O_4
REMARK    3  A    between atoms: O_4  and  C_5
REMARK    4  A    between atoms: C_5  and  C_6
REMARK    5  A    between atoms: C_6  and  N_7
REMARK                            x       y       z     vdW  Elec       q    Type
REMARK                         _______ _______ _______ _____ _____    ______ ____
ROOT
ATOM      1  N   UNL     1      -7.989  18.711  67.539  0.00  0.00    -0.264 NA
ATOM      2  C   UNL     1      -7.563  17.638  68.403  0.00  0.00    +0.124 C 
ATOM      3  C   UNL     1      -8.475  16.443  68.365  0.00  0.00    +0.220 C 
ATOM      4  N   UNL     1      -9.842  16.826  68.642  0.00  0.00    -0.188 N 
ATOM      5  C   UNL     1     -10.733  15.813  69.124  0.00  0.00    +0.324 C 
ATOM      6  C   UNL     1     -11.057  14.809  68.102  0.00  0.00    +0.088 A 
ATOM      7  C   UNL     1     -11.269  13.448  68.284  0.00  0.00    +0.037 A 
ATOM      8  C   UNL     1     -11.877  12.751  67.247  0.00  0.00    +0.007 A 
ATOM      9  C   UNL     1     -12.296  13.452  66.127  0.00  0.00    +0.001 A 
ATOM     10  C   UNL     1     -11.669  14.645  65.796  0.00  0.00    +0.000 A 
ATOM     11  S   UNL     1     -11.483  12.560  69.832  0.00  0.00    -0.083 S 
ATOM     12  C   UNL     1     -12.193  13.735  70.991  0.00  0.00    +0.072 A 
ATOM     13  C   UNL     1     -12.100  15.117  71.049  0.00  0.00    +0.199 A 
ATOM     14  C   UNL     1     -12.924  15.837  71.886  0.00  0.00    +0.047 A 
ATOM     15  C   UNL     1     -14.072  15.258  72.410  0.00  0.00    +0.004 A 
ATOM     16  C   UNL     1     -14.406  13.988  71.960  0.00  0.00    +0.001 A 
ATOM     17  C   UNL     1     -13.343  13.193  71.552  0.00  0.00    +0.010 A 
ATOM     18  C   UNL     1     -11.097  15.369  66.835  0.00  0.00    +0.008 A 
ATOM     19  N   UNL     1     -11.158  15.891  70.330  0.00  0.00    -0.040 NA
ATOM     20  C   UNL     1     -10.269  18.149  68.274  0.00  0.00    +0.220 C 
ATOM     21  C   UNL     1      -9.368  18.609  67.135  0.00  0.00    +0.124 C 
ENDROOT
BRANCH   1  22
ATOM     22  C   UNL     1      -7.177  18.690  66.331  0.00  0.00    +0.105 C 
BRANCH  22  23
ATOM     23  C   UNL     1      -6.370  19.956  66.221  0.00  0.00    +0.160 C 
BRANCH  23  24
ATOM     24  O   UNL     1      -6.553  20.808  67.297  0.00  0.00    -0.350 OA
BRANCH  24  25
ATOM     25  C   UNL     1      -5.387  20.996  68.043  0.00  0.00    +0.178 C 
BRANCH  25  27
ATOM     26  O   UNL     1      -4.989  21.451  70.360  0.00  0.00    -0.218 OA
ATOM     27  C   UNL     1      -5.685  20.619  69.483  0.00  0.00    +0.214 C 
ENDBRANCH  25  27
ENDBRANCH  24  25
ENDBRANCH  23  24
ENDBRANCH  22  23
ENDBRANCH   1  22
TORSDOF 5
ENDMDL
MODEL 5
REMARK VINA RESULT:      -6.4      3.196      5.137
REMARK  Name = 
REMARK  5 active torsions:
REMARK  status: ('A' for Active; 'I' for Inactive)
REMARK    1  A    between atoms: C_2  and  C_3
REMARK    2  A    between atoms: C_3  and  O_4
REMARK    3  A    between atoms: O_4  and  C_5
REMARK    4  A    between atoms: C_5  and  C_6
REMARK    5  A    between atoms: C_6  and  N_7
REMARK                            x       y       z     vdW  Elec       q    Type
REMARK                         _______ _______ _______ _____ _____    ______ ____
ROOT
ATOM      1  N   UNL     1     -10.094  16.872  68.639  0.00  0.00    -0.264 NA
ATOM      2  C   UNL     1      -8.892  16.201  68.210  0.00  0.00    +0.124 C 
ATOM      3  C   UNL     1      -9.141  15.124  67.191  0.00  0.00    +0.220 C 
ATOM      4  N   UNL     1     -10.126  14.178  67.667  0.00  0.00    -0.188 N 
ATOM      5  C   UNL     1     -10.129  12.870  67.084  0.00  0.00    +0.324 C 
ATOM      6  C   UNL     1     -10.581  12.872  65.686  0.00  0.00    +0.088 A 
ATOM      7  C   UNL     1     -10.128  12.070  64.645  0.00  0.00    +0.037 A 
ATOM      8  C   UNL     1     -10.910  12.011  63.498  0.00  0.00    +0.007 A 
ATOM      9  C   UNL     1     -12.116  12.695  63.475  0.00  0.00    +0.001 A 
ATOM     10  C   UNL     1     -12.286  13.804  64.293  0.00  0.00    +0.000 A 
ATOM     11  S   UNL     1      -9.073  10.619  64.747  0.00  0.00    -0.083 S 
ATOM     12  C   UNL     1      -9.365   9.896  66.366  0.00  0.00    +0.072 A 
ATOM     13  C   UNL     1      -9.775  10.480  67.556  0.00  0.00    +0.199 A 
ATOM     14  C   UNL     1     -10.165   9.695  68.619  0.00  0.00    +0.047 A 
ATOM     15  C   UNL     1     -10.493   8.360  68.423  0.00  0.00    +0.004 A 
ATOM     16  C   UNL     1     -10.527   7.899  67.114  0.00  0.00    +0.001 A 
ATOM     17  C   UNL     1      -9.688   8.553  66.222  0.00  0.00    +0.010 A 
ATOM     18  C   UNL     1     -11.540  13.846  65.465  0.00  0.00    +0.008 A 
ATOM     19  N   UNL     1      -9.781  11.873  67.809  0.00  0.00    -0.040 NA
ATOM     20  C   UNL     1     -11.138  14.644  68.577  0.00  0.00    +0.220 C 
ATOM     21  C   UNL     1     -11.298  16.141  68.338  0.00  0.00    +0.124 C 
ENDROOT
BRANCH   1  22
ATOM     22  C   UNL     1     -10.181  18.157  67.960  0.00  0.00    +0.105 C 
BRANCH  22  23
ATOM     23  C   UNL     1      -9.324  19.177  68.659  0.00  0.00    +0.160 C 
BRANCH  23  24
ATOM     24  O   UNL     1      -8.313  19.676  67.856  0.00  0.00    -0.350 OA
BRANCH  24  25
ATOM     25  C   UNL     1      -7.039  19.427  68.372  0.00  0.00    +0.178 C 
BRANCH  25  27
ATOM     26  O   UNL     1      -6.694  21.506  67.234  0.00  0.00    -0.218 OA
ATOM     27  C   UNL     1      -6.238  20.714  68.287  0.00  0.00    +0.214 C 
ENDBRANCH  25  27
ENDBRANCH  24  25
ENDBRANCH  23  24
ENDBRANCH  22  23
ENDBRANCH   1  22
TORSDOF 5
ENDMDL
MODEL 6
REMARK VINA RESULT:      -6.4      4.445      7.179
REMARK  Name = 
REMARK  5 active torsions:
REMARK  status: ('A' for Active; 'I' for Inactive)
REMARK    1  A    between atoms: C_2  and  C_3
REMARK    2  A    between atoms: C_3  and  O_4
REMARK    3  A    between atoms: O_4  and  C_5
REMARK    4  A    between atoms: C_5  and  C_6
REMARK    5  A    between atoms: C_6  and  N_7
REMARK                            x       y       z     vdW  Elec       q    Type
REMARK                         _______ _______ _______ _____ _____    ______ ____
ROOT
ATOM      1  N   UNL     1      -6.777  19.021  67.882  0.00  0.00    -0.264 NA
ATOM      2  C   UNL     1      -7.941  18.647  68.647  0.00  0.00    +0.124 C 
ATOM      3  C   UNL     1      -8.226  17.171  68.617  0.00  0.00    +0.220 C 
ATOM      4  N   UNL     1      -8.316  16.688  67.257  0.00  0.00    -0.188 N 
ATOM      5  C   UNL     1      -9.043  15.474  67.028  0.00  0.00    +0.324 C 
ATOM      6  C   UNL     1      -8.357  14.292  67.567  0.00  0.00    +0.088 A 
ATOM      7  C   UNL     1      -8.932  13.164  68.139  0.00  0.00    +0.037 A 
ATOM      8  C   UNL     1      -8.128  12.039  68.280  0.00  0.00    +0.007 A 
ATOM      9  C   UNL     1      -6.831  12.079  67.790  0.00  0.00    +0.001 A 
ATOM     10  C   UNL     1      -6.184  13.301  67.675  0.00  0.00    +0.000 A 
ATOM     11  S   UNL     1     -10.664  12.687  68.144  0.00  0.00    -0.083 S 
ATOM     12  C   UNL     1     -11.385  13.397  66.659  0.00  0.00    +0.072 A 
ATOM     13  C   UNL     1     -11.028  14.521  65.929  0.00  0.00    +0.199 A 
ATOM     14  C   UNL     1     -11.575  14.747  64.685  0.00  0.00    +0.047 A 
ATOM     15  C   UNL     1     -12.200  13.716  63.995  0.00  0.00    +0.004 A 
ATOM     16  C   UNL     1     -12.138  12.447  64.554  0.00  0.00    +0.001 A 
ATOM     17  C   UNL     1     -12.033  12.402  65.938  0.00  0.00    +0.010 A 
ATOM     18  C   UNL     1      -6.981  14.424  67.488  0.00  0.00    +0.008 A 
ATOM     19  N   UNL     1     -10.150  15.532  66.387  0.00  0.00    -0.040 NA
ATOM     20  C   UNL     1      -7.550  17.358  66.241  0.00  0.00    +0.220 C 
ATOM     21  C   UNL     1      -6.365  18.016  66.937  0.00  0.00    +0.124 C 
ENDROOT
BRANCH   1  22
ATOM     22  C   UNL     1      -5.667  19.242  68.798  0.00  0.00    +0.105 C 
BRANCH  22  23
ATOM     23  C   UNL     1      -5.724  20.637  69.361  0.00  0.00    +0.160 C 
BRANCH  23  24
ATOM     24  O   UNL     1      -6.066  20.665  70.702  0.00  0.00    -0.350 OA
BRANCH  24  25
ATOM     25  C   UNL     1      -5.105  20.063  71.518  0.00  0.00    +0.178 C 
BRANCH  25  27
ATOM     26  O   UNL     1      -4.434  22.216  72.322  0.00  0.00    -0.218 OA
ATOM     27  C   UNL     1      -3.969  21.051  71.713  0.00  0.00    +0.214 C 
ENDBRANCH  25  27
ENDBRANCH  24  25
ENDBRANCH  23  24
ENDBRANCH  22  23
ENDBRANCH   1  22
TORSDOF 5
ENDMDL
MODEL 7
REMARK VINA RESULT:      -6.3      4.417      6.227
REMARK  Name = 
REMARK  5 active torsions:
REMARK  status: ('A' for Active; 'I' for Inactive)
REMARK    1  A    between atoms: C_2  and  C_3
REMARK    2  A    between atoms: C_3  and  O_4
REMARK    3  A    between atoms: O_4  and  C_5
REMARK    4  A    between atoms: C_5  and  C_6
REMARK    5  A    between atoms: C_6  and  N_7
REMARK                            x       y       z     vdW  Elec       q    Type
REMARK                         _______ _______ _______ _____ _____    ______ ____
ROOT
ATOM      1  N   UNL     1     -11.288  11.432  64.378  0.00  0.00    -0.264 NA
ATOM      2  C   UNL     1     -11.872  12.747  64.469  0.00  0.00    +0.124 C 
ATOM      3  C   UNL     1     -11.227  13.615  65.514  0.00  0.00    +0.220 C 
ATOM      4  N   UNL     1     -11.218  12.957  66.802  0.00  0.00    -0.188 N 
ATOM      5  C   UNL     1     -11.109  13.779  67.970  0.00  0.00    +0.324 C 
ATOM      6  C   UNL     1      -9.784  14.399  68.105  0.00  0.00    +0.088 A 
ATOM      7  C   UNL     1      -9.483  15.660  68.607  0.00  0.00    +0.037 A 
ATOM      8  C   UNL     1      -8.160  15.914  68.944  0.00  0.00    +0.007 A 
ATOM      9  C   UNL     1      -7.232  14.891  68.826  0.00  0.00    +0.001 A 
ATOM     10  C   UNL     1      -7.461  13.864  67.920  0.00  0.00    +0.000 A 
ATOM     11  S   UNL     1     -10.571  16.787  69.487  0.00  0.00    -0.083 S 
ATOM     12  C   UNL     1     -11.787  15.763  70.324  0.00  0.00    +0.072 A 
ATOM     13  C   UNL     1     -12.281  14.505  70.009  0.00  0.00    +0.199 A 
ATOM     14  C   UNL     1     -13.035  13.803  70.923  0.00  0.00    +0.047 A 
ATOM     15  C   UNL     1     -13.023  14.160  72.265  0.00  0.00    +0.004 A 
ATOM     16  C   UNL     1     -12.138  15.158  72.650  0.00  0.00    +0.001 A 
ATOM     17  C   UNL     1     -11.819  16.092  71.673  0.00  0.00    +0.010 A 
ATOM     18  C   UNL     1      -8.785  13.575  67.613  0.00  0.00    +0.008 A 
ATOM     19  N   UNL     1     -12.116  13.867  68.756  0.00  0.00    -0.040 NA
ATOM     20  C   UNL     1     -11.162  11.520  66.834  0.00  0.00    +0.220 C 
ATOM     21  C   UNL     1     -10.509  11.068  65.534  0.00  0.00    +0.124 C 
ENDROOT
BRANCH   1  22
ATOM     22  C   UNL     1     -10.402  11.392  63.223  0.00  0.00    +0.105 C 
BRANCH  22  23
ATOM     23  C   UNL     1      -9.219  10.505  63.503  0.00  0.00    +0.160 C 
BRANCH  23  24
ATOM     24  O   UNL     1      -9.005   9.562  62.512  0.00  0.00    -0.350 OA
BRANCH  24  25
ATOM     25  C   UNL     1      -8.640  10.133  61.290  0.00  0.00    +0.178 C 
BRANCH  25  27
ATOM     26  O   UNL     1      -6.982  11.855  61.146  0.00  0.00    -0.218 OA
ATOM     27  C   UNL     1      -7.166  10.490  61.360  0.00  0.00    +0.214 C 
ENDBRANCH  25  27
ENDBRANCH  24  25
ENDBRANCH  23  24
ENDBRANCH  22  23
ENDBRANCH   1  22
TORSDOF 5
ENDMDL
MODEL 8
REMARK VINA RESULT:      -6.1      5.335      9.932
REMARK  Name = 
REMARK  5 active torsions:
REMARK  status: ('A' for Active; 'I' for Inactive)
REMARK    1  A    between atoms: C_2  and  C_3
REMARK    2  A    between atoms: C_3  and  O_4
REMARK    3  A    between atoms: O_4  and  C_5
REMARK    4  A    between atoms: C_5  and  C_6
REMARK    5  A    between atoms: C_6  and  N_7
REMARK                            x       y       z     vdW  Elec       q    Type
REMARK                         _______ _______ _______ _____ _____    ______ ____
ROOT
ATOM      1  N   UNL     1     -10.498  15.911  67.113  0.00  0.00    -0.264 NA
ATOM      2  C   UNL     1      -9.248  15.320  66.702  0.00  0.00    +0.124 C 
ATOM      3  C   UNL     1      -8.052  16.178  67.011  0.00  0.00    +0.220 C 
ATOM      4  N   UNL     1      -8.210  17.505  66.459  0.00  0.00    -0.188 N 
ATOM      5  C   UNL     1      -7.024  18.275  66.224  0.00  0.00    +0.324 C 
ATOM      6  C   UNL     1      -6.369  18.702  67.467  0.00  0.00    +0.088 A 
ATOM      7  C   UNL     1      -5.007  18.828  67.710  0.00  0.00    +0.037 A 
ATOM      8  C   UNL     1      -4.622  19.551  68.833  0.00  0.00    +0.007 A 
ATOM      9  C   UNL     1      -5.601  20.155  69.606  0.00  0.00    +0.001 A 
ATOM     10  C   UNL     1      -6.887  19.633  69.608  0.00  0.00    +0.000 A 
ATOM     11  S   UNL     1      -3.663  18.779  66.519  0.00  0.00    -0.083 S 
ATOM     12  C   UNL     1      -4.347  19.363  64.963  0.00  0.00    +0.072 A 
ATOM     13  C   UNL     1      -5.645  19.320  64.474  0.00  0.00    +0.199 A 
ATOM     14  C   UNL     1      -5.991  20.043  63.353  0.00  0.00    +0.047 A 
ATOM     15  C   UNL     1      -5.180  21.078  62.907  0.00  0.00    +0.004 A 
ATOM     16  C   UNL     1      -4.093  21.421  63.699  0.00  0.00    +0.001 A 
ATOM     17  C   UNL     1      -3.561  20.397  64.471  0.00  0.00    +0.010 A 
ATOM     18  C   UNL     1      -7.293  18.947  68.469  0.00  0.00    +0.008 A 
ATOM     19  N   UNL     1      -6.683  18.524  65.015  0.00  0.00    -0.040 NA
ATOM     20  C   UNL     1      -9.540  18.036  66.323  0.00  0.00    +0.220 C 
ATOM     21  C   UNL     1     -10.410  17.328  67.354  0.00  0.00    +0.124 C 
ENDROOT
BRANCH   1  22
ATOM     22  C   UNL     1     -10.927  15.282  68.354  0.00  0.00    +0.105 C 
BRANCH  22  23
ATOM     23  C   UNL     1     -11.222  16.327  69.395  0.00  0.00    +0.160 C 
BRANCH  23  24
ATOM     24  O   UNL     1     -12.344  16.035  70.152  0.00  0.00    -0.350 OA
BRANCH  24  25
ATOM     25  C   UNL     1     -12.028  15.579  71.434  0.00  0.00    +0.178 C 
BRANCH  25  27
ATOM     26  O   UNL     1     -14.422  15.625  71.451  0.00  0.00    -0.218 OA
ATOM     27  C   UNL     1     -13.294  15.615  72.271  0.00  0.00    +0.214 C 
ENDBRANCH  25  27
ENDBRANCH  24  25
ENDBRANCH  23  24
ENDBRANCH  22  23
ENDBRANCH   1  22
TORSDOF 5
ENDMDL
MODEL 9
REMARK VINA RESULT:      -6.0      4.175      8.071
REMARK  Name = 
REMARK  5 active torsions:
REMARK  status: ('A' for Active; 'I' for Inactive)
REMARK    1  A    between atoms: C_2  and  C_3
REMARK    2  A    between atoms: C_3  and  O_4
REMARK    3  A    between atoms: O_4  and  C_5
REMARK    4  A    between atoms: C_5  and  C_6
REMARK    5  A    between atoms: C_6  and  N_7
REMARK                            x       y       z     vdW  Elec       q    Type
REMARK                         _______ _______ _______ _____ _____    ______ ____
ROOT
ATOM      1  N   UNL     1      -9.775   8.791  70.137  0.00  0.00    -0.264 NA
ATOM      2  C   UNL     1     -10.917   9.667  70.229  0.00  0.00    +0.124 C 
ATOM      3  C   UNL     1     -11.186  10.433  68.963  0.00  0.00    +0.220 C 
ATOM      4  N   UNL     1     -10.009  11.154  68.533  0.00  0.00    -0.188 N 
ATOM      5  C   UNL     1     -10.196  12.284  67.673  0.00  0.00    +0.324 C 
ATOM      6  C   UNL     1     -10.644  11.904  66.327  0.00  0.00    +0.088 A 
ATOM      7  C   UNL     1     -11.522  12.592  65.498  0.00  0.00    +0.037 A 
ATOM      8  C   UNL     1     -11.552  12.229  64.157  0.00  0.00    +0.007 A 
ATOM      9  C   UNL     1     -10.671  11.257  63.708  0.00  0.00    +0.001 A 
ATOM     10  C   UNL     1     -10.185  10.313  64.603  0.00  0.00    +0.000 A 
ATOM     11  S   UNL     1     -12.149  14.264  65.697  0.00  0.00    -0.083 S 
ATOM     12  C   UNL     1     -10.891  15.168  66.608  0.00  0.00    +0.072 A 
ATOM     13  C   UNL     1      -9.936  14.726  67.511  0.00  0.00    +0.199 A 
ATOM     14  C   UNL     1      -8.915  15.560  67.910  0.00  0.00    +0.047 A 
ATOM     15  C   UNL     1      -8.613  16.700  67.177  0.00  0.00    +0.004 A 
ATOM     16  C   UNL     1      -9.293  16.887  65.982  0.00  0.00    +0.001 A 
ATOM     17  C   UNL     1     -10.562  16.327  65.916  0.00  0.00    +0.010 A 
ATOM     18  C   UNL     1     -10.110  10.687  65.939  0.00  0.00    +0.008 A 
ATOM     19  N   UNL     1      -9.942  13.453  68.131  0.00  0.00    -0.040 NA
ATOM     20  C   UNL     1      -8.717  10.611  68.861  0.00  0.00    +0.220 C 
ATOM     21  C   UNL     1      -8.896   9.109  69.040  0.00  0.00    +0.124 C 
ENDROOT
BRANCH   1  22
ATOM     22  C   UNL     1     -10.245   7.428  69.941  0.00  0.00    +0.105 C 
BRANCH  22  23
ATOM     23  C   UNL     1     -11.126   7.010  71.087  0.00  0.00    +0.160 C 
BRANCH  23  24
ATOM     24  O   UNL     1     -12.438   6.785  70.707  0.00  0.00    -0.350 OA
BRANCH  24  25
ATOM     25  C   UNL     1     -13.340   6.921  71.766  0.00  0.00    +0.178 C 
BRANCH  25  27
ATOM     26  O   UNL     1     -15.041   8.438  72.500  0.00  0.00    -0.218 OA
ATOM     27  C   UNL     1     -14.374   7.960  71.372  0.00  0.00    +0.214 C 
ENDBRANCH  25  27
ENDBRANCH  24  25
ENDBRANCH  23  24
ENDBRANCH  22  23
ENDBRANCH   1  22
TORSDOF 5
ENDMDL
