MODEL 1
REMARK VINA RESULT:      -7.5      0.000      0.000
REMARK  Name = 
REMARK  2 active torsions:
REMARK  status: ('A' for Active; 'I' for Inactive)
REMARK    1  A    between atoms: C_22  and  C_24
REMARK    2  A    between atoms: C_24  and  C_26
REMARK                            x       y       z     vdW  Elec       q    Type
REMARK                         _______ _______ _______ _____ _____    ______ ____
ROOT
ATOM      1  C   UNL     1      -9.755  13.530  65.460  0.00  0.00    +0.003 C 
ATOM      2  C   UNL     1     -10.813  14.429  65.481  0.00  0.00    +0.035 C 
ATOM      3  C   UNL     1     -11.999  13.735  65.098  0.00  0.00    +0.180 C 
ATOM      4  O   UNL     1     -13.191  14.391  65.375  0.00  0.00    -0.218 OA
ATOM      5  C   UNL     1     -11.951  12.564  66.088  0.00  0.00    +0.038 C 
ATOM      6  C   UNL     1     -11.060  13.010  67.245  0.00  0.00    +0.003 C 
ATOM      7  C   UNL     1     -11.257  14.597  67.036  0.00  0.00    +0.006 C 
ATOM      8  C   UNL     1      -9.654  15.038  67.359  0.00  0.00    +0.033 C 
ATOM      9  C   UNL     1      -9.755  14.789  68.954  0.00  0.00    +0.007 C 
ATOM     10  C   UNL     1      -8.691  15.649  69.500  0.00  0.00    +0.022 C 
ATOM     11  C   UNL     1      -8.110  16.675  68.620  0.00  0.00    -0.039 C 
ATOM     12  C   UNL     1      -8.819  17.290  67.447  0.00  0.00    +0.046 C 
ATOM     13  C   UNL     1      -7.919  17.062  66.262  0.00  0.00    +0.007 C 
ATOM     14  C   UNL     1      -8.957  18.766  67.682  0.00  0.00    +0.014 C 
ATOM     15  C   UNL     1      -7.683  19.476  67.996  0.00  0.00    +0.070 C 
ATOM     16  C   UNL     1      -6.815  18.744  68.959  0.00  0.00    +0.173 C 
ATOM     17  O   UNL     1      -6.341  19.474  69.884  0.00  0.00    -0.291 OA
ATOM     18  C   UNL     1      -7.040  17.319  69.090  0.00  0.00    +0.029 C 
ATOM     19  C   UNL     1     -10.059  16.593  67.433  0.00  0.00    +0.164 C 
ATOM     20  F   UNL     1     -10.874  16.831  68.474  0.00  0.00    -0.237 F 
ATOM     21  C   UNL     1     -11.023  16.862  66.146  0.00  0.00    +0.182 C 
ATOM     22  O   UNL     1     -10.157  17.974  65.573  0.00  0.00    -0.220 OA
ATOM     23  C   UNL     1     -10.353  15.739  65.134  0.00  0.00    +0.038 C 
ENDROOT
BRANCH   3  24
ATOM     24  C   UNL     1     -12.083  13.081  63.778  0.00  0.00    +0.211 C 
ATOM     25  O   UNL     1     -12.728  13.688  62.920  0.00  0.00    -0.291 OA
BRANCH  24  26
ATOM     26  C   UNL     1     -11.982  11.619  63.562  0.00  0.00    +0.248 C 
ATOM     27  O   UNL     1     -10.736  11.211  63.125  0.00  0.00    -0.212 OA
ENDBRANCH  24  26
ENDBRANCH   3  24
TORSDOF 2
ENDMDL
MODEL 2
REMARK VINA RESULT:      -7.1      1.443      1.881
REMARK  Name = 
REMARK  2 active torsions:
REMARK  status: ('A' for Active; 'I' for Inactive)
REMARK    1  A    between atoms: C_22  and  C_24
REMARK    2  A    between atoms: C_24  and  C_26
REMARK                            x       y       z     vdW  Elec       q    Type
REMARK                         _______ _______ _______ _____ _____    ______ ____
ROOT
ATOM      1  C   UNL     1      -9.760  14.652  65.246  0.00  0.00    +0.003 C 
ATOM      2  C   UNL     1     -10.547  14.906  66.361  0.00  0.00    +0.035 C 
ATOM      3  C   UNL     1     -11.462  13.824  66.521  0.00  0.00    +0.180 C 
ATOM      4  O   UNL     1     -12.096  13.755  67.754  0.00  0.00    -0.218 OA
ATOM      5  C   UNL     1     -10.481  12.645  66.512  0.00  0.00    +0.038 C 
ATOM      6  C   UNL     1      -9.114  13.215  66.882  0.00  0.00    +0.003 C 
ATOM      7  C   UNL     1      -9.656  14.517  67.664  0.00  0.00    +0.006 C 
ATOM      8  C   UNL     1      -8.486  15.596  67.083  0.00  0.00    +0.033 C 
ATOM      9  C   UNL     1      -7.284  15.007  67.992  0.00  0.00    +0.007 C 
ATOM     10  C   UNL     1      -6.347  16.139  68.088  0.00  0.00    +0.022 C 
ATOM     11  C   UNL     1      -6.830  17.473  67.702  0.00  0.00    -0.039 C 
ATOM     12  C   UNL     1      -8.270  17.899  67.734  0.00  0.00    +0.046 C 
ATOM     13  C   UNL     1      -8.585  18.380  66.343  0.00  0.00    +0.007 C 
ATOM     14  C   UNL     1      -8.417  19.043  68.695  0.00  0.00    +0.014 C 
ATOM     15  C   UNL     1      -7.503  20.196  68.446  0.00  0.00    +0.070 C 
ATOM     16  C   UNL     1      -6.106  19.790  68.130  0.00  0.00    +0.173 C 
ATOM     17  O   UNL     1      -5.222  20.451  68.759  0.00  0.00    -0.291 OA
ATOM     18  C   UNL     1      -5.912  18.440  67.642  0.00  0.00    +0.029 C 
ATOM     19  C   UNL     1      -8.935  16.712  68.151  0.00  0.00    +0.164 C 
ATOM     20  F   UNL     1      -8.681  16.311  69.407  0.00  0.00    -0.237 F 
ATOM     21  C   UNL     1     -10.565  16.744  68.101  0.00  0.00    +0.182 C 
ATOM     22  O   UNL     1     -10.650  18.226  67.767  0.00  0.00    -0.220 OA
ATOM     23  C   UNL     1     -10.743  16.315  66.514  0.00  0.00    +0.038 C 
ENDROOT
BRANCH   3  24
ATOM     24  C   UNL     1     -12.420  13.497  65.447  0.00  0.00    +0.211 C 
ATOM     25  O   UNL     1     -13.505  14.080  65.502  0.00  0.00    -0.291 OA
BRANCH  24  26
ATOM     26  C   UNL     1     -12.441  12.214  64.707  0.00  0.00    +0.248 C 
ATOM     27  O   UNL     1     -13.222  12.248  63.567  0.00  0.00    -0.212 OA
ENDBRANCH  24  26
ENDBRANCH   3  24
TORSDOF 2
ENDMDL
MODEL 3
REMARK VINA RESULT:      -7.0      1.645      7.094
REMARK  Name = 
REMARK  2 active torsions:
REMARK  status: ('A' for Active; 'I' for Inactive)
REMARK    1  A    between atoms: C_22  and  C_24
REMARK    2  A    between atoms: C_24  and  C_26
REMARK                            x       y       z     vdW  Elec       q    Type
REMARK                         _______ _______ _______ _____ _____    ______ ____
ROOT
ATOM      1  C   UNL     1      -6.998  17.860  66.714  0.00  0.00    +0.003 C 
ATOM      2  C   UNL     1      -7.719  17.948  67.897  0.00  0.00    +0.035 C 
ATOM      3  C   UNL     1      -7.314  19.131  68.583  0.00  0.00    +0.180 C 
ATOM      4  O   UNL     1      -8.151  19.542  69.611  0.00  0.00    -0.218 OA
ATOM      5  C   UNL     1      -7.516  20.165  67.468  0.00  0.00    +0.038 C 
ATOM      6  C   UNL     1      -8.500  19.548  66.477  0.00  0.00    +0.003 C 
ATOM      7  C   UNL     1      -9.191  18.520  67.511  0.00  0.00    +0.006 C 
ATOM      8  C   UNL     1      -9.322  17.219  66.434  0.00  0.00    +0.033 C 
ATOM      9  C   UNL     1     -10.534  17.862  65.578  0.00  0.00    +0.007 C 
ATOM     10  C   UNL     1     -11.188  16.686  64.978  0.00  0.00    +0.022 C 
ATOM     11  C   UNL     1     -10.859  15.359  65.521  0.00  0.00    -0.039 C 
ATOM     12  C   UNL     1     -10.367  15.109  66.919  0.00  0.00    +0.046 C 
ATOM     13  C   UNL     1      -9.067  14.367  66.767  0.00  0.00    +0.007 C 
ATOM     14  C   UNL     1     -11.355  14.232  67.631  0.00  0.00    +0.014 C 
ATOM     15  C   UNL     1     -11.691  12.961  66.926  0.00  0.00    +0.070 C 
ATOM     16  C   UNL     1     -11.913  13.132  65.463  0.00  0.00    +0.173 C 
ATOM     17  O   UNL     1     -12.946  12.537  65.025  0.00  0.00    -0.291 OA
ATOM     18  C   UNL     1     -11.336  14.310  64.848  0.00  0.00    +0.029 C 
ATOM     19  C   UNL     1     -10.278  16.424  67.455  0.00  0.00    +0.164 C 
ATOM     20  F   UNL     1     -11.444  17.066  67.625  0.00  0.00    -0.237 F 
ATOM     21  C   UNL     1      -9.571  16.558  68.919  0.00  0.00    +0.182 C 
ATOM     22  O   UNL     1      -9.476  15.058  69.149  0.00  0.00    -0.220 OA
ATOM     23  C   UNL     1      -8.004  16.638  68.398  0.00  0.00    +0.038 C 
ENDROOT
BRANCH   3  24
ATOM     24  C   UNL     1      -5.904  19.311  68.983  0.00  0.00    +0.211 C 
ATOM     25  O   UNL     1      -5.448  18.450  69.738  0.00  0.00    -0.291 OA
BRANCH  24  26
ATOM     26  C   UNL     1      -5.213  20.620  69.043  0.00  0.00    +0.248 C 
ATOM     27  O   UNL     1      -5.309  21.237  70.277  0.00  0.00    -0.212 OA
ENDBRANCH  24  26
ENDBRANCH   3  24
TORSDOF 2
ENDMDL
MODEL 4
REMARK VINA RESULT:      -7.0      3.492      8.632
REMARK  Name = 
REMARK  2 active torsions:
REMARK  status: ('A' for Active; 'I' for Inactive)
REMARK    1  A    between atoms: C_22  and  C_24
REMARK    2  A    between atoms: C_24  and  C_26
REMARK                            x       y       z     vdW  Elec       q    Type
REMARK                         _______ _______ _______ _____ _____    ______ ____
ROOT
ATOM      1  C   UNL     1      -5.226  18.847  70.535  0.00  0.00    +0.003 C 
ATOM      2  C   UNL     1      -4.963  19.853  69.615  0.00  0.00    +0.035 C 
ATOM      3  C   UNL     1      -3.666  20.379  69.885  0.00  0.00    +0.180 C 
ATOM      4  O   UNL     1      -3.115  21.158  68.876  0.00  0.00    -0.218 OA
ATOM      5  C   UNL     1      -2.847  19.082  69.876  0.00  0.00    +0.038 C 
ATOM      6  C   UNL     1      -3.662  18.060  69.088  0.00  0.00    +0.003 C 
ATOM      7  C   UNL     1      -4.522  19.122  68.231  0.00  0.00    +0.006 C 
ATOM      8  C   UNL     1      -5.993  18.285  68.301  0.00  0.00    +0.033 C 
ATOM      9  C   UNL     1      -5.553  17.132  67.256  0.00  0.00    +0.007 C 
ATOM     10  C   UNL     1      -6.839  16.645  66.727  0.00  0.00    +0.022 C 
ATOM     11  C   UNL     1      -8.038  17.462  66.963  0.00  0.00    -0.039 C 
ATOM     12  C   UNL     1      -8.025  18.945  67.201  0.00  0.00    +0.046 C 
ATOM     13  C   UNL     1      -8.734  19.155  68.512  0.00  0.00    +0.007 C 
ATOM     14  C   UNL     1      -8.803  19.619  66.108  0.00  0.00    +0.014 C 
ATOM     15  C   UNL     1     -10.188  19.101  65.910  0.00  0.00    +0.070 C 
ATOM     16  C   UNL     1     -10.280  17.616  65.950  0.00  0.00    +0.173 C 
ATOM     17  O   UNL     1     -10.980  17.116  65.015  0.00  0.00    -0.291 OA
ATOM     18  C   UNL     1      -9.205  16.912  66.619  0.00  0.00    +0.029 C 
ATOM     19  C   UNL     1      -6.635  19.249  67.185  0.00  0.00    +0.164 C 
ATOM     20  F   UNL     1      -6.018  19.098  66.002  0.00  0.00    -0.237 F 
ATOM     21  C   UNL     1      -6.225  20.767  67.620  0.00  0.00    +0.182 C 
ATOM     22  O   UNL     1      -7.659  21.270  67.683  0.00  0.00    -0.220 OA
ATOM     23  C   UNL     1      -6.177  20.519  69.254  0.00  0.00    +0.038 C 
ENDROOT
BRANCH   3  24
ATOM     24  C   UNL     1      -3.367  20.979  71.199  0.00  0.00    +0.211 C 
ATOM     25  O   UNL     1      -4.020  21.983  71.491  0.00  0.00    -0.291 OA
BRANCH  24  26
ATOM     26  C   UNL     1      -2.064  20.863  71.895  0.00  0.00    +0.248 C 
ATOM     27  O   UNL     1      -2.140  20.191  73.100  0.00  0.00    -0.212 OA
ENDBRANCH  24  26
ENDBRANCH   3  24
TORSDOF 2
ENDMDL
MODEL 5
REMARK VINA RESULT:      -6.9      1.475      1.870
REMARK  Name = 
REMARK  2 active torsions:
REMARK  status: ('A' for Active; 'I' for Inactive)
REMARK    1  A    between atoms: C_22  and  C_24
REMARK    2  A    between atoms: C_24  and  C_26
REMARK                            x       y       z     vdW  Elec       q    Type
REMARK                         _______ _______ _______ _____ _____    ______ ____
ROOT
ATOM      1  C   UNL     1      -9.041  12.426  66.337  0.00  0.00    +0.003 C 
ATOM      2  C   UNL     1     -10.251  12.925  65.874  0.00  0.00    +0.035 C 
ATOM      3  C   UNL     1     -11.110  11.825  65.584  0.00  0.00    +0.180 C 
ATOM      4  O   UNL     1     -12.452  12.141  65.422  0.00  0.00    -0.218 OA
ATOM      5  C   UNL     1     -11.037  11.074  66.920  0.00  0.00    +0.038 C 
ATOM      6  C   UNL     1     -10.589  12.091  67.966  0.00  0.00    +0.003 C 
ATOM      7  C   UNL     1     -11.093  13.407  67.179  0.00  0.00    +0.006 C 
ATOM      8  C   UNL     1      -9.767  14.387  67.569  0.00  0.00    +0.033 C 
ATOM      9  C   UNL     1     -10.199  14.606  69.112  0.00  0.00    +0.007 C 
ATOM     10  C   UNL     1      -9.533  15.869  69.475  0.00  0.00    +0.022 C 
ATOM     11  C   UNL     1      -9.009  16.712  68.390  0.00  0.00    -0.039 C 
ATOM     12  C   UNL     1      -9.527  16.705  66.980  0.00  0.00    +0.046 C 
ATOM     13  C   UNL     1      -8.335  16.417  66.107  0.00  0.00    +0.007 C 
ATOM     14  C   UNL     1     -10.060  18.069  66.652  0.00  0.00    +0.014 C 
ATOM     15  C   UNL     1      -9.104  19.191  66.886  0.00  0.00    +0.070 C 
ATOM     16  C   UNL     1      -8.356  19.078  68.168  0.00  0.00    +0.173 C 
ATOM     17  O   UNL     1      -8.309  20.158  68.835  0.00  0.00    -0.291 OA
ATOM     18  C   UNL     1      -8.268  17.758  68.759  0.00  0.00    +0.029 C 
ATOM     19  C   UNL     1     -10.529  15.695  67.023  0.00  0.00    +0.164 C 
ATOM     20  F   UNL     1     -11.608  15.974  67.771  0.00  0.00    -0.237 F 
ATOM     21  C   UNL     1     -11.179  15.264  65.591  0.00  0.00    +0.182 C 
ATOM     22  O   UNL     1     -10.482  16.361  64.802  0.00  0.00    -0.220 OA
ATOM     23  C   UNL     1     -10.037  14.147  65.161  0.00  0.00    +0.038 C 
ENDROOT
BRANCH   3  24
ATOM     24  C   UNL     1     -10.710  10.814  64.586  0.00  0.00    +0.211 C 
ATOM     25  O   UNL     1     -10.185   9.794  65.038  0.00  0.00    -0.291 OA
BRANCH  24  26
ATOM     26  C   UNL     1     -10.362  11.120  63.179  0.00  0.00    +0.248 C 
ATOM     27  O   UNL     1      -9.016  10.973  62.899  0.00  0.00    -0.212 OA
ENDBRANCH  24  26
ENDBRANCH   3  24
TORSDOF 2
ENDMDL
MODEL 6
REMARK VINA RESULT:      -6.8      2.533      3.893
REMARK  Name = 
REMARK  2 active torsions:
REMARK  status: ('A' for Active; 'I' for Inactive)
REMARK    1  A    between atoms: C_22  and  C_24
REMARK    2  A    between atoms: C_24  and  C_26
REMARK                            x       y       z     vdW  Elec       q    Type
REMARK                         _______ _______ _______ _____ _____    ______ ____
ROOT
ATOM      1  C   UNL     1     -11.749  13.218  67.582  0.00  0.00    +0.003 C 
ATOM      2  C   UNL     1     -10.368  13.073  67.598  0.00  0.00    +0.035 C 
ATOM      3  C   UNL     1     -10.053  11.730  67.238  0.00  0.00    +0.180 C 
ATOM      4  O   UNL     1      -8.728  11.499  66.893  0.00  0.00    -0.218 OA
ATOM      5  C   UNL     1     -10.832  11.619  65.921  0.00  0.00    +0.038 C 
ATOM      6  C   UNL     1     -11.052  13.046  65.426  0.00  0.00    +0.003 C 
ATOM      7  C   UNL     1      -9.810  13.713  66.212  0.00  0.00    +0.006 C 
ATOM      8  C   UNL     1     -10.603  15.145  66.651  0.00  0.00    +0.033 C 
ATOM      9  C   UNL     1     -10.578  15.785  65.166  0.00  0.00    +0.007 C 
ATOM     10  C   UNL     1     -10.677  17.233  65.419  0.00  0.00    +0.022 C 
ATOM     11  C   UNL     1     -10.434  17.715  66.787  0.00  0.00    -0.039 C 
ATOM     12  C   UNL     1      -9.596  16.996  67.807  0.00  0.00    +0.046 C 
ATOM     13  C   UNL     1     -10.487  16.805  69.005  0.00  0.00    +0.007 C 
ATOM     14  C   UNL     1      -8.439  17.872  68.189  0.00  0.00    +0.014 C 
ATOM     15  C   UNL     1      -8.810  19.244  68.643  0.00  0.00    +0.070 C 
ATOM     16  C   UNL     1      -9.860  19.885  67.803  0.00  0.00    +0.173 C 
ATOM     17  O   UNL     1      -9.604  21.089  67.488  0.00  0.00    -0.291 OA
ATOM     18  C   UNL     1     -10.696  19.003  67.015  0.00  0.00    +0.029 C 
ATOM     19  C   UNL     1      -9.215  15.812  67.116  0.00  0.00    +0.164 C 
ATOM     20  F   UNL     1      -8.389  15.986  66.072  0.00  0.00    -0.237 F 
ATOM     21  C   UNL     1      -8.451  14.676  68.001  0.00  0.00    +0.182 C 
ATOM     22  O   UNL     1      -8.323  15.549  69.240  0.00  0.00    -0.220 OA
ATOM     23  C   UNL     1      -9.796  13.923  68.597  0.00  0.00    +0.038 C 
ENDROOT
BRANCH   3  24
ATOM     24  C   UNL     1     -10.562  10.606  68.048  0.00  0.00    +0.211 C 
ATOM     25  O   UNL     1     -11.620  10.104  67.662  0.00  0.00    -0.291 OA
BRANCH  24  26
ATOM     26  C   UNL     1     -10.273  10.414  69.488  0.00  0.00    +0.248 C 
ATOM     27  O   UNL     1     -11.332  10.746  70.312  0.00  0.00    -0.212 OA
ENDBRANCH  24  26
ENDBRANCH   3  24
TORSDOF 2
ENDMDL
MODEL 7
REMARK VINA RESULT:      -6.7      2.475      4.157
REMARK  Name = 
REMARK  2 active torsions:
REMARK  status: ('A' for Active; 'I' for Inactive)
REMARK    1  A    between atoms: C_22  and  C_24
REMARK    2  A    between atoms: C_24  and  C_26
REMARK                            x       y       z     vdW  Elec       q    Type
REMARK                         _______ _______ _______ _____ _____    ______ ____
ROOT
ATOM      1  C   UNL     1      -8.042  15.749  66.849  0.00  0.00    +0.003 C 
ATOM      2  C   UNL     1      -8.829  16.874  67.056  0.00  0.00    +0.035 C 
ATOM      3  C   UNL     1     -10.147  16.446  67.387  0.00  0.00    +0.180 C 
ATOM      4  O   UNL     1     -10.972  17.418  67.937  0.00  0.00    -0.218 OA
ATOM      5  C   UNL     1      -9.832  15.491  68.546  0.00  0.00    +0.038 C 
ATOM      6  C   UNL     1      -8.458  15.893  69.078  0.00  0.00    +0.003 C 
ATOM      7  C   UNL     1      -8.490  17.417  68.551  0.00  0.00    +0.006 C 
ATOM      8  C   UNL     1      -6.868  17.490  68.066  0.00  0.00    +0.033 C 
ATOM      9  C   UNL     1      -6.271  17.557  69.568  0.00  0.00    +0.007 C 
ATOM     10  C   UNL     1      -4.960  18.203  69.384  0.00  0.00    +0.022 C 
ATOM     11  C   UNL     1      -4.696  18.880  68.106  0.00  0.00    -0.039 C 
ATOM     12  C   UNL     1      -5.758  19.439  67.202  0.00  0.00    +0.046 C 
ATOM     13  C   UNL     1      -5.538  18.790  65.862  0.00  0.00    +0.007 C 
ATOM     14  C   UNL     1      -5.553  20.921  67.070  0.00  0.00    +0.014 C 
ATOM     15  C   UNL     1      -4.185  21.331  66.638  0.00  0.00    +0.070 C 
ATOM     16  C   UNL     1      -3.095  20.584  67.324  0.00  0.00    +0.173 C 
ATOM     17  O   UNL     1      -2.150  21.321  67.745  0.00  0.00    -0.291 OA
ATOM     18  C   UNL     1      -3.446  19.306  67.910  0.00  0.00    +0.029 C 
ATOM     19  C   UNL     1      -6.958  19.086  67.879  0.00  0.00    +0.164 C 
ATOM     20  F   UNL     1      -7.168  19.699  69.055  0.00  0.00    -0.237 F 
ATOM     21  C   UNL     1      -8.349  19.360  67.072  0.00  0.00    +0.182 C 
ATOM     22  O   UNL     1      -7.681  20.101  65.924  0.00  0.00    -0.220 OA
ATOM     23  C   UNL     1      -8.386  17.945  66.217  0.00  0.00    +0.038 C 
ENDROOT
BRANCH   3  24
ATOM     24  C   UNL     1     -10.917  15.614  66.442  0.00  0.00    +0.211 C 
ATOM     25  O   UNL     1     -11.314  14.532  66.881  0.00  0.00    -0.291 OA
BRANCH  24  26
ATOM     26  C   UNL     1     -10.771  15.670  64.969  0.00  0.00    +0.248 C 
ATOM     27  O   UNL     1     -11.255  16.839  64.411  0.00  0.00    -0.212 OA
ENDBRANCH  24  26
ENDBRANCH   3  24
TORSDOF 2
ENDMDL
MODEL 8
REMARK VINA RESULT:      -6.6      2.597      6.712
REMARK  Name = 
REMARK  2 active torsions:
REMARK  status: ('A' for Active; 'I' for Inactive)
REMARK    1  A    between atoms: C_22  and  C_24
REMARK    2  A    between atoms: C_24  and  C_26
REMARK                            x       y       z     vdW  Elec       q    Type
REMARK                         _______ _______ _______ _____ _____    ______ ____
ROOT
ATOM      1  C   UNL     1      -8.778  15.487  66.544  0.00  0.00    +0.003 C 
ATOM      2  C   UNL     1      -9.950  15.518  67.287  0.00  0.00    +0.035 C 
ATOM      3  C   UNL     1     -10.422  16.863  67.325  0.00  0.00    +0.180 C 
ATOM      4  O   UNL     1     -11.736  17.025  67.744  0.00  0.00    -0.218 OA
ATOM      5  C   UNL     1     -10.442  17.179  65.824  0.00  0.00    +0.038 C 
ATOM      6  C   UNL     1     -10.496  15.837  65.099  0.00  0.00    +0.003 C 
ATOM      7  C   UNL     1     -11.140  14.992  66.312  0.00  0.00    +0.006 C 
ATOM      8  C   UNL     1     -10.219  13.588  66.084  0.00  0.00    +0.033 C 
ATOM      9  C   UNL     1     -11.005  13.115  64.752  0.00  0.00    +0.007 C 
ATOM     10  C   UNL     1     -10.773  11.660  64.720  0.00  0.00    +0.022 C 
ATOM     11  C   UNL     1     -10.264  11.014  65.939  0.00  0.00    -0.039 C 
ATOM     12  C   UNL     1     -10.457  11.547  67.330  0.00  0.00    +0.046 C 
ATOM     13  C   UNL     1      -9.076  11.676  67.914  0.00  0.00    +0.007 C 
ATOM     14  C   UNL     1     -11.238  10.545  68.130  0.00  0.00    +0.014 C 
ATOM     15  C   UNL     1     -10.669   9.166  68.139  0.00  0.00    +0.070 C 
ATOM     16  C   UNL     1     -10.202   8.706  66.802  0.00  0.00    +0.173 C 
ATOM     17  O   UNL     1     -10.570   7.528  66.504  0.00  0.00    -0.291 OA
ATOM     18  C   UNL     1      -9.907   9.733  65.824  0.00  0.00    +0.029 C 
ATOM     19  C   UNL     1     -11.155  12.766  67.100  0.00  0.00    +0.164 C 
ATOM     20  F   UNL     1     -12.402  12.642  66.617  0.00  0.00    -0.237 F 
ATOM     21  C   UNL     1     -11.361  13.733  68.397  0.00  0.00    +0.182 C 
ATOM     22  O   UNL     1     -10.817  12.722  69.394  0.00  0.00    -0.220 OA
ATOM     23  C   UNL     1      -9.910  14.521  68.312  0.00  0.00    +0.038 C 
ENDROOT
BRANCH   3  24
ATOM     24  C   UNL     1      -9.579  17.929  67.901  0.00  0.00    +0.211 C 
ATOM     25  O   UNL     1      -9.679  18.092  69.119  0.00  0.00    -0.291 OA
BRANCH  24  26
ATOM     26  C   UNL     1      -9.106  19.117  67.153  0.00  0.00    +0.248 C 
ATOM     27  O   UNL     1      -9.862  20.251  67.384  0.00  0.00    -0.212 OA
ENDBRANCH  24  26
ENDBRANCH   3  24
TORSDOF 2
ENDMDL
MODEL 9
REMARK VINA RESULT:      -6.6      4.208      6.330
REMARK  Name = 
REMARK  2 active torsions:
REMARK  status: ('A' for Active; 'I' for Inactive)
REMARK    1  A    between atoms: C_22  and  C_24
REMARK    2  A    between atoms: C_24  and  C_26
REMARK                            x       y       z     vdW  Elec       q    Type
REMARK                         _______ _______ _______ _____ _____    ______ ____
ROOT
ATOM      1  C   UNL     1     -11.582  10.108  68.801  0.00  0.00    +0.003 C 
ATOM      2  C   UNL     1     -10.224  10.394  68.831  0.00  0.00    +0.035 C 
ATOM      3  C   UNL     1      -9.536   9.257  69.347  0.00  0.00    +0.180 C 
ATOM      4  O   UNL     1      -8.163   9.246  69.145  0.00  0.00    -0.218 OA
ATOM      5  C   UNL     1     -10.084   8.170  68.413  0.00  0.00    +0.038 C 
ATOM      6  C   UNL     1     -10.589   8.886  67.164  0.00  0.00    +0.003 C 
ATOM      7  C   UNL     1      -9.670  10.202  67.314  0.00  0.00    +0.006 C 
ATOM      8  C   UNL     1     -10.848  11.320  66.831  0.00  0.00    +0.033 C 
ATOM      9  C   UNL     1     -10.791  10.921  65.265  0.00  0.00    +0.007 C 
ATOM     10  C   UNL     1     -11.284  12.134  64.588  0.00  0.00    +0.022 C 
ATOM     11  C   UNL     1     -11.351  13.381  65.364  0.00  0.00    -0.039 C 
ATOM     12  C   UNL     1     -10.500  13.683  66.565  0.00  0.00    +0.046 C 
ATOM     13  C   UNL     1     -11.462  14.007  67.677  0.00  0.00    +0.007 C 
ATOM     14  C   UNL     1      -9.660  14.893  66.273  0.00  0.00    +0.014 C 
ATOM     15  C   UNL     1     -10.422  16.092  65.816  0.00  0.00    +0.070 C 
ATOM     16  C   UNL     1     -11.480  15.780  64.816  0.00  0.00    +0.173 C 
ATOM     17  O   UNL     1     -11.497  16.569  63.820  0.00  0.00    -0.291 OA
ATOM     18  C   UNL     1     -11.957  14.413  64.774  0.00  0.00    +0.029 C 
ATOM     19  C   UNL     1      -9.746  12.487  66.720  0.00  0.00    +0.164 C 
ATOM     20  F   UNL     1      -8.861  12.225  65.744  0.00  0.00    -0.237 F 
ATOM     21  C   UNL     1      -8.842  12.375  68.072  0.00  0.00    +0.182 C 
ATOM     22  O   UNL     1      -9.101  13.807  68.514  0.00  0.00    -0.220 OA
ATOM     23  C   UNL     1     -10.020  11.789  69.073  0.00  0.00    +0.038 C 
ENDROOT
BRANCH   3  24
ATOM     24  C   UNL     1      -9.847   8.753  70.699  0.00  0.00    +0.211 C 
ATOM     25  O   UNL     1      -9.090   9.128  71.597  0.00  0.00    -0.291 OA
BRANCH  24  26
ATOM     26  C   UNL     1     -10.556   7.482  70.975  0.00  0.00    +0.248 C 
ATOM     27  O   UNL     1     -11.779   7.656  71.595  0.00  0.00    -0.212 OA
ENDBRANCH  24  26
ENDBRANCH   3  24
TORSDOF 2
ENDMDL
