MODEL 1
REMARK VINA RESULT:      -6.6      0.000      0.000
REMARK  Name = 
REMARK  2 active torsions:
REMARK  status: ('A' for Active; 'I' for Inactive)
REMARK    1  A    between atoms: C_2  and  C_3
REMARK    2  A    between atoms: C_22  and  C_23
REMARK                            x       y       z     vdW  Elec       q    Type
REMARK                         _______ _______ _______ _____ _____    ______ ____
ROOT
ATOM      1  C   UNL     1     -11.357  12.440  66.532  0.00  0.00    +0.180 C 
ATOM      2  C   UNL     1     -10.734  13.446  67.426  0.00  0.00    +0.037 C 
ATOM      3  C   UNL     1     -10.257  14.379  66.190  0.00  0.00    +0.003 C 
ATOM      4  C   UNL     1     -10.039  15.720  67.186  0.00  0.00    +0.001 C 
ATOM      5  C   UNL     1      -8.407  15.379  67.289  0.00  0.00    +0.004 C 
ATOM      6  C   UNL     1      -8.673  14.349  68.500  0.00  0.00    +0.000 C 
ATOM      7  C   UNL     1      -7.970  16.607  68.364  0.00  0.00    +0.019 C 
ATOM      8  C   UNL     1      -8.840  17.806  67.802  0.00  0.00    -0.043 C 
ATOM      9  C   UNL     1      -8.392  18.935  68.361  0.00  0.00    +0.010 C 
ATOM     10  C   UNL     1      -6.984  19.313  68.469  0.00  0.00    +0.101 C 
ATOM     11  C   UNL     1      -6.032  18.206  68.152  0.00  0.00    +0.050 C 
ATOM     12  N   UNL     1      -6.556  20.537  68.342  0.00  0.00    -0.034 NA
ATOM     13  O   UNL     1      -7.043  21.235  67.250  0.00  0.00    -0.143 OA
ATOM     14  C   UNL     1      -9.511  17.865  66.550  0.00  0.00    +0.022 C 
ATOM     15  C   UNL     1      -6.700  17.052  67.437  0.00  0.00    +0.010 C 
ATOM     16  C   UNL     1      -9.833  16.619  65.867  0.00  0.00    +0.004 C 
ATOM     17  C   UNL     1     -11.802  14.742  65.869  0.00  0.00    +0.004 C 
ATOM     18  C   UNL     1      -9.427  13.162  68.018  0.00  0.00    +0.003 C 
ATOM     19  C   UNL     1     -12.348  13.320  65.769  0.00  0.00    +0.043 C 
ATOM     20  O   UNL     1     -12.062  11.437  67.165  0.00  0.00    -0.212 OA
ENDROOT
BRANCH   1  22
ATOM     21  C   UNL     1      -9.904  11.332  64.749  0.00  0.00    -0.012 C 
ATOM     22  C   UNL     1     -10.445  11.919  65.499  0.00  0.00    -0.049 C 
ENDBRANCH   1  22
BRANCH   2  23
ATOM     23  C   UNL     1     -11.720  14.210  68.212  0.00  0.00    +0.003 C 
ATOM     24  C   UNL     1     -12.007  13.699  69.583  0.00  0.00    +0.000 C 
ENDBRANCH   2  23
TORSDOF 2
ENDMDL
MODEL 2
REMARK VINA RESULT:      -6.6      2.574      6.906
REMARK  Name = 
REMARK  2 active torsions:
REMARK  status: ('A' for Active; 'I' for Inactive)
REMARK    1  A    between atoms: C_2  and  C_3
REMARK    2  A    between atoms: C_22  and  C_23
REMARK                            x       y       z     vdW  Elec       q    Type
REMARK                         _______ _______ _______ _____ _____    ______ ____
ROOT
ATOM      1  C   UNL     1      -7.108  20.024  66.820  0.00  0.00    +0.180 C 
ATOM      2  C   UNL     1      -8.287  19.174  67.114  0.00  0.00    +0.037 C 
ATOM      3  C   UNL     1      -7.569  17.833  66.556  0.00  0.00    +0.003 C 
ATOM      4  C   UNL     1      -8.658  16.825  67.354  0.00  0.00    +0.001 C 
ATOM      5  C   UNL     1      -9.554  16.681  65.951  0.00  0.00    +0.004 C 
ATOM      6  C   UNL     1     -10.350  18.041  66.289  0.00  0.00    +0.000 C 
ATOM      7  C   UNL     1     -10.812  15.734  66.563  0.00  0.00    +0.019 C 
ATOM      8  C   UNL     1     -10.000  14.740  67.492  0.00  0.00    -0.043 C 
ATOM      9  C   UNL     1     -10.816  13.735  67.828  0.00  0.00    +0.010 C 
ATOM     10  C   UNL     1     -11.669  13.003  66.893  0.00  0.00    +0.101 C 
ATOM     11  C   UNL     1     -11.782  13.640  65.547  0.00  0.00    +0.050 C 
ATOM     12  N   UNL     1     -11.899  11.722  66.981  0.00  0.00    -0.034 NA
ATOM     13  O   UNL     1     -10.784  10.922  67.169  0.00  0.00    -0.143 OA
ATOM     14  C   UNL     1      -8.594  14.532  67.503  0.00  0.00    +0.022 C 
ATOM     15  C   UNL     1     -10.719  14.689  65.310  0.00  0.00    +0.010 C 
ATOM     16  C   UNL     1      -7.727  15.571  66.965  0.00  0.00    +0.004 C 
ATOM     17  C   UNL     1      -6.535  17.869  67.802  0.00  0.00    +0.004 C 
ATOM     18  C   UNL     1      -9.437  19.212  66.210  0.00  0.00    +0.003 C 
ATOM     19  C   UNL     1      -6.033  19.300  67.631  0.00  0.00    +0.043 C 
ATOM     20  O   UNL     1      -7.189  21.327  67.267  0.00  0.00    -0.212 OA
ENDROOT
BRANCH   1  22
ATOM     21  C   UNL     1      -6.206  20.089  64.432  0.00  0.00    -0.012 C 
ATOM     22  C   UNL     1      -6.648  19.937  65.423  0.00  0.00    -0.049 C 
ENDBRANCH   1  22
BRANCH   2  23
ATOM     23  C   UNL     1      -8.522  18.991  68.558  0.00  0.00    +0.003 C 
ATOM     24  C   UNL     1      -9.688  19.723  69.132  0.00  0.00    +0.000 C 
ENDBRANCH   2  23
TORSDOF 2
ENDMDL
MODEL 3
REMARK VINA RESULT:      -6.5      2.589      7.076
REMARK  Name = 
REMARK  2 active torsions:
REMARK  status: ('A' for Active; 'I' for Inactive)
REMARK    1  A    between atoms: C_2  and  C_3
REMARK    2  A    between atoms: C_22  and  C_23
REMARK                            x       y       z     vdW  Elec       q    Type
REMARK                         _______ _______ _______ _____ _____    ______ ____
ROOT
ATOM      1  C   UNL     1      -5.811  19.852  67.852  0.00  0.00    +0.180 C 
ATOM      2  C   UNL     1      -6.232  18.617  67.146  0.00  0.00    +0.037 C 
ATOM      3  C   UNL     1      -7.759  18.728  67.678  0.00  0.00    +0.003 C 
ATOM      4  C   UNL     1      -8.330  17.676  66.493  0.00  0.00    +0.001 C 
ATOM      5  C   UNL     1      -8.261  16.410  67.581  0.00  0.00    +0.004 C 
ATOM      6  C   UNL     1      -6.704  16.170  67.242  0.00  0.00    +0.000 C 
ATOM      7  C   UNL     1      -8.732  15.167  66.538  0.00  0.00    +0.019 C 
ATOM      8  C   UNL     1      -9.879  15.894  65.722  0.00  0.00    -0.043 C 
ATOM      9  C   UNL     1     -10.559  14.959  65.049  0.00  0.00    +0.010 C 
ATOM     10  C   UNL     1     -11.035  13.700  65.619  0.00  0.00    +0.101 C 
ATOM     11  C   UNL     1     -10.467  13.389  66.965  0.00  0.00    +0.050 C 
ATOM     12  N   UNL     1     -12.172  13.150  65.297  0.00  0.00    -0.034 NA
ATOM     13  O   UNL     1     -13.270  13.994  65.295  0.00  0.00    -0.143 OA
ATOM     14  C   UNL     1     -10.516  17.123  66.047  0.00  0.00    +0.022 C 
ATOM     15  C   UNL     1      -9.819  14.592  67.614  0.00  0.00    +0.010 C 
ATOM     16  C   UNL     1      -9.831  18.056  66.931  0.00  0.00    +0.004 C 
ATOM     17  C   UNL     1      -7.981  20.043  66.760  0.00  0.00    +0.004 C 
ATOM     18  C   UNL     1      -5.884  17.316  67.717  0.00  0.00    +0.003 C 
ATOM     19  C   UNL     1      -6.792  20.862  67.254  0.00  0.00    +0.043 C 
ATOM     20  O   UNL     1      -4.527  20.280  67.585  0.00  0.00    -0.212 OA
ENDROOT
BRANCH   1  22
ATOM     21  C   UNL     1      -6.155  19.996  70.377  0.00  0.00    -0.012 C 
ATOM     22  C   UNL     1      -6.113  19.843  69.293  0.00  0.00    -0.049 C 
ENDBRANCH   1  22
BRANCH   2  23
ATOM     23  C   UNL     1      -6.254  18.767  65.680  0.00  0.00    +0.003 C 
ATOM     24  C   UNL     1      -5.008  18.379  64.960  0.00  0.00    +0.000 C 
ENDBRANCH   2  23
TORSDOF 2
ENDMDL
MODEL 4
REMARK VINA RESULT:      -6.4      4.507      7.728
REMARK  Name = 
REMARK  2 active torsions:
REMARK  status: ('A' for Active; 'I' for Inactive)
REMARK    1  A    between atoms: C_2  and  C_3
REMARK    2  A    between atoms: C_22  and  C_23
REMARK                            x       y       z     vdW  Elec       q    Type
REMARK                         _______ _______ _______ _____ _____    ______ ____
ROOT
ATOM      1  C   UNL     1     -10.671  12.852  65.102  0.00  0.00    +0.180 C 
ATOM      2  C   UNL     1     -10.499  12.620  66.557  0.00  0.00    +0.037 C 
ATOM      3  C   UNL     1     -10.995  11.080  66.459  0.00  0.00    +0.003 C 
ATOM      4  C   UNL     1     -10.314  10.684  67.948  0.00  0.00    +0.001 C 
ATOM      5  C   UNL     1     -11.797  10.900  68.685  0.00  0.00    +0.004 C 
ATOM      6  C   UNL     1     -11.527  12.483  68.825  0.00  0.00    +0.000 C 
ATOM      7  C   UNL     1     -11.317  10.627  70.282  0.00  0.00    +0.019 C 
ATOM      8  C   UNL     1     -10.322   9.410  70.080  0.00  0.00    -0.043 C 
ATOM      9  C   UNL     1     -10.074   8.880  71.282  0.00  0.00    +0.010 C 
ATOM     10  C   UNL     1     -11.092   8.565  72.283  0.00  0.00    +0.101 C 
ATOM     11  C   UNL     1     -12.438   9.140  71.981  0.00  0.00    +0.050 C 
ATOM     12  N   UNL     1     -11.038   7.521  73.061  0.00  0.00    -0.034 NA
ATOM     13  O   UNL     1     -10.750   6.319  72.437  0.00  0.00    -0.143 OA
ATOM     14  C   UNL     1     -10.178   8.605  68.917  0.00  0.00    +0.022 C 
ATOM     15  C   UNL     1     -12.563   9.604  70.547  0.00  0.00    +0.010 C 
ATOM     16  C   UNL     1     -10.622   9.136  67.636  0.00  0.00    +0.004 C 
ATOM     17  C   UNL     1      -9.655  10.702  65.632  0.00  0.00    +0.004 C 
ATOM     18  C   UNL     1     -11.508  13.128  67.485  0.00  0.00    +0.003 C 
ATOM     19  C   UNL     1      -9.766  11.758  64.536  0.00  0.00    +0.043 C 
ATOM     20  O   UNL     1     -10.223  14.072  64.639  0.00  0.00    -0.212 OA
ENDROOT
BRANCH   1  22
ATOM     21  C   UNL     1     -12.904  12.248  64.022  0.00  0.00    -0.012 C 
ATOM     22  C   UNL     1     -12.017  12.522  64.605  0.00  0.00    -0.049 C 
ENDBRANCH   1  22
BRANCH   2  23
ATOM     23  C   UNL     1      -9.085  12.610  66.977  0.00  0.00    +0.003 C 
ATOM     24  C   UNL     1      -8.531  13.912  67.449  0.00  0.00    +0.000 C 
ENDBRANCH   2  23
TORSDOF 2
ENDMDL
MODEL 5
REMARK VINA RESULT:      -6.2      3.694      5.935
REMARK  Name = 
REMARK  2 active torsions:
REMARK  status: ('A' for Active; 'I' for Inactive)
REMARK    1  A    between atoms: C_2  and  C_3
REMARK    2  A    between atoms: C_22  and  C_23
REMARK                            x       y       z     vdW  Elec       q    Type
REMARK                         _______ _______ _______ _____ _____    ______ ____
ROOT
ATOM      1  C   UNL     1      -8.648   8.922  69.458  0.00  0.00    +0.180 C 
ATOM      2  C   UNL     1      -9.111   9.528  68.186  0.00  0.00    +0.037 C 
ATOM      3  C   UNL     1      -9.285  10.997  68.847  0.00  0.00    +0.003 C 
ATOM      4  C   UNL     1      -9.290  11.758  67.343  0.00  0.00    +0.001 C 
ATOM      5  C   UNL     1     -10.960  11.779  67.358  0.00  0.00    +0.004 C 
ATOM      6  C   UNL     1     -11.010  10.284  66.758  0.00  0.00    +0.000 C 
ATOM      7  C   UNL     1     -11.208  12.455  65.829  0.00  0.00    +0.019 C 
ATOM      8  C   UNL     1     -10.065  13.551  65.810  0.00  0.00    -0.043 C 
ATOM      9  C   UNL     1     -10.305  14.376  64.785  0.00  0.00    +0.010 C 
ATOM     10  C   UNL     1     -11.605  14.967  64.475  0.00  0.00    +0.101 C 
ATOM     11  C   UNL     1     -12.743  14.364  65.233  0.00  0.00    +0.050 C 
ATOM     12  N   UNL     1     -11.755  16.178  64.018  0.00  0.00    -0.034 NA
ATOM     13  O   UNL     1     -11.050  17.165  64.686  0.00  0.00    -0.143 OA
ATOM     14  C   UNL     1      -9.303  14.016  66.917  0.00  0.00    +0.022 C 
ATOM     15  C   UNL     1     -12.281  13.539  66.414  0.00  0.00    +0.010 C 
ATOM     16  C   UNL     1      -9.201  13.175  68.101  0.00  0.00    +0.004 C 
ATOM     17  C   UNL     1      -7.679  11.113  69.012  0.00  0.00    +0.004 C 
ATOM     18  C   UNL     1     -10.489   9.307  67.750  0.00  0.00    +0.003 C 
ATOM     19  C   UNL     1      -7.440   9.807  69.765  0.00  0.00    +0.043 C 
ATOM     20  O   UNL     1      -8.221   7.613  69.372  0.00  0.00    -0.212 OA
ENDROOT
BRANCH   1  22
ATOM     21  C   UNL     1     -10.177   9.081  71.497  0.00  0.00    -0.012 C 
ATOM     22  C   UNL     1      -9.569   9.139  70.587  0.00  0.00    -0.049 C 
ENDBRANCH   1  22
BRANCH   2  23
ATOM     23  C   UNL     1      -8.048   9.616  67.168  0.00  0.00    +0.003 C 
ATOM     24  C   UNL     1      -7.986   8.499  66.183  0.00  0.00    +0.000 C 
ENDBRANCH   2  23
TORSDOF 2
ENDMDL
MODEL 6
REMARK VINA RESULT:      -6.2      1.330      3.071
REMARK  Name = 
REMARK  2 active torsions:
REMARK  status: ('A' for Active; 'I' for Inactive)
REMARK    1  A    between atoms: C_2  and  C_3
REMARK    2  A    between atoms: C_22  and  C_23
REMARK                            x       y       z     vdW  Elec       q    Type
REMARK                         _______ _______ _______ _____ _____    ______ ____
ROOT
ATOM      1  C   UNL     1     -10.974  11.701  67.953  0.00  0.00    +0.180 C 
ATOM      2  C   UNL     1     -10.773  13.000  67.266  0.00  0.00    +0.037 C 
ATOM      3  C   UNL     1      -9.912  13.616  68.494  0.00  0.00    +0.003 C 
ATOM      4  C   UNL     1      -9.261  14.834  67.529  0.00  0.00    +0.001 C 
ATOM      5  C   UNL     1     -10.424  15.896  68.083  0.00  0.00    +0.004 C 
ATOM      6  C   UNL     1     -11.467  15.377  66.968  0.00  0.00    +0.000 C 
ATOM      7  C   UNL     1     -10.003  17.232  67.138  0.00  0.00    +0.019 C 
ATOM      8  C   UNL     1      -8.422  17.149  67.211  0.00  0.00    -0.043 C 
ATOM      9  C   UNL     1      -7.930  18.306  66.755  0.00  0.00    +0.010 C 
ATOM     10  C   UNL     1      -8.405  19.630  67.151  0.00  0.00    +0.101 C 
ATOM     11  C   UNL     1      -9.692  19.612  67.910  0.00  0.00    +0.050 C 
ATOM     12  N   UNL     1      -7.621  20.659  67.310  0.00  0.00    -0.034 NA
ATOM     13  O   UNL     1      -6.481  20.435  68.064  0.00  0.00    -0.143 OA
ATOM     14  C   UNL     1      -7.645  16.363  68.104  0.00  0.00    +0.022 C 
ATOM     15  C   UNL     1     -10.040  18.235  68.428  0.00  0.00    +0.010 C 
ATOM     16  C   UNL     1      -8.259  15.202  68.733  0.00  0.00    +0.004 C 
ATOM     17  C   UNL     1      -8.711  12.578  68.170  0.00  0.00    +0.004 C 
ATOM     18  C   UNL     1     -11.866  13.971  67.243  0.00  0.00    +0.003 C 
ATOM     19  C   UNL     1      -9.522  11.286  68.195  0.00  0.00    +0.043 C 
ATOM     20  O   UNL     1     -11.589  10.721  67.200  0.00  0.00    -0.212 OA
ENDROOT
BRANCH   1  22
ATOM     21  C   UNL     1     -12.058  11.688  70.264  0.00  0.00    -0.012 C 
ATOM     22  C   UNL     1     -11.559  11.826  69.299  0.00  0.00    -0.049 C 
ENDBRANCH   1  22
BRANCH   2  23
ATOM     23  C   UNL     1      -9.881  12.904  66.096  0.00  0.00    +0.003 C 
ATOM     24  C   UNL     1     -10.549  12.760  64.771  0.00  0.00    +0.000 C 
ENDBRANCH   2  23
TORSDOF 2
ENDMDL
MODEL 7
REMARK VINA RESULT:      -6.1      4.315      7.891
REMARK  Name = 
REMARK  2 active torsions:
REMARK  status: ('A' for Active; 'I' for Inactive)
REMARK    1  A    between atoms: C_2  and  C_3
REMARK    2  A    between atoms: C_22  and  C_23
REMARK                            x       y       z     vdW  Elec       q    Type
REMARK                         _______ _______ _______ _____ _____    ______ ____
ROOT
ATOM      1  C   UNL     1     -11.081  14.515  65.383  0.00  0.00    +0.180 C 
ATOM      2  C   UNL     1     -11.023  13.062  65.090  0.00  0.00    +0.037 C 
ATOM      3  C   UNL     1     -10.414  12.703  66.548  0.00  0.00    +0.003 C 
ATOM      4  C   UNL     1     -10.837  11.078  66.410  0.00  0.00    +0.001 C 
ATOM      5  C   UNL     1      -9.288  10.715  65.901  0.00  0.00    +0.004 C 
ATOM      6  C   UNL     1      -9.672  11.089  64.381  0.00  0.00    +0.000 C 
ATOM      7  C   UNL     1      -9.509   9.067  65.605  0.00  0.00    +0.019 C 
ATOM      8  C   UNL     1     -10.413   8.670  66.844  0.00  0.00    -0.043 C 
ATOM      9  C   UNL     1     -10.439   7.335  66.921  0.00  0.00    +0.010 C 
ATOM     10  C   UNL     1      -9.265   6.469  66.828  0.00  0.00    +0.101 C 
ATOM     11  C   UNL     1      -8.031   7.168  66.356  0.00  0.00    +0.050 C 
ATOM     12  N   UNL     1      -9.116   5.380  67.529  0.00  0.00    -0.034 NA
ATOM     13  O   UNL     1      -9.385   5.494  68.882  0.00  0.00    -0.143 OA
ATOM     14  C   UNL     1     -10.652   9.442  68.014  0.00  0.00    +0.022 C 
ATOM     15  C   UNL     1      -8.153   8.674  66.428  0.00  0.00    +0.010 C 
ATOM     16  C   UNL     1     -10.444  10.882  67.958  0.00  0.00    +0.004 C 
ATOM     17  C   UNL     1     -11.820  13.115  67.236  0.00  0.00    +0.004 C 
ATOM     18  C   UNL     1      -9.939  12.546  64.254  0.00  0.00    +0.003 C 
ATOM     19  C   UNL     1     -11.959  14.511  66.635  0.00  0.00    +0.043 C 
ATOM     20  O   UNL     1     -11.696  15.290  64.422  0.00  0.00    -0.212 OA
ENDROOT
BRANCH   1  22
ATOM     21  C   UNL     1      -8.950  15.716  66.112  0.00  0.00    -0.012 C 
ATOM     22  C   UNL     1      -9.797  15.082  65.827  0.00  0.00    -0.049 C 
ENDBRANCH   1  22
BRANCH   2  23
ATOM     23  C   UNL     1     -12.355  12.438  64.993  0.00  0.00    +0.003 C 
ATOM     24  C   UNL     1     -12.819  12.088  63.620  0.00  0.00    +0.000 C 
ENDBRANCH   2  23
TORSDOF 2
ENDMDL
MODEL 8
REMARK VINA RESULT:      -6.1      4.075      7.221
REMARK  Name = 
REMARK  2 active torsions:
REMARK  status: ('A' for Active; 'I' for Inactive)
REMARK    1  A    between atoms: C_2  and  C_3
REMARK    2  A    between atoms: C_22  and  C_23
REMARK                            x       y       z     vdW  Elec       q    Type
REMARK                         _______ _______ _______ _____ _____    ______ ____
ROOT
ATOM      1  C   UNL     1      -9.997  15.272  66.240  0.00  0.00    +0.180 C 
ATOM      2  C   UNL     1     -10.604  13.947  66.514  0.00  0.00    +0.037 C 
ATOM      3  C   UNL     1     -10.380  14.078  68.114  0.00  0.00    +0.003 C 
ATOM      4  C   UNL     1     -11.505  12.869  68.449  0.00  0.00    +0.001 C 
ATOM      5  C   UNL     1     -10.270  11.752  68.575  0.00  0.00    +0.004 C 
ATOM      6  C   UNL     1     -10.284  11.518  66.980  0.00  0.00    +0.000 C 
ATOM      7  C   UNL     1     -11.214  10.375  68.835  0.00  0.00    +0.019 C 
ATOM      8  C   UNL     1     -12.312  10.960  69.816  0.00  0.00    -0.043 C 
ATOM      9  C   UNL     1     -12.973   9.928  70.353  0.00  0.00    +0.010 C 
ATOM     10  C   UNL     1     -12.344   8.737  70.919  0.00  0.00    +0.101 C 
ATOM     11  C   UNL     1     -10.888   8.613  70.609  0.00  0.00    +0.050 C 
ATOM     12  N   UNL     1     -12.796   8.116  71.973  0.00  0.00    -0.034 NA
ATOM     13  O   UNL     1     -13.108   8.920  73.057  0.00  0.00    -0.143 OA
ATOM     14  C   UNL     1     -12.270  12.200  70.510  0.00  0.00    +0.022 C 
ATOM     15  C   UNL     1     -10.291   9.906  70.100  0.00  0.00    +0.010 C 
ATOM     16  C   UNL     1     -11.402  13.255  70.007  0.00  0.00    +0.004 C 
ATOM     17  C   UNL     1     -11.484  15.261  68.171  0.00  0.00    +0.004 C 
ATOM     18  C   UNL     1      -9.817  12.738  66.270  0.00  0.00    +0.003 C 
ATOM     19  C   UNL     1     -10.889  16.170  67.099  0.00  0.00    +0.043 C 
ATOM     20  O   UNL     1     -10.077  15.702  64.931  0.00  0.00    -0.212 OA
ENDROOT
BRANCH   1  22
ATOM     21  C   UNL     1      -7.605  15.691  67.026  0.00  0.00    -0.012 C 
ATOM     22  C   UNL     1      -8.647  15.434  66.804  0.00  0.00    -0.049 C 
ENDBRANCH   1  22
BRANCH   2  23
ATOM     23  C   UNL     1     -12.057  13.913  66.265  0.00  0.00    +0.003 C 
ATOM     24  C   UNL     1     -12.487  13.326  64.963  0.00  0.00    +0.000 C 
ENDBRANCH   2  23
TORSDOF 2
ENDMDL
MODEL 9
REMARK VINA RESULT:      -5.9      1.799      3.548
REMARK  Name = 
REMARK  2 active torsions:
REMARK  status: ('A' for Active; 'I' for Inactive)
REMARK    1  A    between atoms: C_2  and  C_3
REMARK    2  A    between atoms: C_22  and  C_23
REMARK                            x       y       z     vdW  Elec       q    Type
REMARK                         _______ _______ _______ _____ _____    ______ ____
ROOT
ATOM      1  C   UNL     1     -10.374  10.326  67.661  0.00  0.00    +0.180 C 
ATOM      2  C   UNL     1     -10.502  11.630  66.965  0.00  0.00    +0.037 C 
ATOM      3  C   UNL     1      -9.615  12.410  68.074  0.00  0.00    +0.003 C 
ATOM      4  C   UNL     1      -9.326  13.709  67.042  0.00  0.00    +0.001 C 
ATOM      5  C   UNL     1     -10.580  14.553  67.752  0.00  0.00    +0.004 C 
ATOM      6  C   UNL     1     -11.647  13.837  66.778  0.00  0.00    +0.000 C 
ATOM      7  C   UNL     1     -10.534  15.928  66.771  0.00  0.00    +0.019 C 
ATOM      8  C   UNL     1      -8.969  16.133  66.635  0.00  0.00    -0.043 C 
ATOM      9  C   UNL     1      -8.757  17.352  66.128  0.00  0.00    +0.010 C 
ATOM     10  C   UNL     1      -9.409  18.575  66.593  0.00  0.00    +0.101 C 
ATOM     11  C   UNL     1     -10.561  18.337  67.514  0.00  0.00    +0.050 C 
ATOM     12  N   UNL     1      -8.809  19.731  66.656  0.00  0.00    -0.034 NA
ATOM     13  O   UNL     1      -7.560  19.729  67.253  0.00  0.00    -0.143 OA
ATOM     14  C   UNL     1      -7.952  15.514  67.413  0.00  0.00    +0.022 C 
ATOM     15  C   UNL     1     -10.584  16.928  68.062  0.00  0.00    +0.010 C 
ATOM     16  C   UNL     1      -8.259  14.271  68.107  0.00  0.00    +0.004 C 
ATOM     17  C   UNL     1      -8.299  11.601  67.588  0.00  0.00    +0.004 C 
ATOM     18  C   UNL     1     -11.747  12.387  67.092  0.00  0.00    +0.003 C 
ATOM     19  C   UNL     1      -8.852  10.184  67.708  0.00  0.00    +0.043 C 
ATOM     20  O   UNL     1     -10.894   9.240  66.988  0.00  0.00    -0.212 OA
ENDROOT
BRANCH   1  22
ATOM     21  C   UNL     1     -11.208  10.182  70.070  0.00  0.00    -0.012 C 
ATOM     22  C   UNL     1     -10.792  10.365  69.073  0.00  0.00    -0.049 C 
ENDBRANCH   1  22
BRANCH   2  23
ATOM     23  C   UNL     1      -9.768  11.677  65.687  0.00  0.00    +0.003 C 
ATOM     24  C   UNL     1     -10.553  11.342  64.464  0.00  0.00    +0.000 C 
ENDBRANCH   2  23
TORSDOF 2
ENDMDL
