MODEL 1
REMARK VINA RESULT:      -3.1      0.000      0.000
REMARK  Name = 
REMARK  1 active torsions:
REMARK  status: ('A' for Active; 'I' for Inactive)
REMARK    1  A    between atoms: C_2  and  C_4
REMARK                            x       y       z     vdW  Elec       q    Type
REMARK                         _______ _______ _______ _____ _____    ______ ____
ROOT
ATOM      1  C   UNL     1     -13.697  13.918  72.394  0.00  0.00    +0.038 C 
ATOM      2  C   UNL     1     -12.920  15.376  72.338  0.00  0.00    +0.185 C 
ATOM      3  O   UNL     1     -14.229  16.065  72.700  0.00  0.00    -0.220 OA
ENDROOT
BRANCH   2   4
ATOM      4  C   UNL     1     -12.444  15.273  73.915  0.00  0.00    +0.215 C 
ATOM      5  O   UNL     1     -12.627  16.478  74.478  0.00  0.00    -0.218 OA
ENDBRANCH   2   4
TORSDOF 1
ENDMDL
MODEL 2
REMARK VINA RESULT:      -3.1      8.210      8.668
REMARK  Name = 
REMARK  1 active torsions:
REMARK  status: ('A' for Active; 'I' for Inactive)
REMARK    1  A    between atoms: C_2  and  C_4
REMARK                            x       y       z     vdW  Elec       q    Type
REMARK                         _______ _______ _______ _____ _____    ______ ____
ROOT
ATOM      1  C   UNL     1     -12.267  14.088  66.017  0.00  0.00    +0.038 C 
ATOM      2  C   UNL     1     -11.410  14.274  64.615  0.00  0.00    +0.185 C 
ATOM      3  O   UNL     1     -12.665  14.817  63.944  0.00  0.00    -0.220 OA
ENDROOT
BRANCH   2   4
ATOM      4  C   UNL     1     -10.887  15.780  65.041  0.00  0.00    +0.215 C 
ATOM      5  O   UNL     1     -11.415  16.657  64.173  0.00  0.00    -0.218 OA
ENDBRANCH   2   4
TORSDOF 1
ENDMDL
MODEL 3
REMARK VINA RESULT:      -3.0      1.386      2.420
REMARK  Name = 
REMARK  1 active torsions:
REMARK  status: ('A' for Active; 'I' for Inactive)
REMARK    1  A    between atoms: C_2  and  C_4
REMARK                            x       y       z     vdW  Elec       q    Type
REMARK                         _______ _______ _______ _____ _____    ______ ____
ROOT
ATOM      1  C   UNL     1     -12.023  16.091  72.206  0.00  0.00    +0.038 C 
ATOM      2  C   UNL     1     -13.049  15.331  73.255  0.00  0.00    +0.185 C 
ATOM      3  O   UNL     1     -14.223  16.027  72.579  0.00  0.00    -0.220 OA
ENDROOT
BRANCH   2   4
ATOM      4  C   UNL     1     -13.177  13.999  72.291  0.00  0.00    +0.215 C 
ATOM      5  O   UNL     1     -14.339  13.393  72.581  0.00  0.00    -0.218 OA
ENDBRANCH   2   4
TORSDOF 1
ENDMDL
MODEL 4
REMARK VINA RESULT:      -2.9      1.340      2.377
REMARK  Name = 
REMARK  1 active torsions:
REMARK  status: ('A' for Active; 'I' for Inactive)
REMARK    1  A    between atoms: C_2  and  C_4
REMARK                            x       y       z     vdW  Elec       q    Type
REMARK                         _______ _______ _______ _____ _____    ______ ____
ROOT
ATOM      1  C   UNL     1     -12.530  15.650  74.140  0.00  0.00    +0.038 C 
ATOM      2  C   UNL     1     -13.096  14.993  72.732  0.00  0.00    +0.185 C 
ATOM      3  O   UNL     1     -14.197  16.046  72.707  0.00  0.00    -0.220 OA
ENDROOT
BRANCH   2   4
ATOM      4  C   UNL     1     -12.085  15.912  71.805  0.00  0.00    +0.215 C 
ATOM      5  O   UNL     1     -12.607  15.974  70.569  0.00  0.00    -0.218 OA
ENDBRANCH   2   4
TORSDOF 1
ENDMDL
MODEL 5
REMARK VINA RESULT:      -2.8      8.887      9.530
REMARK  Name = 
REMARK  1 active torsions:
REMARK  status: ('A' for Active; 'I' for Inactive)
REMARK    1  A    between atoms: C_2  and  C_4
REMARK                            x       y       z     vdW  Elec       q    Type
REMARK                         _______ _______ _______ _____ _____    ______ ____
ROOT
ATOM      1  C   UNL     1     -10.952  11.681  63.660  0.00  0.00    +0.038 C 
ATOM      2  C   UNL     1     -12.010  12.935  63.457  0.00  0.00    +0.185 C 
ATOM      3  O   UNL     1     -13.150  11.931  63.359  0.00  0.00    -0.220 OA
ENDROOT
BRANCH   2   4
ATOM      4  C   UNL     1     -12.213  13.131  65.082  0.00  0.00    +0.215 C 
ATOM      5  O   UNL     1     -13.238  13.979  65.268  0.00  0.00    -0.218 OA
ENDBRANCH   2   4
TORSDOF 1
ENDMDL
MODEL 6
REMARK VINA RESULT:      -2.8      8.650      9.170
REMARK  Name = 
REMARK  1 active torsions:
REMARK  status: ('A' for Active; 'I' for Inactive)
REMARK    1  A    between atoms: C_2  and  C_4
REMARK                            x       y       z     vdW  Elec       q    Type
REMARK                         _______ _______ _______ _____ _____    ______ ____
ROOT
ATOM      1  C   UNL     1     -10.700  14.251  64.985  0.00  0.00    +0.038 C 
ATOM      2  C   UNL     1     -12.314  14.143  65.324  0.00  0.00    +0.185 C 
ATOM      3  O   UNL     1     -12.622  14.670  63.929  0.00  0.00    -0.220 OA
ENDROOT
BRANCH   2   4
ATOM      4  C   UNL     1     -12.393  12.569  64.836  0.00  0.00    +0.215 C 
ATOM      5  O   UNL     1     -12.870  12.552  63.582  0.00  0.00    -0.218 OA
ENDBRANCH   2   4
TORSDOF 1
ENDMDL
MODEL 7
REMARK VINA RESULT:      -2.7      8.351      8.838
REMARK  Name = 
REMARK  1 active torsions:
REMARK  status: ('A' for Active; 'I' for Inactive)
REMARK    1  A    between atoms: C_2  and  C_4
REMARK                            x       y       z     vdW  Elec       q    Type
REMARK                         _______ _______ _______ _____ _____    ______ ____
ROOT
ATOM      1  C   UNL     1     -11.683  12.398  66.273  0.00  0.00    +0.038 C 
ATOM      2  C   UNL     1     -11.708  12.603  64.633  0.00  0.00    +0.185 C 
ATOM      3  O   UNL     1     -13.229  12.521  64.667  0.00  0.00    -0.220 OA
ENDROOT
BRANCH   2   4
ATOM      4  C   UNL     1     -11.712  14.248  64.759  0.00  0.00    +0.215 C 
ATOM      5  O   UNL     1     -12.646  14.721  63.917  0.00  0.00    -0.218 OA
ENDBRANCH   2   4
TORSDOF 1
ENDMDL
MODEL 8
REMARK VINA RESULT:      -2.7      1.526      2.451
REMARK  Name = 
REMARK  1 active torsions:
REMARK  status: ('A' for Active; 'I' for Inactive)
REMARK    1  A    between atoms: C_2  and  C_4
REMARK                            x       y       z     vdW  Elec       q    Type
REMARK                         _______ _______ _______ _____ _____    ______ ____
ROOT
ATOM      1  C   UNL     1     -12.254  15.232  72.212  0.00  0.00    +0.038 C 
ATOM      2  C   UNL     1     -13.244  14.134  71.472  0.00  0.00    +0.185 C 
ATOM      3  O   UNL     1     -13.496  13.480  72.824  0.00  0.00    -0.220 OA
ENDROOT
BRANCH   2   4
ATOM      4  C   UNL     1     -14.565  15.114  71.608  0.00  0.00    +0.215 C 
ATOM      5  O   UNL     1     -14.299  16.032  72.551  0.00  0.00    -0.218 OA
ENDBRANCH   2   4
TORSDOF 1
ENDMDL
MODEL 9
REMARK VINA RESULT:      -2.6      8.639      9.147
REMARK  Name = 
REMARK  1 active torsions:
REMARK  status: ('A' for Active; 'I' for Inactive)
REMARK    1  A    between atoms: C_2  and  C_4
REMARK                            x       y       z     vdW  Elec       q    Type
REMARK                         _______ _______ _______ _____ _____    ______ ____
ROOT
ATOM      1  C   UNL     1     -11.314  11.788  63.884  0.00  0.00    +0.038 C 
ATOM      2  C   UNL     1     -12.622  12.546  64.551  0.00  0.00    +0.185 C 
ATOM      3  O   UNL     1     -12.124  12.145  65.934  0.00  0.00    -0.220 OA
ENDROOT
BRANCH   2   4
ATOM      4  C   UNL     1     -11.850  14.003  64.607  0.00  0.00    +0.215 C 
ATOM      5  O   UNL     1     -12.625  14.902  63.979  0.00  0.00    -0.218 OA
ENDBRANCH   2   4
TORSDOF 1
ENDMDL
