MODEL 1
REMARK VINA RESULT:      -6.3      0.000      0.000
REMARK  Name = 
REMARK  6 active torsions:
REMARK  status: ('A' for Active; 'I' for Inactive)
REMARK    1  A    between atoms: C_2  and  N_5
REMARK    2  A    between atoms: N_5  and  C_6
REMARK    3  A    between atoms: C_6  and  C_7
REMARK    4  A    between atoms: C_7  and  C_9
REMARK    5  A    between atoms: C_9  and  O_10
REMARK    6  A    between atoms: O_10  and  C_11
REMARK                            x       y       z     vdW  Elec       q    Type
REMARK                         _______ _______ _______ _____ _____    ______ ____
ROOT
ATOM      1  C   UNL     1     -11.495  13.804  68.624  0.00  0.00    +0.136 A 
ATOM      2  C   UNL     1     -11.949  14.004  69.926  0.00  0.00    +0.028 A 
ATOM      3  C   UNL     1     -12.098  15.418  70.333  0.00  0.00    +0.040 C 
ATOM      4  C   UNL     1     -13.015  15.620  71.499  0.00  0.00    +0.092 C 
ATOM      5  C   UNL     1     -13.956  14.494  71.672  0.00  0.00    +0.246 C 
ATOM      6  N   UNL     1     -13.377  13.183  71.658  0.00  0.00    -0.179 NA
ATOM      7  O   UNL     1     -15.190  14.704  71.719  0.00  0.00    -0.273 OA
ATOM      8  C   UNL     1     -12.305  12.935  70.738  0.00  0.00    +0.072 A 
ATOM      9  C   UNL     1     -12.035  11.665  70.241  0.00  0.00    +0.016 A 
ATOM     10  C   UNL     1     -11.712  11.460  68.903  0.00  0.00    +0.004 A 
ATOM     11  C   UNL     1     -11.710  12.561  68.050  0.00  0.00    +0.037 A 
ENDROOT
BRANCH   1  12
ATOM     12  O   UNL     1     -10.601  14.743  68.092  0.00  0.00    -0.473 OA
BRANCH  12  13
ATOM     13  C   UNL     1     -10.970  15.557  67.038  0.00  0.00    +0.239 C 
BRANCH  13  14
ATOM     14  C   UNL     1      -9.873  15.333  65.826  0.00  0.00    +0.213 C 
ATOM     15  O   UNL     1     -10.254  16.637  65.143  0.00  0.00    -0.218 OA
BRANCH  14  16
ATOM     16  C   UNL     1     -10.935  14.448  64.924  0.00  0.00    +0.125 C 
BRANCH  16  17
ATOM     17  N   UNL     1     -10.243  13.335  64.422  0.00  0.00    -0.218 NA
BRANCH  17  19
ATOM     18  C   UNL     1     -10.906  12.130  63.452  0.00  0.00    +0.017 C 
ATOM     19  C   UNL     1     -10.985  12.157  64.095  0.00  0.00    +0.060 C 
ATOM     20  C   UNL     1     -12.436  12.419  64.493  0.00  0.00    +0.017 C 
ATOM     21  C   UNL     1     -10.572  10.901  64.813  0.00  0.00    +0.017 C 
ENDBRANCH  17  19
ENDBRANCH  16  17
ENDBRANCH  14  16
ENDBRANCH  13  14
ENDBRANCH  12  13
ENDBRANCH   1  12
TORSDOF 6
ENDMDL
MODEL 2
REMARK VINA RESULT:      -6.2      2.229      6.166
REMARK  Name = 
REMARK  6 active torsions:
REMARK  status: ('A' for Active; 'I' for Inactive)
REMARK    1  A    between atoms: C_2  and  N_5
REMARK    2  A    between atoms: N_5  and  C_6
REMARK    3  A    between atoms: C_6  and  C_7
REMARK    4  A    between atoms: C_7  and  C_9
REMARK    5  A    between atoms: C_9  and  O_10
REMARK    6  A    between atoms: O_10  and  C_11
REMARK                            x       y       z     vdW  Elec       q    Type
REMARK                         _______ _______ _______ _____ _____    ______ ____
ROOT
ATOM      1  C   UNL     1      -9.899  13.735  67.600  0.00  0.00    +0.136 A 
ATOM      2  C   UNL     1     -10.994  13.643  66.744  0.00  0.00    +0.028 A 
ATOM      3  C   UNL     1     -11.213  14.817  65.871  0.00  0.00    +0.040 C 
ATOM      4  C   UNL     1     -12.046  14.525  64.662  0.00  0.00    +0.092 C 
ATOM      5  C   UNL     1     -12.045  13.090  64.315  0.00  0.00    +0.246 C 
ATOM      6  N   UNL     1     -12.315  12.182  65.390  0.00  0.00    -0.179 NA
ATOM      7  O   UNL     1     -11.719  12.719  63.163  0.00  0.00    -0.273 OA
ATOM      8  C   UNL     1     -11.764  12.489  66.678  0.00  0.00    +0.072 A 
ATOM      9  C   UNL     1     -11.481  11.504  67.617  0.00  0.00    +0.016 A 
ATOM     10  C   UNL     1     -10.315  11.534  68.376  0.00  0.00    +0.004 A 
ATOM     11  C   UNL     1      -9.402  12.559  68.140  0.00  0.00    +0.037 A 
ENDROOT
BRANCH   1  12
ATOM     12  O   UNL     1      -9.561  15.001  68.098  0.00  0.00    -0.473 OA
BRANCH  12  13
ATOM     13  C   UNL     1      -9.911  15.376  69.381  0.00  0.00    +0.239 C 
BRANCH  13  14
ATOM     14  C   UNL     1     -11.386  16.110  69.302  0.00  0.00    +0.213 C 
ATOM     15  O   UNL     1     -10.779  17.500  69.407  0.00  0.00    -0.218 OA
BRANCH  14  16
ATOM     16  C   UNL     1     -11.619  15.993  70.932  0.00  0.00    +0.125 C 
BRANCH  16  17
ATOM     17  N   UNL     1     -12.989  15.787  71.153  0.00  0.00    -0.218 NA
BRANCH  17  19
ATOM     18  C   UNL     1     -13.893  15.634  72.564  0.00  0.00    +0.017 C 
ATOM     19  C   UNL     1     -13.406  15.236  72.405  0.00  0.00    +0.060 C 
ATOM     20  C   UNL     1     -12.221  15.352  73.361  0.00  0.00    +0.017 C 
ATOM     21  C   UNL     1     -13.791  13.782  72.385  0.00  0.00    +0.017 C 
ENDBRANCH  17  19
ENDBRANCH  16  17
ENDBRANCH  14  16
ENDBRANCH  13  14
ENDBRANCH  12  13
ENDBRANCH   1  12
TORSDOF 6
ENDMDL
MODEL 3
REMARK VINA RESULT:      -6.2      1.680      6.475
REMARK  Name = 
REMARK  6 active torsions:
REMARK  status: ('A' for Active; 'I' for Inactive)
REMARK    1  A    between atoms: C_2  and  N_5
REMARK    2  A    between atoms: N_5  and  C_6
REMARK    3  A    between atoms: C_6  and  C_7
REMARK    4  A    between atoms: C_7  and  C_9
REMARK    5  A    between atoms: C_9  and  O_10
REMARK    6  A    between atoms: O_10  and  C_11
REMARK                            x       y       z     vdW  Elec       q    Type
REMARK                         _______ _______ _______ _____ _____    ______ ____
ROOT
ATOM      1  C   UNL     1     -11.547  12.975  66.927  0.00  0.00    +0.136 A 
ATOM      2  C   UNL     1     -11.377  14.330  66.653  0.00  0.00    +0.028 A 
ATOM      3  C   UNL     1     -10.916  15.152  67.794  0.00  0.00    +0.040 C 
ATOM      4  C   UNL     1     -10.285  16.448  67.390  0.00  0.00    +0.092 C 
ATOM      5  C   UNL     1      -9.789  16.420  65.999  0.00  0.00    +0.246 C 
ATOM      6  N   UNL     1     -10.710  15.936  65.013  0.00  0.00    -0.179 NA
ATOM      7  O   UNL     1      -8.596  16.708  65.747  0.00  0.00    -0.273 OA
ATOM      8  C   UNL     1     -11.557  14.835  65.372  0.00  0.00    +0.072 A 
ATOM      9  C   UNL     1     -12.065  13.953  64.426  0.00  0.00    +0.016 A 
ATOM     10  C   UNL     1     -12.108  12.582  64.658  0.00  0.00    +0.004 A 
ATOM     11  C   UNL     1     -11.581  12.099  65.853  0.00  0.00    +0.037 A 
ENDROOT
BRANCH   1  12
ATOM     12  O   UNL     1     -11.971  12.616  68.214  0.00  0.00    -0.473 OA
BRANCH  12  13
ATOM     13  C   UNL     1     -11.834  11.318  68.670  0.00  0.00    +0.239 C 
BRANCH  13  14
ATOM     14  C   UNL     1     -11.700  11.378  70.312  0.00  0.00    +0.213 C 
ATOM     15  O   UNL     1     -13.028  10.666  70.518  0.00  0.00    -0.218 OA
BRANCH  14  16
ATOM     16  C   UNL     1     -12.390  12.875  70.393  0.00  0.00    +0.125 C 
BRANCH  16  17
ATOM     17  N   UNL     1     -13.054  12.973  71.624  0.00  0.00    -0.218 NA
BRANCH  17  19
ATOM     18  C   UNL     1     -14.117  14.178  72.121  0.00  0.00    +0.017 C 
ATOM     19  C   UNL     1     -13.476  14.263  72.075  0.00  0.00    +0.060 C 
ATOM     20  C   UNL     1     -13.096  15.263  70.985  0.00  0.00    +0.017 C 
ATOM     21  C   UNL     1     -12.834  14.757  73.342  0.00  0.00    +0.017 C 
ENDBRANCH  17  19
ENDBRANCH  16  17
ENDBRANCH  14  16
ENDBRANCH  13  14
ENDBRANCH  12  13
ENDBRANCH   1  12
TORSDOF 6
ENDMDL
MODEL 4
REMARK VINA RESULT:      -6.2      3.461      6.026
REMARK  Name = 
REMARK  6 active torsions:
REMARK  status: ('A' for Active; 'I' for Inactive)
REMARK    1  A    between atoms: C_2  and  N_5
REMARK    2  A    between atoms: N_5  and  C_6
REMARK    3  A    between atoms: C_6  and  C_7
REMARK    4  A    between atoms: C_7  and  C_9
REMARK    5  A    between atoms: C_9  and  O_10
REMARK    6  A    between atoms: O_10  and  C_11
REMARK                            x       y       z     vdW  Elec       q    Type
REMARK                         _______ _______ _______ _____ _____    ______ ____
ROOT
ATOM      1  C   UNL     1     -11.338  10.937  69.650  0.00  0.00    +0.136 A 
ATOM      2  C   UNL     1     -11.633  10.173  70.777  0.00  0.00    +0.028 A 
ATOM      3  C   UNL     1     -12.993  10.359  71.328  0.00  0.00    +0.040 C 
ATOM      4  C   UNL     1     -13.457   9.227  72.191  0.00  0.00    +0.092 C 
ATOM      5  C   UNL     1     -12.725   7.975  71.913  0.00  0.00    +0.246 C 
ATOM      6  N   UNL     1     -11.296   8.076  71.874  0.00  0.00    -0.179 NA
ATOM      7  O   UNL     1     -13.351   6.928  71.626  0.00  0.00    -0.273 OA
ATOM      8  C   UNL     1     -10.725   9.251  71.281  0.00  0.00    +0.072 A 
ATOM      9  C   UNL     1      -9.462   9.248  70.702  0.00  0.00    +0.016 A 
ATOM     10  C   UNL     1      -9.209   9.906  69.502  0.00  0.00    +0.004 A 
ATOM     11  C   UNL     1     -10.272  10.537  68.860  0.00  0.00    +0.037 A 
ENDROOT
BRANCH   1  12
ATOM     12  O   UNL     1     -11.924  12.206  69.549  0.00  0.00    -0.473 OA
BRANCH  12  13
ATOM     13  C   UNL     1     -11.194  13.293  69.104  0.00  0.00    +0.239 C 
BRANCH  13  14
ATOM     14  C   UNL     1     -12.219  14.581  69.015  0.00  0.00    +0.213 C 
ATOM     15  O   UNL     1     -11.140  15.491  68.449  0.00  0.00    -0.218 OA
BRANCH  14  16
ATOM     16  C   UNL     1     -11.910  15.035  70.571  0.00  0.00    +0.125 C 
BRANCH  16  17
ATOM     17  N   UNL     1     -13.038  15.720  71.047  0.00  0.00    -0.218 NA
BRANCH  17  19
ATOM     18  C   UNL     1     -14.329  15.403  72.079  0.00  0.00    +0.017 C 
ATOM     19  C   UNL     1     -13.723  15.202  72.191  0.00  0.00    +0.060 C 
ATOM     20  C   UNL     1     -13.104  15.865  73.419  0.00  0.00    +0.017 C 
ATOM     21  C   UNL     1     -13.605  13.718  72.410  0.00  0.00    +0.017 C 
ENDBRANCH  17  19
ENDBRANCH  16  17
ENDBRANCH  14  16
ENDBRANCH  13  14
ENDBRANCH  12  13
ENDBRANCH   1  12
TORSDOF 6
ENDMDL
MODEL 5
REMARK VINA RESULT:      -6.2      1.599      2.241
REMARK  Name = 
REMARK  6 active torsions:
REMARK  status: ('A' for Active; 'I' for Inactive)
REMARK    1  A    between atoms: C_2  and  N_5
REMARK    2  A    between atoms: N_5  and  C_6
REMARK    3  A    between atoms: C_6  and  C_7
REMARK    4  A    between atoms: C_7  and  C_9
REMARK    5  A    between atoms: C_9  and  O_10
REMARK    6  A    between atoms: O_10  and  C_11
REMARK                            x       y       z     vdW  Elec       q    Type
REMARK                         _______ _______ _______ _____ _____    ______ ____
ROOT
ATOM      1  C   UNL     1     -11.841  12.299  69.752  0.00  0.00    +0.136 A 
ATOM      2  C   UNL     1     -12.328  13.163  70.730  0.00  0.00    +0.028 A 
ATOM      3  C   UNL     1     -12.062  14.599  70.493  0.00  0.00    +0.040 C 
ATOM      4  C   UNL     1     -12.973  15.516  71.248  0.00  0.00    +0.092 C 
ATOM      5  C   UNL     1     -14.231  14.852  71.645  0.00  0.00    +0.246 C 
ATOM      6  N   UNL     1     -14.095  13.577  72.285  0.00  0.00    -0.179 NA
ATOM      7  O   UNL     1     -15.336  15.353  71.331  0.00  0.00    -0.273 OA
ATOM      8  C   UNL     1     -13.075  12.692  71.801  0.00  0.00    +0.072 A 
ATOM      9  C   UNL     1     -13.173  11.312  71.927  0.00  0.00    +0.016 A 
ATOM     10  C   UNL     1     -12.808  10.458  70.890  0.00  0.00    +0.004 A 
ATOM     11  C   UNL     1     -12.382  11.024  69.691  0.00  0.00    +0.037 A 
ENDROOT
BRANCH   1  12
ATOM     12  O   UNL     1     -10.652  12.652  69.099  0.00  0.00    -0.473 OA
BRANCH  12  13
ATOM     13  C   UNL     1     -10.133  11.861  68.091  0.00  0.00    +0.239 C 
BRANCH  13  14
ATOM     14  C   UNL     1      -9.142  12.807  67.174  0.00  0.00    +0.213 C 
ATOM     15  O   UNL     1      -9.031  13.866  68.259  0.00  0.00    -0.218 OA
BRANCH  14  16
ATOM     16  C   UNL     1     -10.412  13.565  66.442  0.00  0.00    +0.125 C 
BRANCH  16  17
ATOM     17  N   UNL     1     -11.195  12.580  65.821  0.00  0.00    -0.218 NA
BRANCH  17  19
ATOM     18  C   UNL     1     -12.592  12.658  64.886  0.00  0.00    +0.017 C 
ATOM     19  C   UNL     1     -12.040  12.962  64.732  0.00  0.00    +0.060 C 
ATOM     20  C   UNL     1     -11.404  12.410  63.458  0.00  0.00    +0.017 C 
ATOM     21  C   UNL     1     -12.200  14.442  64.514  0.00  0.00    +0.017 C 
ENDBRANCH  17  19
ENDBRANCH  16  17
ENDBRANCH  14  16
ENDBRANCH  13  14
ENDBRANCH  12  13
ENDBRANCH   1  12
TORSDOF 6
ENDMDL
MODEL 6
REMARK VINA RESULT:      -6.1      2.202      3.856
REMARK  Name = 
REMARK  6 active torsions:
REMARK  status: ('A' for Active; 'I' for Inactive)
REMARK    1  A    between atoms: C_2  and  N_5
REMARK    2  A    between atoms: N_5  and  C_6
REMARK    3  A    between atoms: C_6  and  C_7
REMARK    4  A    between atoms: C_7  and  C_9
REMARK    5  A    between atoms: C_9  and  O_10
REMARK    6  A    between atoms: O_10  and  C_11
REMARK                            x       y       z     vdW  Elec       q    Type
REMARK                         _______ _______ _______ _____ _____    ______ ____
ROOT
ATOM      1  C   UNL     1     -11.253  13.582  68.434  0.00  0.00    +0.136 A 
ATOM      2  C   UNL     1     -11.640  13.992  69.708  0.00  0.00    +0.028 A 
ATOM      3  C   UNL     1     -11.520  15.443  69.967  0.00  0.00    +0.040 C 
ATOM      4  C   UNL     1     -12.364  15.926  71.106  0.00  0.00    +0.092 C 
ATOM      5  C   UNL     1     -13.491  15.015  71.393  0.00  0.00    +0.246 C 
ATOM      6  N   UNL     1     -13.162  13.626  71.514  0.00  0.00    -0.179 NA
ATOM      7  O   UNL     1     -14.665  15.451  71.416  0.00  0.00    -0.273 OA
ATOM      8  C   UNL     1     -12.170  13.094  70.624  0.00  0.00    +0.072 A 
ATOM      9  C   UNL     1     -12.146  11.753  70.261  0.00  0.00    +0.016 A 
ATOM     10  C   UNL     1     -11.889  11.358  68.951  0.00  0.00    +0.004 A 
ATOM     11  C   UNL     1     -11.701  12.348  67.990  0.00  0.00    +0.037 A 
ENDROOT
BRANCH   1  12
ATOM     12  O   UNL     1     -10.212  14.282  67.809  0.00  0.00    -0.473 OA
BRANCH  12  13
ATOM     13  C   UNL     1     -10.168  14.411  66.433  0.00  0.00    +0.239 C 
BRANCH  13  14
ATOM     14  C   UNL     1      -9.239  15.727  66.085  0.00  0.00    +0.213 C 
ATOM     15  O   UNL     1      -8.611  15.739  67.469  0.00  0.00    -0.218 OA
BRANCH  14  16
ATOM     16  C   UNL     1     -10.431  16.782  66.520  0.00  0.00    +0.125 C 
BRANCH  16  17
ATOM     17  N   UNL     1     -10.271  17.946  65.753  0.00  0.00    -0.218 NA
BRANCH  17  19
ATOM     18  C   UNL     1     -10.431  19.583  66.106  0.00  0.00    +0.017 C 
ATOM     19  C   UNL     1     -10.034  19.185  66.428  0.00  0.00    +0.060 C 
ATOM     20  C   UNL     1      -8.562  19.533  66.217  0.00  0.00    +0.017 C 
ATOM     21  C   UNL     1     -10.255  19.174  67.916  0.00  0.00    +0.017 C 
ENDBRANCH  17  19
ENDBRANCH  16  17
ENDBRANCH  14  16
ENDBRANCH  13  14
ENDBRANCH  12  13
ENDBRANCH   1  12
TORSDOF 6
ENDMDL
MODEL 7
REMARK VINA RESULT:      -6.1      2.085      3.225
REMARK  Name = 
REMARK  6 active torsions:
REMARK  status: ('A' for Active; 'I' for Inactive)
REMARK    1  A    between atoms: C_2  and  N_5
REMARK    2  A    between atoms: N_5  and  C_6
REMARK    3  A    between atoms: C_6  and  C_7
REMARK    4  A    between atoms: C_7  and  C_9
REMARK    5  A    between atoms: C_9  and  O_10
REMARK    6  A    between atoms: O_10  and  C_11
REMARK                            x       y       z     vdW  Elec       q    Type
REMARK                         _______ _______ _______ _____ _____    ______ ____
ROOT
ATOM      1  C   UNL     1     -11.925  12.274  69.718  0.00  0.00    +0.136 A 
ATOM      2  C   UNL     1     -12.372  13.161  70.694  0.00  0.00    +0.028 A 
ATOM      3  C   UNL     1     -12.123  14.591  70.409  0.00  0.00    +0.040 C 
ATOM      4  C   UNL     1     -13.004  15.524  71.180  0.00  0.00    +0.092 C 
ATOM      5  C   UNL     1     -14.240  14.867  71.650  0.00  0.00    +0.246 C 
ATOM      6  N   UNL     1     -14.070  13.609  72.315  0.00  0.00    -0.179 NA
ATOM      7  O   UNL     1     -15.360  15.355  71.373  0.00  0.00    -0.273 OA
ATOM      8  C   UNL     1     -13.068  12.715  71.810  0.00  0.00    +0.072 A 
ATOM      9  C   UNL     1     -13.154  11.338  71.975  0.00  0.00    +0.016 A 
ATOM     10  C   UNL     1     -12.831  10.459  70.945  0.00  0.00    +0.004 A 
ATOM     11  C   UNL     1     -12.461  10.995  69.714  0.00  0.00    +0.037 A 
ENDROOT
BRANCH   1  12
ATOM     12  O   UNL     1     -10.767  12.613  69.004  0.00  0.00    -0.473 OA
BRANCH  12  13
ATOM     13  C   UNL     1     -10.691  12.415  67.638  0.00  0.00    +0.239 C 
BRANCH  13  14
ATOM     14  C   UNL     1     -11.974  13.187  66.949  0.00  0.00    +0.213 C 
ATOM     15  O   UNL     1     -12.055  12.186  65.807  0.00  0.00    -0.218 OA
BRANCH  14  16
ATOM     16  C   UNL     1     -11.000  14.212  66.098  0.00  0.00    +0.125 C 
BRANCH  16  17
ATOM     17  N   UNL     1     -10.952  15.430  66.792  0.00  0.00    -0.218 NA
BRANCH  17  19
ATOM     18  C   UNL     1     -10.376  16.568  65.695  0.00  0.00    +0.017 C 
ATOM     19  C   UNL     1     -10.121  16.477  66.284  0.00  0.00    +0.060 C 
ATOM     20  C   UNL     1      -8.697  15.929  66.228  0.00  0.00    +0.017 C 
ATOM     21  C   UNL     1     -10.058  17.727  67.119  0.00  0.00    +0.017 C 
ENDBRANCH  17  19
ENDBRANCH  16  17
ENDBRANCH  14  16
ENDBRANCH  13  14
ENDBRANCH  12  13
ENDBRANCH   1  12
TORSDOF 6
ENDMDL
MODEL 8
REMARK VINA RESULT:      -6.1      4.041      7.775
REMARK  Name = 
REMARK  6 active torsions:
REMARK  status: ('A' for Active; 'I' for Inactive)
REMARK    1  A    between atoms: C_2  and  N_5
REMARK    2  A    between atoms: N_5  and  C_6
REMARK    3  A    between atoms: C_6  and  C_7
REMARK    4  A    between atoms: C_7  and  C_9
REMARK    5  A    between atoms: C_9  and  O_10
REMARK    6  A    between atoms: O_10  and  C_11
REMARK                            x       y       z     vdW  Elec       q    Type
REMARK                         _______ _______ _______ _____ _____    ______ ____
ROOT
ATOM      1  C   UNL     1      -9.661  17.569  67.291  0.00  0.00    +0.136 A 
ATOM      2  C   UNL     1      -8.659  18.258  67.971  0.00  0.00    +0.028 A 
ATOM      3  C   UNL     1      -7.658  17.408  68.652  0.00  0.00    +0.040 C 
ATOM      4  C   UNL     1      -6.368  18.108  68.945  0.00  0.00    +0.092 C 
ATOM      5  C   UNL     1      -6.159  19.283  68.075  0.00  0.00    +0.246 C 
ATOM      6  N   UNL     1      -7.259  20.195  67.973  0.00  0.00    -0.179 NA
ATOM      7  O   UNL     1      -5.110  19.389  67.397  0.00  0.00    -0.273 OA
ATOM      8  C   UNL     1      -8.583  19.644  67.931  0.00  0.00    +0.072 A 
ATOM      9  C   UNL     1      -9.640  20.304  67.316  0.00  0.00    +0.016 A 
ATOM     10  C   UNL     1     -10.563  19.624  66.527  0.00  0.00    +0.004 A 
ATOM     11  C   UNL     1     -10.376  18.258  66.324  0.00  0.00    +0.037 A 
ENDROOT
BRANCH   1  12
ATOM     12  O   UNL     1     -10.086  16.342  67.819  0.00  0.00    -0.473 OA
BRANCH  12  13
ATOM     13  C   UNL     1     -11.273  16.244  68.521  0.00  0.00    +0.239 C 
BRANCH  13  14
ATOM     14  C   UNL     1     -10.977  15.356  69.879  0.00  0.00    +0.213 C 
ATOM     15  O   UNL     1     -11.433  14.064  69.220  0.00  0.00    -0.218 OA
BRANCH  14  16
ATOM     16  C   UNL     1     -12.473  15.669  70.503  0.00  0.00    +0.125 C 
BRANCH  16  17
ATOM     17  N   UNL     1     -12.312  15.983  71.861  0.00  0.00    -0.218 NA
BRANCH  17  19
ATOM     18  C   UNL     1     -13.677  15.756  72.817  0.00  0.00    +0.017 C 
ATOM     19  C   UNL     1     -13.169  15.353  72.817  0.00  0.00    +0.060 C 
ATOM     20  C   UNL     1     -12.424  15.351  74.150  0.00  0.00    +0.017 C 
ATOM     21  C   UNL     1     -13.527  13.920  72.533  0.00  0.00    +0.017 C 
ENDBRANCH  17  19
ENDBRANCH  16  17
ENDBRANCH  14  16
ENDBRANCH  13  14
ENDBRANCH  12  13
ENDBRANCH   1  12
TORSDOF 6
ENDMDL
MODEL 9
REMARK VINA RESULT:      -6.1      2.022      3.254
REMARK  Name = 
REMARK  6 active torsions:
REMARK  status: ('A' for Active; 'I' for Inactive)
REMARK    1  A    between atoms: C_2  and  N_5
REMARK    2  A    between atoms: N_5  and  C_6
REMARK    3  A    between atoms: C_6  and  C_7
REMARK    4  A    between atoms: C_7  and  C_9
REMARK    5  A    between atoms: C_9  and  O_10
REMARK    6  A    between atoms: O_10  and  C_11
REMARK                            x       y       z     vdW  Elec       q    Type
REMARK                         _______ _______ _______ _____ _____    ______ ____
ROOT
ATOM      1  C   UNL     1     -11.667  14.596  70.738  0.00  0.00    +0.136 A 
ATOM      2  C   UNL     1     -12.268  13.348  70.595  0.00  0.00    +0.028 A 
ATOM      3  C   UNL     1     -11.791  12.545  69.448  0.00  0.00    +0.040 C 
ATOM      4  C   UNL     1     -12.062  11.079  69.580  0.00  0.00    +0.092 C 
ATOM      5  C   UNL     1     -12.264  10.671  70.986  0.00  0.00    +0.246 C 
ATOM      6  N   UNL     1     -13.187  11.464  71.744  0.00  0.00    -0.179 NA
ATOM      7  O   UNL     1     -11.574   9.751  71.482  0.00  0.00    -0.273 OA
ATOM      8  C   UNL     1     -13.191  12.881  71.522  0.00  0.00    +0.072 A 
ATOM      9  C   UNL     1     -13.594  13.782  72.500  0.00  0.00    +0.016 A 
ATOM     10  C   UNL     1     -12.904  14.969  72.726  0.00  0.00    +0.004 A 
ATOM     11  C   UNL     1     -11.758  15.218  71.974  0.00  0.00    +0.037 A 
ENDROOT
BRANCH   1  12
ATOM     12  O   UNL     1     -11.278  15.273  69.574  0.00  0.00    -0.473 OA
BRANCH  12  13
ATOM     13  C   UNL     1     -10.034  15.869  69.481  0.00  0.00    +0.239 C 
BRANCH  13  14
ATOM     14  C   UNL     1      -9.901  16.513  67.969  0.00  0.00    +0.213 C 
ATOM     15  O   UNL     1     -10.938  17.588  68.259  0.00  0.00    -0.218 OA
BRANCH  14  16
ATOM     16  C   UNL     1     -11.022  15.476  67.344  0.00  0.00    +0.125 C 
BRANCH  16  17
ATOM     17  N   UNL     1     -10.688  15.248  66.001  0.00  0.00    -0.218 NA
BRANCH  17  19
ATOM     18  C   UNL     1     -10.826  14.067  64.810  0.00  0.00    +0.017 C 
ATOM     19  C   UNL     1     -10.958  13.962  65.436  0.00  0.00    +0.060 C 
ATOM     20  C   UNL     1     -12.437  13.669  65.680  0.00  0.00    +0.017 C 
ATOM     21  C   UNL     1     -10.197  12.810  66.034  0.00  0.00    +0.017 C 
ENDBRANCH  17  19
ENDBRANCH  16  17
ENDBRANCH  14  16
ENDBRANCH  13  14
ENDBRANCH  12  13
ENDBRANCH   1  12
TORSDOF 6
ENDMDL
