MODEL 1
REMARK VINA RESULT:      -6.0      0.000      0.000
REMARK  Name = 
REMARK  20 active torsions:
REMARK  status: ('A' for Active; 'I' for Inactive)
REMARK    1  A    between atoms: C_2  and  C_4
REMARK    2  A    between atoms: C_4  and  C_5
REMARK    3  A    between atoms: C_5  and  N_6
REMARK    4  A    between atoms: C_5  and  C_28
REMARK    5  A    between atoms: C_7  and  C_9
REMARK    6  A    between atoms: C_9  and  C_10
REMARK    7  A    between atoms: C_9  and  N_18
REMARK    8  A    between atoms: C_10  and  C_11
REMARK    9  A    between atoms: C_11  and  C_12
REMARK   10  A    between atoms: C_19  and  C_21
REMARK   11  A    between atoms: C_21  and  N_22
REMARK   12  A    between atoms: N_30  and  C_31
REMARK   13  A    between atoms: C_31  and  C_32
REMARK   14  A    between atoms: C_31  and  C_39
REMARK   15  A    between atoms: C_32  and  C_33
REMARK   16  A    between atoms: N_41  and  C_42
REMARK   17  A    between atoms: C_42  and  C_43
REMARK   18  A    between atoms: C_42  and  C_47
REMARK   19  A    between atoms: C_43  and  C_44
REMARK   20  A    between atoms: C_47  and  C_49
REMARK                            x       y       z     vdW  Elec       q    Type
REMARK                         _______ _______ _______ _____ _____    ______ ____
ROOT
ATOM      1  C   UNL     1     -10.927  13.565  66.580  0.00  0.00    +0.173 C 
ENDROOT
BRANCH   1   2
ATOM      2  C   UNL     1     -11.106  12.299  67.562  0.00  0.00    +0.262 C 
ATOM      3  N   UNL     1     -10.200  11.684  68.324  0.00  0.00    -0.196 NA
ATOM      4  O   UNL     1     -11.914  11.491  66.997  0.00  0.00    -0.271 OA
BRANCH   3   5
ATOM      5  C   UNL     1      -9.431  10.370  67.888  0.00  0.00    +0.177 C 
BRANCH   5   6
ATOM      6  C   UNL     1     -10.131   9.364  68.929  0.00  0.00    +0.262 C 
ATOM      7  N   UNL     1      -9.903   9.202  70.229  0.00  0.00    -0.198 NA
ATOM      8  O   UNL     1     -10.268   8.307  68.227  0.00  0.00    -0.271 OA
BRANCH   7   9
ATOM      9  C   UNL     1      -9.488   7.779  70.776  0.00  0.00    +0.155 C 
BRANCH   9  10
ATOM     10  C   UNL     1     -10.489   7.835  72.034  0.00  0.00    +0.197 C 
ATOM     11  O   UNL     1     -10.092   8.264  73.065  0.00  0.00    -0.292 OA
BRANCH  10  12
ATOM     12  C   UNL     1     -11.532   6.786  71.896  0.00  0.00    +0.172 C 
ATOM     13  O   UNL     1     -12.022   6.564  70.529  0.00  0.00    -0.346 OA
ATOM     14  C   UNL     1     -12.893   7.149  71.437  0.00  0.00    +0.177 C 
ATOM     15  C   UNL     1     -11.288   5.433  72.524  0.00  0.00    +0.040 C 
ENDBRANCH  10  12
ENDBRANCH   9  10
BRANCH   9  16
ATOM     16  C   UNL     1      -8.213   8.399  71.610  0.00  0.00    +0.029 C 
BRANCH  16  17
ATOM     17  C   UNL     1      -7.107   7.596  71.064  0.00  0.00    +0.002 C 
ATOM     18  C   UNL     1      -7.405   6.569  70.061  0.00  0.00    +0.000 C 
ATOM     19  C   UNL     1      -5.739   8.098  71.196  0.00  0.00    +0.000 C 
ENDBRANCH  16  17
ENDBRANCH   9  16
ENDBRANCH   7   9
ENDBRANCH   5   6
BRANCH   5  20
ATOM     20  C   UNL     1      -8.086  10.735  68.751  0.00  0.00    +0.057 C 
BRANCH  20  21
ATOM     21  C   UNL     1      -6.886  10.661  67.970  0.00  0.00    -0.020 A 
ATOM     22  C   UNL     1      -6.670  11.313  66.755  0.00  0.00    -0.004 A 
ATOM     23  C   UNL     1      -5.603  11.026  65.942  0.00  0.00    -0.000 A 
ATOM     24  C   UNL     1      -4.845   9.902  66.253  0.00  0.00    -0.000 A 
ATOM     25  C   UNL     1      -5.219   9.040  67.278  0.00  0.00    -0.000 A 
ATOM     26  C   UNL     1      -6.471   9.326  67.816  0.00  0.00    -0.004 A 
ENDBRANCH  20  21
ENDBRANCH   5  20
ENDBRANCH   3   5
ENDBRANCH   1   2
BRANCH   1  27
ATOM     27  N   UNL     1      -9.371  13.769  66.764  0.00  0.00    -0.196 NA
ATOM     28  C   UNL     1      -8.851  15.058  66.878  0.00  0.00    +0.262 C 
ATOM     29  O   UNL     1      -9.199  15.759  65.938  0.00  0.00    -0.271 OA
BRANCH  28  30
ATOM     30  C   UNL     1      -8.507  15.727  68.302  0.00  0.00    +0.173 C 
BRANCH  30  31
ATOM     31  N   UNL     1      -9.894  15.342  68.936  0.00  0.00    -0.197 NA
ATOM     32  C   UNL     1     -10.841  16.292  69.222  0.00  0.00    +0.258 C 
ATOM     33  O   UNL     1     -10.878  17.331  68.537  0.00  0.00    -0.272 OA
BRANCH  32  34
ATOM     34  C   UNL     1     -12.131  15.815  69.810  0.00  0.00    +0.160 C 
BRANCH  34  35
ATOM     35  N   UNL     1     -11.930  15.092  71.055  0.00  0.00    -0.261 NA
ATOM     36  C   UNL     1     -11.955  15.954  72.187  0.00  0.00    +0.105 C 
ATOM     37  C   UNL     1     -12.406  15.322  73.466  0.00  0.00    +0.159 C 
ATOM     38  O   UNL     1     -13.653  14.736  73.191  0.00  0.00    -0.351 OA
ATOM     39  C   UNL     1     -13.341  13.599  72.437  0.00  0.00    +0.159 C 
ATOM     40  C   UNL     1     -12.807  13.971  71.095  0.00  0.00    +0.105 C 
ENDBRANCH  34  35
ENDBRANCH  32  34
ENDBRANCH  30  31
BRANCH  30  41
ATOM     41  C   UNL     1      -7.720  14.413  68.908  0.00  0.00    +0.036 C 
BRANCH  41  42
ATOM     42  C   UNL     1      -6.279  14.622  68.862  0.00  0.00    +0.029 C 
BRANCH  42  43
ATOM     43  C   UNL     1      -5.436  13.555  69.404  0.00  0.00    -0.022 A 
ATOM     44  C   UNL     1      -4.219  13.339  68.774  0.00  0.00    -0.004 A 
ATOM     45  C   UNL     1      -3.569  12.146  68.975  0.00  0.00    -0.000 A 
ATOM     46  C   UNL     1      -4.037  11.345  70.012  0.00  0.00    -0.000 A 
ATOM     47  C   UNL     1      -4.896  11.873  70.967  0.00  0.00    -0.000 A 
ATOM     48  C   UNL     1      -5.689  12.961  70.624  0.00  0.00    -0.004 A 
ENDBRANCH  42  43
ENDBRANCH  41  42
ENDBRANCH  30  41
ENDBRANCH  28  30
ENDBRANCH   1  27
BRANCH   1  49
ATOM     49  C   UNL     1     -10.776  12.663  65.213  0.00  0.00    +0.031 C 
BRANCH  49  51
ATOM     50  C   UNL     1     -12.157  14.380  64.473  0.00  0.00    +0.000 C 
ATOM     51  C   UNL     1     -11.704  13.308  64.267  0.00  0.00    +0.002 C 
ATOM     52  C   UNL     1     -12.412  12.259  63.479  0.00  0.00    +0.000 C 
ENDBRANCH  49  51
ENDBRANCH   1  49
TORSDOF 20
ENDMDL
MODEL 2
REMARK VINA RESULT:      -5.9      3.342      6.421
REMARK  Name = 
REMARK  20 active torsions:
REMARK  status: ('A' for Active; 'I' for Inactive)
REMARK    1  A    between atoms: C_2  and  C_4
REMARK    2  A    between atoms: C_4  and  C_5
REMARK    3  A    between atoms: C_5  and  N_6
REMARK    4  A    between atoms: C_5  and  C_28
REMARK    5  A    between atoms: C_7  and  C_9
REMARK    6  A    between atoms: C_9  and  C_10
REMARK    7  A    between atoms: C_9  and  N_18
REMARK    8  A    between atoms: C_10  and  C_11
REMARK    9  A    between atoms: C_11  and  C_12
REMARK   10  A    between atoms: C_19  and  C_21
REMARK   11  A    between atoms: C_21  and  N_22
REMARK   12  A    between atoms: N_30  and  C_31
REMARK   13  A    between atoms: C_31  and  C_32
REMARK   14  A    between atoms: C_31  and  C_39
REMARK   15  A    between atoms: C_32  and  C_33
REMARK   16  A    between atoms: N_41  and  C_42
REMARK   17  A    between atoms: C_42  and  C_43
REMARK   18  A    between atoms: C_42  and  C_47
REMARK   19  A    between atoms: C_43  and  C_44
REMARK   20  A    between atoms: C_47  and  C_49
REMARK                            x       y       z     vdW  Elec       q    Type
REMARK                         _______ _______ _______ _____ _____    ______ ____
ROOT
ATOM      1  C   UNL     1     -10.300  13.800  66.574  0.00  0.00    +0.173 C 
ENDROOT
BRANCH   1   2
ATOM      2  C   UNL     1      -9.180  12.685  66.890  0.00  0.00    +0.262 C 
ATOM      3  N   UNL     1      -9.260  11.356  66.807  0.00  0.00    -0.196 NA
ATOM      4  O   UNL     1      -8.528  13.082  67.911  0.00  0.00    -0.271 OA
BRANCH   3   5
ATOM      5  C   UNL     1      -9.567  10.414  68.042  0.00  0.00    +0.177 C 
BRANCH   5   6
ATOM      6  C   UNL     1      -9.229   9.015  67.327  0.00  0.00    +0.262 C 
ATOM      7  N   UNL     1      -9.994   7.936  67.180  0.00  0.00    -0.198 NA
ATOM      8  O   UNL     1      -8.016   8.825  67.673  0.00  0.00    -0.271 OA
BRANCH   7   9
ATOM      9  C   UNL     1      -9.496   6.546  67.743  0.00  0.00    +0.155 C 
BRANCH   9  10
ATOM     10  C   UNL     1      -9.713   5.766  66.353  0.00  0.00    +0.197 C 
ATOM     11  O   UNL     1     -10.662   5.066  66.230  0.00  0.00    -0.292 OA
BRANCH  10  12
ATOM     12  C   UNL     1      -8.404   5.546  65.687  0.00  0.00    +0.172 C 
ATOM     13  O   UNL     1      -7.942   6.646  64.830  0.00  0.00    -0.346 OA
ATOM     14  C   UNL     1      -8.327   5.465  64.210  0.00  0.00    +0.177 C 
ATOM     15  C   UNL     1      -7.231   5.090  66.526  0.00  0.00    +0.040 C 
ENDBRANCH  10  12
ENDBRANCH   9  10
BRANCH   9  16
ATOM     16  C   UNL     1     -10.988   6.173  68.326  0.00  0.00    +0.029 C 
BRANCH  16  17
ATOM     17  C   UNL     1     -10.646   5.676  69.667  0.00  0.00    +0.002 C 
ATOM     18  C   UNL     1     -11.396   6.179  70.822  0.00  0.00    +0.000 C 
ATOM     19  C   UNL     1      -9.898   4.424  69.786  0.00  0.00    +0.000 C 
ENDBRANCH  16  17
ENDBRANCH   9  16
ENDBRANCH   7   9
ENDBRANCH   5   6
BRANCH   5  20
ATOM     20  C   UNL     1     -11.188  10.438  67.803  0.00  0.00    +0.057 C 
BRANCH  20  21
ATOM     21  C   UNL     1     -11.924  10.745  68.995  0.00  0.00    -0.020 A 
ATOM     22  C   UNL     1     -11.901  11.968  69.668  0.00  0.00    -0.004 A 
ATOM     23  C   UNL     1     -12.435  12.132  70.920  0.00  0.00    -0.000 A 
ATOM     24  C   UNL     1     -12.815  10.986  71.610  0.00  0.00    -0.000 A 
ATOM     25  C   UNL     1     -12.561   9.718  71.099  0.00  0.00    -0.000 A 
ATOM     26  C   UNL     1     -11.767   9.729  69.954  0.00  0.00    -0.004 A 
ENDBRANCH  20  21
ENDBRANCH   5  20
ENDBRANCH   3   5
ENDBRANCH   1   2
BRANCH   1  27
ATOM     27  N   UNL     1      -9.334  15.039  66.405  0.00  0.00    -0.196 NA
ATOM     28  C   UNL     1      -9.663  16.259  66.996  0.00  0.00    +0.262 C 
ATOM     29  O   UNL     1     -10.782  16.624  66.662  0.00  0.00    -0.271 OA
BRANCH  28  30
ATOM     30  C   UNL     1      -9.050  16.726  68.410  0.00  0.00    +0.173 C 
BRANCH  30  31
ATOM     31  N   UNL     1      -9.034  18.249  68.020  0.00  0.00    -0.197 NA
ATOM     32  C   UNL     1      -7.945  18.825  67.416  0.00  0.00    +0.258 C 
ATOM     33  O   UNL     1      -7.211  18.120  66.700  0.00  0.00    -0.272 OA
BRANCH  32  34
ATOM     34  C   UNL     1      -8.042  20.278  67.075  0.00  0.00    +0.160 C 
BRANCH  34  35
ATOM     35  N   UNL     1      -6.887  21.028  67.538  0.00  0.00    -0.261 NA
ATOM     36  C   UNL     1      -6.360  20.506  68.752  0.00  0.00    +0.105 C 
ATOM     37  C   UNL     1      -4.896  20.729  68.965  0.00  0.00    +0.159 C 
ATOM     38  O   UNL     1      -4.254  20.221  67.823  0.00  0.00    -0.351 OA
ATOM     39  C   UNL     1      -4.519  21.170  66.829  0.00  0.00    +0.159 C 
ATOM     40  C   UNL     1      -5.964  21.183  66.463  0.00  0.00    +0.105 C 
ENDBRANCH  34  35
ENDBRANCH  32  34
ENDBRANCH  30  31
BRANCH  30  41
ATOM     41  C   UNL     1     -10.497  16.808  69.190  0.00  0.00    +0.036 C 
BRANCH  41  42
ATOM     42  C   UNL     1     -10.661  15.663  70.076  0.00  0.00    +0.029 C 
BRANCH  42  43
ATOM     43  C   UNL     1     -11.843  15.653  70.939  0.00  0.00    -0.022 A 
ATOM     44  C   UNL     1     -11.678  16.131  72.231  0.00  0.00    -0.004 A 
ATOM     45  C   UNL     1     -12.611  15.806  73.184  0.00  0.00    -0.000 A 
ATOM     46  C   UNL     1     -13.803  15.252  72.729  0.00  0.00    -0.000 A 
ATOM     47  C   UNL     1     -14.136  15.322  71.383  0.00  0.00    -0.000 A 
ATOM     48  C   UNL     1     -13.114  15.437  70.447  0.00  0.00    -0.004 A 
ENDBRANCH  42  43
ENDBRANCH  41  42
ENDBRANCH  30  41
ENDBRANCH  28  30
ENDBRANCH   1  27
BRANCH   1  49
ATOM     49  C   UNL     1     -10.372  13.475  64.963  0.00  0.00    +0.031 C 
BRANCH  49  51
ATOM     50  C   UNL     1     -12.086  12.455  63.769  0.00  0.00    +0.000 C 
ATOM     51  C   UNL     1     -11.749  12.987  64.769  0.00  0.00    +0.002 C 
ATOM     52  C   UNL     1     -12.677  13.777  65.628  0.00  0.00    +0.000 C 
ENDBRANCH  49  51
ENDBRANCH   1  49
TORSDOF 20
ENDMDL
MODEL 3
REMARK VINA RESULT:      -5.9      2.952      4.757
REMARK  Name = 
REMARK  20 active torsions:
REMARK  status: ('A' for Active; 'I' for Inactive)
REMARK    1  A    between atoms: C_2  and  C_4
REMARK    2  A    between atoms: C_4  and  C_5
REMARK    3  A    between atoms: C_5  and  N_6
REMARK    4  A    between atoms: C_5  and  C_28
REMARK    5  A    between atoms: C_7  and  C_9
REMARK    6  A    between atoms: C_9  and  C_10
REMARK    7  A    between atoms: C_9  and  N_18
REMARK    8  A    between atoms: C_10  and  C_11
REMARK    9  A    between atoms: C_11  and  C_12
REMARK   10  A    between atoms: C_19  and  C_21
REMARK   11  A    between atoms: C_21  and  N_22
REMARK   12  A    between atoms: N_30  and  C_31
REMARK   13  A    between atoms: C_31  and  C_32
REMARK   14  A    between atoms: C_31  and  C_39
REMARK   15  A    between atoms: C_32  and  C_33
REMARK   16  A    between atoms: N_41  and  C_42
REMARK   17  A    between atoms: C_42  and  C_43
REMARK   18  A    between atoms: C_42  and  C_47
REMARK   19  A    between atoms: C_43  and  C_44
REMARK   20  A    between atoms: C_47  and  C_49
REMARK                            x       y       z     vdW  Elec       q    Type
REMARK                         _______ _______ _______ _____ _____    ______ ____
ROOT
ATOM      1  C   UNL     1     -10.372  13.480  66.251  0.00  0.00    +0.173 C 
ENDROOT
BRANCH   1   2
ATOM      2  C   UNL     1      -9.198  12.565  66.870  0.00  0.00    +0.262 C 
ATOM      3  N   UNL     1      -9.110  11.236  66.944  0.00  0.00    -0.196 NA
ATOM      4  O   UNL     1      -8.772  13.152  67.918  0.00  0.00    -0.271 OA
BRANCH   3   5
ATOM      5  C   UNL     1      -9.504  10.399  68.229  0.00  0.00    +0.177 C 
BRANCH   5   6
ATOM      6  C   UNL     1      -9.190   8.940  67.632  0.00  0.00    +0.262 C 
ATOM      7  N   UNL     1      -9.977   7.869  67.563  0.00  0.00    -0.198 NA
ATOM      8  O   UNL     1      -7.985   8.752  68.008  0.00  0.00    -0.271 OA
BRANCH   7   9
ATOM      9  C   UNL     1      -9.516   6.519  68.242  0.00  0.00    +0.155 C 
BRANCH   9  10
ATOM     10  C   UNL     1      -9.778   5.627  66.928  0.00  0.00    +0.197 C 
ATOM     11  O   UNL     1     -10.848   5.652  66.422  0.00  0.00    -0.292 OA
BRANCH  10  12
ATOM     12  C   UNL     1      -8.864   4.456  66.924  0.00  0.00    +0.172 C 
ATOM     13  O   UNL     1      -7.490   4.730  67.364  0.00  0.00    -0.346 OA
ATOM     14  C   UNL     1      -7.688   4.437  66.022  0.00  0.00    +0.177 C 
ATOM     15  C   UNL     1      -9.317   3.179  67.593  0.00  0.00    +0.040 C 
ENDBRANCH  10  12
ENDBRANCH   9  10
BRANCH   9  16
ATOM     16  C   UNL     1     -11.012   6.248  68.871  0.00  0.00    +0.029 C 
BRANCH  16  17
ATOM     17  C   UNL     1     -10.669   5.870  70.250  0.00  0.00    +0.002 C 
ATOM     18  C   UNL     1      -9.275   5.550  70.571  0.00  0.00    +0.000 C 
ATOM     19  C   UNL     1     -11.593   6.223  71.329  0.00  0.00    +0.000 C 
ENDBRANCH  16  17
ENDBRANCH   9  16
ENDBRANCH   7   9
ENDBRANCH   5   6
BRANCH   5  20
ATOM     20  C   UNL     1     -11.111  10.462  67.916  0.00  0.00    +0.057 C 
BRANCH  20  21
ATOM     21  C   UNL     1     -11.898  10.729  69.085  0.00  0.00    -0.020 A 
ATOM     22  C   UNL     1     -11.992  11.962  69.733  0.00  0.00    -0.004 A 
ATOM     23  C   UNL     1     -12.567  12.104  70.970  0.00  0.00    -0.000 A 
ATOM     24  C   UNL     1     -12.867  10.943  71.674  0.00  0.00    -0.000 A 
ATOM     25  C   UNL     1     -12.497   9.691  71.195  0.00  0.00    -0.000 A 
ATOM     26  C   UNL     1     -11.680   9.747  70.068  0.00  0.00    -0.004 A 
ENDBRANCH  20  21
ENDBRANCH   5  20
ENDBRANCH   3   5
ENDBRANCH   1   2
BRANCH   1  27
ATOM     27  N   UNL     1      -9.486  14.720  65.834  0.00  0.00    -0.196 NA
ATOM     28  C   UNL     1     -10.072  15.980  65.715  0.00  0.00    +0.262 C 
ATOM     29  O   UNL     1     -11.033  15.951  64.959  0.00  0.00    -0.271 OA
BRANCH  28  30
ATOM     30  C   UNL     1     -10.003  17.078  66.890  0.00  0.00    +0.173 C 
BRANCH  30  31
ATOM     31  N   UNL     1     -10.476  16.073  68.002  0.00  0.00    -0.197 NA
ATOM     32  C   UNL     1     -10.550  16.443  69.321  0.00  0.00    +0.258 C 
ATOM     33  O   UNL     1     -10.774  17.635  69.600  0.00  0.00    -0.272 OA
BRANCH  32  34
ATOM     34  C   UNL     1     -11.027  15.412  70.294  0.00  0.00    +0.160 C 
BRANCH  34  35
ATOM     35  N   UNL     1     -12.085  15.919  71.153  0.00  0.00    -0.261 NA
ATOM     36  C   UNL     1     -13.361  15.401  70.797  0.00  0.00    +0.105 C 
ATOM     37  C   UNL     1     -14.350  15.304  71.915  0.00  0.00    +0.159 C 
ATOM     38  O   UNL     1     -13.720  14.567  72.930  0.00  0.00    -0.351 OA
ATOM     39  C   UNL     1     -12.794  15.460  73.480  0.00  0.00    +0.159 C 
ATOM     40  C   UNL     1     -11.699  15.766  72.515  0.00  0.00    +0.105 C 
ENDBRANCH  34  35
ENDBRANCH  32  34
ENDBRANCH  30  31
BRANCH  30  41
ATOM     41  C   UNL     1      -8.399  16.872  67.205  0.00  0.00    +0.036 C 
BRANCH  41  42
ATOM     42  C   UNL     1      -7.623  17.952  66.609  0.00  0.00    +0.029 C 
BRANCH  42  43
ATOM     43  C   UNL     1      -7.106  18.977  67.516  0.00  0.00    -0.022 A 
ATOM     44  C   UNL     1      -6.811  20.213  66.960  0.00  0.00    -0.004 A 
ATOM     45  C   UNL     1      -5.988  21.072  67.646  0.00  0.00    -0.000 A 
ATOM     46  C   UNL     1      -5.728  20.760  68.977  0.00  0.00    -0.000 A 
ATOM     47  C   UNL     1      -6.506  19.818  69.637  0.00  0.00    -0.000 A 
ATOM     48  C   UNL     1      -7.146  18.837  68.889  0.00  0.00    -0.004 A 
ENDBRANCH  42  43
ENDBRANCH  41  42
ENDBRANCH  30  41
ENDBRANCH  28  30
ENDBRANCH   1  27
BRANCH   1  49
ATOM     49  C   UNL     1     -10.324  12.783  64.762  0.00  0.00    +0.031 C 
BRANCH  49  51
ATOM     50  C   UNL     1     -12.608  12.817  65.193  0.00  0.00    +0.000 C 
ATOM     51  C   UNL     1     -11.745  12.622  64.408  0.00  0.00    +0.002 C 
ATOM     52  C   UNL     1     -11.866  11.649  63.285  0.00  0.00    +0.000 C 
ENDBRANCH  49  51
ENDBRANCH   1  49
TORSDOF 20
ENDMDL
MODEL 4
REMARK VINA RESULT:      -5.9      2.235      8.141
REMARK  Name = 
REMARK  20 active torsions:
REMARK  status: ('A' for Active; 'I' for Inactive)
REMARK    1  A    between atoms: C_2  and  C_4
REMARK    2  A    between atoms: C_4  and  C_5
REMARK    3  A    between atoms: C_5  and  N_6
REMARK    4  A    between atoms: C_5  and  C_28
REMARK    5  A    between atoms: C_7  and  C_9
REMARK    6  A    between atoms: C_9  and  C_10
REMARK    7  A    between atoms: C_9  and  N_18
REMARK    8  A    between atoms: C_10  and  C_11
REMARK    9  A    between atoms: C_11  and  C_12
REMARK   10  A    between atoms: C_19  and  C_21
REMARK   11  A    between atoms: C_21  and  N_22
REMARK   12  A    between atoms: N_30  and  C_31
REMARK   13  A    between atoms: C_31  and  C_32
REMARK   14  A    between atoms: C_31  and  C_39
REMARK   15  A    between atoms: C_32  and  C_33
REMARK   16  A    between atoms: N_41  and  C_42
REMARK   17  A    between atoms: C_42  and  C_43
REMARK   18  A    between atoms: C_42  and  C_47
REMARK   19  A    between atoms: C_43  and  C_44
REMARK   20  A    between atoms: C_47  and  C_49
REMARK                            x       y       z     vdW  Elec       q    Type
REMARK                         _______ _______ _______ _____ _____    ______ ____
ROOT
ATOM      1  C   UNL     1     -11.052  10.636  68.778  0.00  0.00    +0.173 C 
ENDROOT
BRANCH   1   2
ATOM      2  C   UNL     1     -11.101  11.978  67.887  0.00  0.00    +0.262 C 
ATOM      3  N   UNL     1     -10.769  13.227  68.217  0.00  0.00    -0.196 NA
ATOM      4  O   UNL     1     -12.150  11.916  67.165  0.00  0.00    -0.271 OA
BRANCH   3   5
ATOM      5  C   UNL     1     -11.814  14.320  68.688  0.00  0.00    +0.177 C 
BRANCH   5   6
ATOM      6  C   UNL     1     -11.158  15.576  67.930  0.00  0.00    +0.262 C 
ATOM      7  N   UNL     1      -9.939  15.708  67.413  0.00  0.00    -0.198 NA
ATOM      8  O   UNL     1     -11.613  16.561  68.603  0.00  0.00    -0.271 OA
BRANCH   7   9
ATOM      9  C   UNL     1      -9.004  16.880  67.911  0.00  0.00    +0.155 C 
BRANCH   9  10
ATOM     10  C   UNL     1      -9.000  17.642  66.493  0.00  0.00    +0.197 C 
ATOM     11  O   UNL     1      -8.379  17.180  65.595  0.00  0.00    -0.292 OA
BRANCH  10  12
ATOM     12  C   UNL     1      -9.242  19.093  66.699  0.00  0.00    +0.172 C 
ATOM     13  O   UNL     1     -10.360  19.422  67.593  0.00  0.00    -0.346 OA
ATOM     14  C   UNL     1     -10.512  19.705  66.242  0.00  0.00    +0.177 C 
ATOM     15  C   UNL     1      -8.075  19.977  67.075  0.00  0.00    +0.040 C 
ENDBRANCH  10  12
ENDBRANCH   9  10
BRANCH   9  16
ATOM     16  C   UNL     1      -7.641  16.018  67.588  0.00  0.00    +0.029 C 
BRANCH  16  17
ATOM     17  C   UNL     1      -6.940  16.114  68.878  0.00  0.00    +0.002 C 
ATOM     18  C   UNL     1      -6.179  17.329  69.182  0.00  0.00    +0.000 C 
ATOM     19  C   UNL     1      -7.347  15.228  69.969  0.00  0.00    +0.000 C 
ENDBRANCH  16  17
ENDBRANCH   9  16
ENDBRANCH   7   9
ENDBRANCH   5   6
BRANCH   5  20
ATOM     20  C   UNL     1     -11.117  14.516  70.158  0.00  0.00    +0.057 C 
BRANCH  20  21
ATOM     21  C   UNL     1     -12.073  14.734  71.205  0.00  0.00    -0.020 A 
ATOM     22  C   UNL     1     -13.458  14.789  71.037  0.00  0.00    -0.004 A 
ATOM     23  C   UNL     1     -14.304  15.228  72.022  0.00  0.00    -0.000 A 
ATOM     24  C   UNL     1     -13.732  15.832  73.136  0.00  0.00    -0.000 A 
ATOM     25  C   UNL     1     -12.365  16.083  73.200  0.00  0.00    -0.000 A 
ATOM     26  C   UNL     1     -11.697  15.828  72.004  0.00  0.00    -0.004 A 
ENDBRANCH  20  21
ENDBRANCH   5  20
ENDBRANCH   3   5
ENDBRANCH   1   2
BRANCH   1  27
ATOM     27  N   UNL     1      -9.501  10.631  69.082  0.00  0.00    -0.196 NA
ATOM     28  C   UNL     1      -8.690   9.642  68.525  0.00  0.00    +0.262 C 
ATOM     29  O   UNL     1      -9.114   8.525  68.786  0.00  0.00    -0.271 OA
BRANCH  28  30
ATOM     30  C   UNL     1      -7.826   9.887  67.189  0.00  0.00    +0.173 C 
BRANCH  30  31
ATOM     31  N   UNL     1      -9.091   9.982  66.261  0.00  0.00    -0.197 NA
ATOM     32  C   UNL     1      -8.993  10.378  64.951  0.00  0.00    +0.258 C 
ATOM     33  O   UNL     1      -7.937  10.152  64.332  0.00  0.00    -0.272 OA
BRANCH  32  34
ATOM     34  C   UNL     1     -10.258  10.419  64.154  0.00  0.00    +0.160 C 
BRANCH  34  35
ATOM     35  N   UNL     1     -10.535  11.749  63.637  0.00  0.00    -0.261 NA
ATOM     36  C   UNL     1     -11.918  11.942  63.366  0.00  0.00    +0.105 C 
ATOM     37  C   UNL     1     -12.402  13.354  63.470  0.00  0.00    +0.159 C 
ATOM     38  O   UNL     1     -12.022  13.803  64.746  0.00  0.00    -0.351 OA
ATOM     39  C   UNL     1     -10.642  14.009  64.641  0.00  0.00    +0.159 C 
ATOM     40  C   UNL     1      -9.913  12.719  64.474  0.00  0.00    +0.105 C 
ENDBRANCH  34  35
ENDBRANCH  32  34
ENDBRANCH  30  31
BRANCH  30  41
ATOM     41  C   UNL     1      -7.688  11.516  67.386  0.00  0.00    +0.036 C 
BRANCH  41  42
ATOM     42  C   UNL     1      -6.309  11.936  67.176  0.00  0.00    +0.029 C 
BRANCH  42  43
ATOM     43  C   UNL     1      -5.557  12.365  68.356  0.00  0.00    -0.022 A 
ATOM     44  C   UNL     1      -4.625  13.376  68.172  0.00  0.00    -0.004 A 
ATOM     45  C   UNL     1      -3.645  13.557  69.116  0.00  0.00    -0.000 A 
ATOM     46  C   UNL     1      -3.815  12.898  70.329  0.00  0.00    -0.000 A 
ATOM     47  C   UNL     1      -5.050  12.354  70.660  0.00  0.00    -0.000 A 
ATOM     48  C   UNL     1      -5.916  11.992  69.636  0.00  0.00    -0.004 A 
ENDBRANCH  42  43
ENDBRANCH  41  42
ENDBRANCH  30  41
ENDBRANCH  28  30
ENDBRANCH   1  27
BRANCH   1  49
ATOM     49  C   UNL     1     -11.455  11.386  70.186  0.00  0.00    +0.031 C 
BRANCH  49  51
ATOM     50  C   UNL     1     -12.005   9.179  70.665  0.00  0.00    +0.000 C 
ATOM     51  C   UNL     1     -12.077  10.315  70.983  0.00  0.00    +0.002 C 
ATOM     52  C   UNL     1     -13.224  10.877  71.752  0.00  0.00    +0.000 C 
ENDBRANCH  49  51
ENDBRANCH   1  49
TORSDOF 20
ENDMDL
MODEL 5
REMARK VINA RESULT:      -5.8      2.272      8.176
REMARK  Name = 
REMARK  20 active torsions:
REMARK  status: ('A' for Active; 'I' for Inactive)
REMARK    1  A    between atoms: C_2  and  C_4
REMARK    2  A    between atoms: C_4  and  C_5
REMARK    3  A    between atoms: C_5  and  N_6
REMARK    4  A    between atoms: C_5  and  C_28
REMARK    5  A    between atoms: C_7  and  C_9
REMARK    6  A    between atoms: C_9  and  C_10
REMARK    7  A    between atoms: C_9  and  N_18
REMARK    8  A    between atoms: C_10  and  C_11
REMARK    9  A    between atoms: C_11  and  C_12
REMARK   10  A    between atoms: C_19  and  C_21
REMARK   11  A    between atoms: C_21  and  N_22
REMARK   12  A    between atoms: N_30  and  C_31
REMARK   13  A    between atoms: C_31  and  C_32
REMARK   14  A    between atoms: C_31  and  C_39
REMARK   15  A    between atoms: C_32  and  C_33
REMARK   16  A    between atoms: N_41  and  C_42
REMARK   17  A    between atoms: C_42  and  C_43
REMARK   18  A    between atoms: C_42  and  C_47
REMARK   19  A    between atoms: C_43  and  C_44
REMARK   20  A    between atoms: C_47  and  C_49
REMARK                            x       y       z     vdW  Elec       q    Type
REMARK                         _______ _______ _______ _____ _____    ______ ____
ROOT
ATOM      1  C   UNL     1     -10.651  12.750  66.058  0.00  0.00    +0.173 C 
ENDROOT
BRANCH   1   2
ATOM      2  C   UNL     1     -10.134  14.220  66.467  0.00  0.00    +0.262 C 
ATOM      3  N   UNL     1     -10.002  14.767  67.676  0.00  0.00    -0.196 NA
ATOM      4  O   UNL     1     -10.585  15.036  65.597  0.00  0.00    -0.271 OA
BRANCH   3   5
ATOM      5  C   UNL     1     -11.087  15.712  68.337  0.00  0.00    +0.177 C 
BRANCH   5   6
ATOM      6  C   UNL     1     -10.312  17.103  68.120  0.00  0.00    +0.262 C 
ATOM      7  N   UNL     1      -9.158  17.339  67.500  0.00  0.00    -0.198 NA
ATOM      8  O   UNL     1     -10.503  17.692  69.236  0.00  0.00    -0.271 OA
BRANCH   7   9
ATOM      9  C   UNL     1      -7.978  18.033  68.289  0.00  0.00    +0.155 C 
BRANCH   9  10
ATOM     10  C   UNL     1      -7.583  19.015  67.077  0.00  0.00    +0.197 C 
ATOM     11  O   UNL     1      -7.580  18.589  65.971  0.00  0.00    -0.292 OA
BRANCH  10  12
ATOM     12  C   UNL     1      -6.693  20.096  67.573  0.00  0.00    +0.172 C 
ATOM     13  O   UNL     1      -7.052  21.452  67.140  0.00  0.00    -0.346 OA
ATOM     14  C   UNL     1      -5.894  20.896  66.615  0.00  0.00    +0.177 C 
ATOM     15  C   UNL     1      -6.372  20.151  69.049  0.00  0.00    +0.040 C 
ENDBRANCH  10  12
ENDBRANCH   9  10
BRANCH   9  16
ATOM     16  C   UNL     1      -6.909  16.863  67.849  0.00  0.00    +0.029 C 
BRANCH  16  17
ATOM     17  C   UNL     1      -6.649  16.222  69.148  0.00  0.00    +0.002 C 
ATOM     18  C   UNL     1      -7.027  14.818  69.334  0.00  0.00    +0.000 C 
ATOM     19  C   UNL     1      -5.669  16.829  70.050  0.00  0.00    +0.000 C 
ENDBRANCH  16  17
ENDBRANCH   9  16
ENDBRANCH   7   9
ENDBRANCH   5   6
BRANCH   5  20
ATOM     20  C   UNL     1     -10.602  15.386  69.869  0.00  0.00    +0.057 C 
BRANCH  20  21
ATOM     21  C   UNL     1     -11.688  15.024  70.732  0.00  0.00    -0.020 A 
ATOM     22  C   UNL     1     -13.044  15.174  70.434  0.00  0.00    -0.004 A 
ATOM     23  C   UNL     1     -14.028  15.029  71.379  0.00  0.00    -0.000 A 
ATOM     24  C   UNL     1     -13.631  14.942  72.708  0.00  0.00    -0.000 A 
ATOM     25  C   UNL     1     -12.301  15.107  73.078  0.00  0.00    -0.000 A 
ATOM     26  C   UNL     1     -11.481  15.520  72.031  0.00  0.00    -0.004 A 
ENDBRANCH  20  21
ENDBRANCH   5  20
ENDBRANCH   3   5
ENDBRANCH   1   2
BRANCH   1  27
ATOM     27  N   UNL     1     -11.746  12.582  67.186  0.00  0.00    -0.196 NA
ATOM     28  C   UNL     1     -11.721  11.459  68.013  0.00  0.00    +0.262 C 
ATOM     29  O   UNL     1     -11.717  10.426  67.355  0.00  0.00    -0.271 OA
BRANCH  28  30
ATOM     30  C   UNL     1     -11.064  11.483  69.482  0.00  0.00    +0.173 C 
BRANCH  30  31
ATOM     31  N   UNL     1     -11.932  10.282  70.006  0.00  0.00    -0.197 NA
ATOM     32  C   UNL     1     -12.563  10.329  71.224  0.00  0.00    +0.258 C 
ATOM     33  O   UNL     1     -12.916  11.433  71.676  0.00  0.00    -0.272 OA
BRANCH  32  34
ATOM     34  C   UNL     1     -13.376   9.137  71.618  0.00  0.00    +0.160 C 
BRANCH  34  35
ATOM     35  N   UNL     1     -12.544   7.993  71.952  0.00  0.00    -0.261 NA
ATOM     36  C   UNL     1     -12.497   7.038  70.900  0.00  0.00    +0.105 C 
ATOM     37  C   UNL     1     -11.249   6.215  70.834  0.00  0.00    +0.159 C 
ATOM     38  O   UNL     1     -10.182   7.128  70.797  0.00  0.00    -0.351 OA
ATOM     39  C   UNL     1     -10.102   7.616  72.106  0.00  0.00    +0.159 C 
ATOM     40  C   UNL     1     -11.289   8.452  72.445  0.00  0.00    +0.105 C 
ENDBRANCH  34  35
ENDBRANCH  32  34
ENDBRANCH  30  31
BRANCH  30  41
ATOM     41  C   UNL     1      -9.769  10.544  69.091  0.00  0.00    +0.036 C 
BRANCH  41  42
ATOM     42  C   UNL     1      -8.614  11.378  68.782  0.00  0.00    +0.029 C 
BRANCH  42  43
ATOM     43  C   UNL     1      -7.805  10.989  67.626  0.00  0.00    -0.022 A 
ATOM     44  C   UNL     1      -8.296   9.960  66.836  0.00  0.00    -0.004 A 
ATOM     45  C   UNL     1      -7.437   9.304  65.989  0.00  0.00    -0.000 A 
ATOM     46  C   UNL     1      -6.196   9.895  65.776  0.00  0.00    -0.000 A 
ATOM     47  C   UNL     1      -5.978  11.214  66.151  0.00  0.00    -0.000 A 
ATOM     48  C   UNL     1      -6.749  11.754  67.173  0.00  0.00    -0.004 A 
ENDBRANCH  42  43
ENDBRANCH  41  42
ENDBRANCH  30  41
ENDBRANCH  28  30
ENDBRANCH   1  27
BRANCH   1  49
ATOM     49  C   UNL     1     -11.717  13.284  64.925  0.00  0.00    +0.031 C 
BRANCH  49  51
ATOM     50  C   UNL     1     -12.649  11.849  63.352  0.00  0.00    +0.000 C 
ATOM     51  C   UNL     1     -11.670  12.241  63.886  0.00  0.00    +0.002 C 
ATOM     52  C   UNL     1     -10.456  11.400  64.086  0.00  0.00    +0.000 C 
ENDBRANCH  49  51
ENDBRANCH   1  49
TORSDOF 20
ENDMDL
MODEL 6
REMARK VINA RESULT:      -5.8      2.612      4.992
REMARK  Name = 
REMARK  20 active torsions:
REMARK  status: ('A' for Active; 'I' for Inactive)
REMARK    1  A    between atoms: C_2  and  C_4
REMARK    2  A    between atoms: C_4  and  C_5
REMARK    3  A    between atoms: C_5  and  N_6
REMARK    4  A    between atoms: C_5  and  C_28
REMARK    5  A    between atoms: C_7  and  C_9
REMARK    6  A    between atoms: C_9  and  C_10
REMARK    7  A    between atoms: C_9  and  N_18
REMARK    8  A    between atoms: C_10  and  C_11
REMARK    9  A    between atoms: C_11  and  C_12
REMARK   10  A    between atoms: C_19  and  C_21
REMARK   11  A    between atoms: C_21  and  N_22
REMARK   12  A    between atoms: N_30  and  C_31
REMARK   13  A    between atoms: C_31  and  C_32
REMARK   14  A    between atoms: C_31  and  C_39
REMARK   15  A    between atoms: C_32  and  C_33
REMARK   16  A    between atoms: N_41  and  C_42
REMARK   17  A    between atoms: C_42  and  C_43
REMARK   18  A    between atoms: C_42  and  C_47
REMARK   19  A    between atoms: C_43  and  C_44
REMARK   20  A    between atoms: C_47  and  C_49
REMARK                            x       y       z     vdW  Elec       q    Type
REMARK                         _______ _______ _______ _____ _____    ______ ____
ROOT
ATOM      1  C   UNL     1     -11.372  12.400  67.314  0.00  0.00    +0.173 C 
ENDROOT
BRANCH   1   2
ATOM      2  C   UNL     1     -11.257  11.294  68.481  0.00  0.00    +0.262 C 
ATOM      3  N   UNL     1     -10.190  10.613  68.901  0.00  0.00    -0.196 NA
ATOM      4  O   UNL     1     -12.316  10.585  68.437  0.00  0.00    -0.271 OA
BRANCH   3   5
ATOM      5  C   UNL     1      -9.837   9.147  68.418  0.00  0.00    +0.177 C 
BRANCH   5   6
ATOM      6  C   UNL     1      -9.652   8.487  69.872  0.00  0.00    +0.262 C 
ATOM      7  N   UNL     1     -10.354   7.520  70.456  0.00  0.00    -0.198 NA
ATOM      8  O   UNL     1      -9.353   9.501  70.588  0.00  0.00    -0.271 OA
BRANCH   7   9
ATOM      9  C   UNL     1     -11.055   7.795  71.845  0.00  0.00    +0.155 C 
BRANCH   9  10
ATOM     10  C   UNL     1     -10.627   6.380  72.479  0.00  0.00    +0.197 C 
ATOM     11  O   UNL     1     -11.472   5.604  72.774  0.00  0.00    -0.292 OA
BRANCH  10  12
ATOM     12  C   UNL     1      -9.318   6.511  73.170  0.00  0.00    +0.172 C 
ATOM     13  O   UNL     1      -8.153   6.062  72.397  0.00  0.00    -0.346 OA
ATOM     14  C   UNL     1      -8.527   5.302  73.496  0.00  0.00    +0.177 C 
ATOM     15  C   UNL     1      -8.965   7.835  73.809  0.00  0.00    +0.040 C 
ENDBRANCH  10  12
ENDBRANCH   9  10
BRANCH   9  16
ATOM     16  C   UNL     1     -12.505   7.247  71.296  0.00  0.00    +0.029 C 
BRANCH  16  17
ATOM     17  C   UNL     1     -13.404   8.305  71.782  0.00  0.00    +0.002 C 
ATOM     18  C   UNL     1     -12.937   9.694  71.766  0.00  0.00    +0.000 C 
ATOM     19  C   UNL     1     -14.839   8.030  71.863  0.00  0.00    +0.000 C 
ENDBRANCH  16  17
ENDBRANCH   9  16
ENDBRANCH   7   9
ENDBRANCH   5   6
BRANCH   5  20
ATOM     20  C   UNL     1      -8.270   9.507  68.100  0.00  0.00    +0.057 C 
BRANCH  20  21
ATOM     21  C   UNL     1      -7.912   9.280  66.730  0.00  0.00    -0.020 A 
ATOM     22  C   UNL     1      -7.619  10.275  65.795  0.00  0.00    -0.004 A 
ATOM     23  C   UNL     1      -7.513  10.018  64.452  0.00  0.00    -0.000 A 
ATOM     24  C   UNL     1      -7.921   8.766  64.005  0.00  0.00    -0.000 A 
ATOM     25  C   UNL     1      -8.519   7.851  64.866  0.00  0.00    -0.000 A 
ATOM     26  C   UNL     1      -8.803   8.376  66.124  0.00  0.00    -0.004 A 
ENDBRANCH  20  21
ENDBRANCH   5  20
ENDBRANCH   3   5
ENDBRANCH   1   2
BRANCH   1  27
ATOM     27  N   UNL     1      -9.874  12.903  67.339  0.00  0.00    -0.196 NA
ATOM     28  C   UNL     1      -9.604  14.271  67.340  0.00  0.00    +0.262 C 
ATOM     29  O   UNL     1     -10.158  14.832  66.405  0.00  0.00    -0.271 OA
BRANCH  28  30
ATOM     30  C   UNL     1      -9.277  15.085  68.690  0.00  0.00    +0.173 C 
BRANCH  30  31
ATOM     31  N   UNL     1      -8.617  16.292  67.929  0.00  0.00    -0.197 NA
ATOM     32  C   UNL     1      -7.662  17.079  68.521  0.00  0.00    +0.258 C 
ATOM     33  O   UNL     1      -6.930  16.582  69.396  0.00  0.00    -0.272 OA
BRANCH  32  34
ATOM     34  C   UNL     1      -7.089  18.191  67.701  0.00  0.00    +0.160 C 
BRANCH  34  35
ATOM     35  N   UNL     1      -8.043  19.269  67.498  0.00  0.00    -0.261 NA
ATOM     36  C   UNL     1      -8.780  19.114  66.291  0.00  0.00    +0.105 C 
ATOM     37  C   UNL     1     -10.148  19.719  66.291  0.00  0.00    +0.159 C 
ATOM     38  O   UNL     1     -10.809  19.189  67.412  0.00  0.00    -0.351 OA
ATOM     39  C   UNL     1     -10.231  19.855  68.499  0.00  0.00    +0.159 C 
ATOM     40  C   UNL     1      -8.808  19.451  68.686  0.00  0.00    +0.105 C 
ENDBRANCH  34  35
ENDBRANCH  32  34
ENDBRANCH  30  31
BRANCH  30  41
ATOM     41  C   UNL     1     -10.757  15.800  68.805  0.00  0.00    +0.036 C 
BRANCH  41  42
ATOM     42  C   UNL     1     -10.954  16.344  70.142  0.00  0.00    +0.029 C 
BRANCH  42  43
ATOM     43  C   UNL     1     -11.883  15.629  71.019  0.00  0.00    -0.022 A 
ATOM     44  C   UNL     1     -12.115  16.184  72.269  0.00  0.00    -0.004 A 
ATOM     45  C   UNL     1     -12.655  15.397  73.257  0.00  0.00    -0.000 A 
ATOM     46  C   UNL     1     -13.188  14.175  72.861  0.00  0.00    -0.000 A 
ATOM     47  C   UNL     1     -13.435  13.924  71.517  0.00  0.00    -0.000 A 
ATOM     48  C   UNL     1     -12.694  14.610  70.562  0.00  0.00    -0.004 A 
ENDBRANCH  42  43
ENDBRANCH  41  42
ENDBRANCH  30  41
ENDBRANCH  28  30
ENDBRANCH   1  27
BRANCH   1  49
ATOM     49  C   UNL     1     -11.127  11.334  66.085  0.00  0.00    +0.031 C 
BRANCH  49  51
ATOM     50  C   UNL     1     -12.525  12.691  64.816  0.00  0.00    +0.000 C 
ATOM     51  C   UNL     1     -11.504  12.098  64.883  0.00  0.00    +0.002 C 
ATOM     52  C   UNL     1     -10.818  11.516  63.694  0.00  0.00    +0.000 C 
ENDBRANCH  49  51
ENDBRANCH   1  49
TORSDOF 20
ENDMDL
MODEL 7
REMARK VINA RESULT:      -5.8      2.484      3.737
REMARK  Name = 
REMARK  20 active torsions:
REMARK  status: ('A' for Active; 'I' for Inactive)
REMARK    1  A    between atoms: C_2  and  C_4
REMARK    2  A    between atoms: C_4  and  C_5
REMARK    3  A    between atoms: C_5  and  N_6
REMARK    4  A    between atoms: C_5  and  C_28
REMARK    5  A    between atoms: C_7  and  C_9
REMARK    6  A    between atoms: C_9  and  C_10
REMARK    7  A    between atoms: C_9  and  N_18
REMARK    8  A    between atoms: C_10  and  C_11
REMARK    9  A    between atoms: C_11  and  C_12
REMARK   10  A    between atoms: C_19  and  C_21
REMARK   11  A    between atoms: C_21  and  N_22
REMARK   12  A    between atoms: N_30  and  C_31
REMARK   13  A    between atoms: C_31  and  C_32
REMARK   14  A    between atoms: C_31  and  C_39
REMARK   15  A    between atoms: C_32  and  C_33
REMARK   16  A    between atoms: N_41  and  C_42
REMARK   17  A    between atoms: C_42  and  C_43
REMARK   18  A    between atoms: C_42  and  C_47
REMARK   19  A    between atoms: C_43  and  C_44
REMARK   20  A    between atoms: C_47  and  C_49
REMARK                            x       y       z     vdW  Elec       q    Type
REMARK                         _______ _______ _______ _____ _____    ______ ____
ROOT
ATOM      1  C   UNL     1     -10.974  13.730  66.374  0.00  0.00    +0.173 C 
ENDROOT
BRANCH   1   2
ATOM      2  C   UNL     1     -11.022  12.845  67.720  0.00  0.00    +0.262 C 
ATOM      3  N   UNL     1     -10.078  12.076  68.263  0.00  0.00    -0.196 NA
ATOM      4  O   UNL     1     -12.187  12.333  67.795  0.00  0.00    -0.271 OA
BRANCH   3   5
ATOM      5  C   UNL     1      -9.992  10.509  68.052  0.00  0.00    +0.177 C 
BRANCH   5   6
ATOM      6  C   UNL     1     -10.037  10.087  69.602  0.00  0.00    +0.262 C 
ATOM      7  N   UNL     1      -9.168   9.367  70.307  0.00  0.00    -0.198 NA
ATOM      8  O   UNL     1     -11.276   9.832  69.773  0.00  0.00    -0.271 OA
BRANCH   7   9
ATOM      9  C   UNL     1      -9.656   8.054  71.038  0.00  0.00    +0.155 C 
BRANCH   9  10
ATOM     10  C   UNL     1      -8.258   7.812  71.798  0.00  0.00    +0.197 C 
ATOM     11  O   UNL     1      -7.257   7.790  71.165  0.00  0.00    -0.292 OA
BRANCH  10  12
ATOM     12  C   UNL     1      -8.490   7.041  73.047  0.00  0.00    +0.172 C 
ATOM     13  O   UNL     1      -9.632   7.485  73.855  0.00  0.00    -0.346 OA
ATOM     14  C   UNL     1      -8.360   7.707  74.364  0.00  0.00    +0.177 C 
ATOM     15  C   UNL     1      -8.537   5.532  72.970  0.00  0.00    +0.040 C 
ENDBRANCH  10  12
ENDBRANCH   9  10
BRANCH   9  16
ATOM     16  C   UNL     1      -9.257   7.111  69.751  0.00  0.00    +0.029 C 
BRANCH  16  17
ATOM     17  C   UNL     1     -10.533   6.419  69.508  0.00  0.00    +0.002 C 
ATOM     18  C   UNL     1     -11.505   6.322  70.601  0.00  0.00    +0.000 C 
ATOM     19  C   UNL     1     -10.980   6.228  68.128  0.00  0.00    +0.000 C 
ENDBRANCH  16  17
ENDBRANCH   9  16
ENDBRANCH   7   9
ENDBRANCH   5   6
BRANCH   5  20
ATOM     20  C   UNL     1      -8.367  10.513  67.836  0.00  0.00    +0.057 C 
BRANCH  20  21
ATOM     21  C   UNL     1      -7.958   9.803  66.660  0.00  0.00    -0.020 A 
ATOM     22  C   UNL     1      -7.371  10.378  65.531  0.00  0.00    -0.004 A 
ATOM     23  C   UNL     1      -7.215   9.695  64.351  0.00  0.00    -0.000 A 
ATOM     24  C   UNL     1      -7.859   8.468  64.231  0.00  0.00    -0.000 A 
ATOM     25  C   UNL     1      -8.717   8.003  65.221  0.00  0.00    -0.000 A 
ATOM     26  C   UNL     1      -8.977   8.941  66.217  0.00  0.00    -0.004 A 
ENDBRANCH  20  21
ENDBRANCH   5  20
ENDBRANCH   3   5
ENDBRANCH   1   2
BRANCH   1  27
ATOM     27  N   UNL     1      -9.675  14.567  66.708  0.00  0.00    -0.196 NA
ATOM     28  C   UNL     1      -9.545  15.866  66.218  0.00  0.00    +0.262 C 
ATOM     29  O   UNL     1      -9.694  15.898  65.004  0.00  0.00    -0.271 OA
BRANCH  28  30
ATOM     30  C   UNL     1      -9.890  17.163  67.108  0.00  0.00    +0.173 C 
BRANCH  30  31
ATOM     31  N   UNL     1      -9.914  16.360  68.459  0.00  0.00    -0.197 NA
ATOM     32  C   UNL     1     -11.045  16.287  69.232  0.00  0.00    +0.258 C 
ATOM     33  O   UNL     1     -12.157  16.365  68.680  0.00  0.00    -0.272 OA
BRANCH  32  34
ATOM     34  C   UNL     1     -10.961  15.485  70.491  0.00  0.00    +0.160 C 
BRANCH  34  35
ATOM     35  N   UNL     1     -12.227  15.455  71.206  0.00  0.00    -0.261 NA
ATOM     36  C   UNL     1     -12.770  14.142  71.280  0.00  0.00    +0.105 C 
ATOM     37  C   UNL     1     -13.641  13.874  72.467  0.00  0.00    +0.159 C 
ATOM     38  O   UNL     1     -12.879  14.219  73.595  0.00  0.00    -0.351 OA
ATOM     39  C   UNL     1     -12.872  15.618  73.590  0.00  0.00    +0.159 C 
ATOM     40  C   UNL     1     -12.087  16.152  72.440  0.00  0.00    +0.105 C 
ENDBRANCH  34  35
ENDBRANCH  32  34
ENDBRANCH  30  31
BRANCH  30  41
ATOM     41  C   UNL     1      -8.329  17.657  67.279  0.00  0.00    +0.036 C 
BRANCH  41  42
ATOM     42  C   UNL     1      -8.172  18.423  68.509  0.00  0.00    +0.029 C 
BRANCH  42  43
ATOM     43  C   UNL     1      -7.179  19.497  68.501  0.00  0.00    -0.022 A 
ATOM     44  C   UNL     1      -7.186  20.347  67.404  0.00  0.00    -0.004 A 
ATOM     45  C   UNL     1      -6.075  21.114  67.150  0.00  0.00    -0.000 A 
ATOM     46  C   UNL     1      -5.125  21.193  68.162  0.00  0.00    -0.000 A 
ATOM     47  C   UNL     1      -5.441  20.780  69.450  0.00  0.00    -0.000 A 
ATOM     48  C   UNL     1      -6.443  19.832  69.620  0.00  0.00    -0.004 A 
ENDBRANCH  42  43
ENDBRANCH  41  42
ENDBRANCH  30  41
ENDBRANCH  28  30
ENDBRANCH   1  27
BRANCH   1  49
ATOM     49  C   UNL     1     -10.172  12.599  65.490  0.00  0.00    +0.031 C 
BRANCH  49  51
ATOM     50  C   UNL     1     -11.926  13.158  64.070  0.00  0.00    +0.000 C 
ATOM     51  C   UNL     1     -10.920  12.556  64.221  0.00  0.00    +0.002 C 
ATOM     52  C   UNL     1     -10.618  11.278  63.515  0.00  0.00    +0.000 C 
ENDBRANCH  49  51
ENDBRANCH   1  49
TORSDOF 20
ENDMDL
MODEL 8
REMARK VINA RESULT:      -5.8      2.905      5.982
REMARK  Name = 
REMARK  20 active torsions:
REMARK  status: ('A' for Active; 'I' for Inactive)
REMARK    1  A    between atoms: C_2  and  C_4
REMARK    2  A    between atoms: C_4  and  C_5
REMARK    3  A    between atoms: C_5  and  N_6
REMARK    4  A    between atoms: C_5  and  C_28
REMARK    5  A    between atoms: C_7  and  C_9
REMARK    6  A    between atoms: C_9  and  C_10
REMARK    7  A    between atoms: C_9  and  N_18
REMARK    8  A    between atoms: C_10  and  C_11
REMARK    9  A    between atoms: C_11  and  C_12
REMARK   10  A    between atoms: C_19  and  C_21
REMARK   11  A    between atoms: C_21  and  N_22
REMARK   12  A    between atoms: N_30  and  C_31
REMARK   13  A    between atoms: C_31  and  C_32
REMARK   14  A    between atoms: C_31  and  C_39
REMARK   15  A    between atoms: C_32  and  C_33
REMARK   16  A    between atoms: N_41  and  C_42
REMARK   17  A    between atoms: C_42  and  C_43
REMARK   18  A    between atoms: C_42  and  C_47
REMARK   19  A    between atoms: C_43  and  C_44
REMARK   20  A    between atoms: C_47  and  C_49
REMARK                            x       y       z     vdW  Elec       q    Type
REMARK                         _______ _______ _______ _____ _____    ______ ____
ROOT
ATOM      1  C   UNL     1     -11.010  13.943  65.640  0.00  0.00    +0.173 C 
ENDROOT
BRANCH   1   2
ATOM      2  C   UNL     1     -10.304  12.786  66.512  0.00  0.00    +0.262 C 
ATOM      3  N   UNL     1     -10.808  12.039  67.496  0.00  0.00    -0.196 NA
ATOM      4  O   UNL     1      -9.103  13.155  66.731  0.00  0.00    -0.271 OA
BRANCH   3   5
ATOM      5  C   UNL     1     -10.616  12.366  69.034  0.00  0.00    +0.177 C 
BRANCH   5   6
ATOM      6  C   UNL     1     -11.133  10.957  69.611  0.00  0.00    +0.262 C 
ATOM      7  N   UNL     1     -10.434   9.945  70.118  0.00  0.00    -0.198 NA
ATOM      8  O   UNL     1     -12.073  10.665  68.799  0.00  0.00    -0.271 OA
BRANCH   7   9
ATOM      9  C   UNL     1     -10.558   8.511  69.468  0.00  0.00    +0.155 C 
BRANCH   9  10
ATOM     10  C   UNL     1     -10.092   7.734  70.798  0.00  0.00    +0.197 C 
ATOM     11  O   UNL     1      -9.008   7.938  71.231  0.00  0.00    -0.292 OA
BRANCH  10  12
ATOM     12  C   UNL     1     -10.824   6.446  70.913  0.00  0.00    +0.172 C 
ATOM     13  O   UNL     1     -12.287   6.559  70.974  0.00  0.00    -0.346 OA
ATOM     14  C   UNL     1     -11.625   6.155  72.125  0.00  0.00    +0.177 C 
ATOM     15  C   UNL     1     -10.487   5.331  69.950  0.00  0.00    +0.040 C 
ENDBRANCH  10  12
ENDBRANCH   9  10
BRANCH   9  16
ATOM     16  C   UNL     1      -9.040   8.592  68.839  0.00  0.00    +0.029 C 
BRANCH  16  17
ATOM     17  C   UNL     1      -9.333   8.526  67.398  0.00  0.00    +0.002 C 
ATOM     18  C   UNL     1     -10.580   7.894  66.957  0.00  0.00    +0.000 C 
ATOM     19  C   UNL     1      -8.626   9.432  66.493  0.00  0.00    +0.000 C 
ENDBRANCH  16  17
ENDBRANCH   9  16
ENDBRANCH   7   9
ENDBRANCH   5   6
BRANCH   5  20
ATOM     20  C   UNL     1     -12.013  13.215  69.143  0.00  0.00    +0.057 C 
BRANCH  20  21
ATOM     21  C   UNL     1     -12.236  13.756  70.453  0.00  0.00    -0.020 A 
ATOM     22  C   UNL     1     -13.130  13.246  71.397  0.00  0.00    -0.004 A 
ATOM     23  C   UNL     1     -13.472  13.932  72.535  0.00  0.00    -0.000 A 
ATOM     24  C   UNL     1     -13.072  15.260  72.627  0.00  0.00    -0.000 A 
ATOM     25  C   UNL     1     -12.449  15.903  71.562  0.00  0.00    -0.000 A 
ATOM     26  C   UNL     1     -12.429  15.147  70.392  0.00  0.00    -0.004 A 
ENDBRANCH  20  21
ENDBRANCH   5  20
ENDBRANCH   3   5
ENDBRANCH   1   2
BRANCH   1  27
ATOM     27  N   UNL     1      -9.845  15.010  65.709  0.00  0.00    -0.196 NA
ATOM     28  C   UNL     1     -10.154  16.370  65.733  0.00  0.00    +0.262 C 
ATOM     29  O   UNL     1     -10.872  16.677  64.791  0.00  0.00    -0.271 OA
BRANCH  28  30
ATOM     30  C   UNL     1     -10.210  17.218  67.100  0.00  0.00    +0.173 C 
BRANCH  30  31
ATOM     31  N   UNL     1      -8.714  16.910  67.476  0.00  0.00    -0.197 NA
ATOM     32  C   UNL     1      -8.378  16.349  68.682  0.00  0.00    +0.258 C 
ATOM     33  O   UNL     1      -9.198  15.603  69.248  0.00  0.00    -0.272 OA
BRANCH  32  34
ATOM     34  C   UNL     1      -6.927  16.084  68.931  0.00  0.00    +0.160 C 
BRANCH  34  35
ATOM     35  N   UNL     1      -6.132  17.299  68.871  0.00  0.00    -0.261 NA
ATOM     36  C   UNL     1      -5.607  17.660  70.143  0.00  0.00    +0.105 C 
ATOM     37  C   UNL     1      -4.325  18.431  70.114  0.00  0.00    +0.159 C 
ATOM     38  O   UNL     1      -3.430  17.668  69.345  0.00  0.00    -0.351 OA
ATOM     39  C   UNL     1      -3.869  17.847  68.028  0.00  0.00    +0.159 C 
ATOM     40  C   UNL     1      -5.192  17.195  67.806  0.00  0.00    +0.105 C 
ENDBRANCH  34  35
ENDBRANCH  32  34
ENDBRANCH  30  31
BRANCH  30  41
ATOM     41  C   UNL     1      -9.869  18.669  66.400  0.00  0.00    +0.036 C 
BRANCH  41  42
ATOM     42  C   UNL     1      -9.157  19.529  67.336  0.00  0.00    +0.029 C 
BRANCH  42  43
ATOM     43  C   UNL     1      -7.810  19.955  66.954  0.00  0.00    -0.022 A 
ATOM     44  C   UNL     1      -7.003  20.459  67.964  0.00  0.00    -0.004 A 
ATOM     45  C   UNL     1      -5.905  21.211  67.624  0.00  0.00    -0.000 A 
ATOM     46  C   UNL     1      -5.518  21.186  66.289  0.00  0.00    -0.000 A 
ATOM     47  C   UNL     1      -6.025  20.216  65.434  0.00  0.00    -0.000 A 
ATOM     48  C   UNL     1      -7.257  19.644  65.728  0.00  0.00    -0.004 A 
ENDBRANCH  42  43
ENDBRANCH  41  42
ENDBRANCH  30  41
ENDBRANCH  28  30
ENDBRANCH   1  27
BRANCH   1  49
ATOM     49  C   UNL     1     -10.538  13.334  64.187  0.00  0.00    +0.031 C 
BRANCH  49  51
ATOM     50  C   UNL     1     -10.763  11.071  63.708  0.00  0.00    +0.000 C 
ATOM     51  C   UNL     1     -11.279  12.065  64.086  0.00  0.00    +0.002 C 
ATOM     52  C   UNL     1     -12.730  12.355  63.900  0.00  0.00    +0.000 C 
ENDBRANCH  49  51
ENDBRANCH   1  49
TORSDOF 20
ENDMDL
MODEL 9
REMARK VINA RESULT:      -5.7      2.229      8.670
REMARK  Name = 
REMARK  20 active torsions:
REMARK  status: ('A' for Active; 'I' for Inactive)
REMARK    1  A    between atoms: C_2  and  C_4
REMARK    2  A    between atoms: C_4  and  C_5
REMARK    3  A    between atoms: C_5  and  N_6
REMARK    4  A    between atoms: C_5  and  C_28
REMARK    5  A    between atoms: C_7  and  C_9
REMARK    6  A    between atoms: C_9  and  C_10
REMARK    7  A    between atoms: C_9  and  N_18
REMARK    8  A    between atoms: C_10  and  C_11
REMARK    9  A    between atoms: C_11  and  C_12
REMARK   10  A    between atoms: C_19  and  C_21
REMARK   11  A    between atoms: C_21  and  N_22
REMARK   12  A    between atoms: N_30  and  C_31
REMARK   13  A    between atoms: C_31  and  C_32
REMARK   14  A    between atoms: C_31  and  C_39
REMARK   15  A    between atoms: C_32  and  C_33
REMARK   16  A    between atoms: N_41  and  C_42
REMARK   17  A    between atoms: C_42  and  C_43
REMARK   18  A    between atoms: C_42  and  C_47
REMARK   19  A    between atoms: C_43  and  C_44
REMARK   20  A    between atoms: C_47  and  C_49
REMARK                            x       y       z     vdW  Elec       q    Type
REMARK                         _______ _______ _______ _____ _____    ______ ____
ROOT
ATOM      1  C   UNL     1     -11.537   9.823  69.008  0.00  0.00    +0.173 C 
ENDROOT
BRANCH   1   2
ATOM      2  C   UNL     1     -11.235  11.226  68.274  0.00  0.00    +0.262 C 
ATOM      3  N   UNL     1     -10.943  12.414  68.805  0.00  0.00    -0.196 NA
ATOM      4  O   UNL     1     -12.020  11.307  67.272  0.00  0.00    -0.271 OA
BRANCH   3   5
ATOM      5  C   UNL     1     -12.013  13.555  69.049  0.00  0.00    +0.177 C 
BRANCH   5   6
ATOM      6  C   UNL     1     -11.394  14.642  68.040  0.00  0.00    +0.262 C 
ATOM      7  N   UNL     1     -11.818  15.013  66.835  0.00  0.00    -0.198 NA
ATOM      8  O   UNL     1     -10.139  14.452  68.181  0.00  0.00    -0.271 OA
BRANCH   7   9
ATOM      9  C   UNL     1     -10.851  14.881  65.593  0.00  0.00    +0.155 C 
BRANCH   9  10
ATOM     10  C   UNL     1     -10.966  16.432  65.183  0.00  0.00    +0.197 C 
ATOM     11  O   UNL     1     -11.389  16.713  64.112  0.00  0.00    -0.292 OA
BRANCH  10  12
ATOM     12  C   UNL     1      -9.962  17.229  65.934  0.00  0.00    +0.172 C 
ATOM     13  O   UNL     1     -10.431  17.787  67.209  0.00  0.00    -0.346 OA
ATOM     14  C   UNL     1     -10.189  18.674  66.170  0.00  0.00    +0.177 C 
ATOM     15  C   UNL     1      -8.591  16.636  66.166  0.00  0.00    +0.040 C 
ENDBRANCH  10  12
ENDBRANCH   9  10
BRANCH   9  16
ATOM     16  C   UNL     1     -12.077  14.404  64.606  0.00  0.00    +0.029 C 
BRANCH  16  17
ATOM     17  C   UNL     1     -11.617  13.060  64.221  0.00  0.00    +0.002 C 
ATOM     18  C   UNL     1     -12.525  12.189  63.469  0.00  0.00    +0.000 C 
ATOM     19  C   UNL     1     -10.180  12.783  64.209  0.00  0.00    +0.000 C 
ENDBRANCH  16  17
ENDBRANCH   9  16
ENDBRANCH   7   9
ENDBRANCH   5   6
BRANCH   5  20
ATOM     20  C   UNL     1     -11.313  14.070  70.439  0.00  0.00    +0.057 C 
BRANCH  20  21
ATOM     21  C   UNL     1     -12.267  14.512  71.414  0.00  0.00    -0.020 A 
ATOM     22  C   UNL     1     -13.609  14.802  71.159  0.00  0.00    -0.004 A 
ATOM     23  C   UNL     1     -14.412  15.439  72.070  0.00  0.00    -0.000 A 
ATOM     24  C   UNL     1     -13.799  15.993  73.188  0.00  0.00    -0.000 A 
ATOM     25  C   UNL     1     -12.415  16.001  73.323  0.00  0.00    -0.000 A 
ATOM     26  C   UNL     1     -11.743  15.566  72.184  0.00  0.00    -0.004 A 
ENDBRANCH  20  21
ENDBRANCH   5  20
ENDBRANCH   3   5
ENDBRANCH   1   2
BRANCH   1  27
ATOM     27  N   UNL     1     -10.121   9.154  68.795  0.00  0.00    -0.196 NA
ATOM     28  C   UNL     1     -10.036   7.802  68.465  0.00  0.00    +0.262 C 
ATOM     29  O   UNL     1     -10.645   7.112  69.272  0.00  0.00    -0.271 OA
BRANCH  28  30
ATOM     30  C   UNL     1      -9.845   7.293  66.950  0.00  0.00    +0.173 C 
BRANCH  30  31
ATOM     31  N   UNL     1      -8.757   8.377  66.612  0.00  0.00    -0.197 NA
ATOM     32  C   UNL     1      -8.892   9.220  65.538  0.00  0.00    +0.258 C 
ATOM     33  O   UNL     1     -10.036   9.525  65.154  0.00  0.00    -0.272 OA
BRANCH  32  34
ATOM     34  C   UNL     1      -7.806  10.223  65.316  0.00  0.00    +0.160 C 
BRANCH  34  35
ATOM     35  N   UNL     1      -7.203  10.661  66.564  0.00  0.00    -0.261 NA
ATOM     36  C   UNL     1      -5.782  10.610  66.521  0.00  0.00    +0.105 C 
ATOM     37  C   UNL     1      -5.076  11.589  67.406  0.00  0.00    +0.159 C 
ATOM     38  O   UNL     1      -5.593  12.853  67.077  0.00  0.00    -0.351 OA
ATOM     39  C   UNL     1      -6.870  12.862  67.648  0.00  0.00    +0.159 C 
ATOM     40  C   UNL     1      -7.779  11.903  66.956  0.00  0.00    +0.105 C 
ENDBRANCH  34  35
ENDBRANCH  32  34
ENDBRANCH  30  31
BRANCH  30  41
ATOM     41  C   UNL     1      -8.748   6.120  67.315  0.00  0.00    +0.036 C 
BRANCH  41  42
ATOM     42  C   UNL     1      -7.525   6.715  67.837  0.00  0.00    +0.029 C 
BRANCH  42  43
ATOM     43  C   UNL     1      -7.060   6.241  69.141  0.00  0.00    -0.022 A 
ATOM     44  C   UNL     1      -7.494   4.985  69.541  0.00  0.00    -0.004 A 
ATOM     45  C   UNL     1      -7.417   4.647  70.870  0.00  0.00    -0.000 A 
ATOM     46  C   UNL     1      -6.653   5.478  71.683  0.00  0.00    -0.000 A 
ATOM     47  C   UNL     1      -5.780   6.399  71.117  0.00  0.00    -0.000 A 
ATOM     48  C   UNL     1      -6.042   6.865  69.834  0.00  0.00    -0.004 A 
ENDBRANCH  42  43
ENDBRANCH  41  42
ENDBRANCH  30  41
ENDBRANCH  28  30
ENDBRANCH   1  27
BRANCH   1  49
ATOM     49  C   UNL     1     -11.191  10.375  70.518  0.00  0.00    +0.031 C 
BRANCH  49  51
ATOM     50  C   UNL     1     -13.096  10.974  71.707  0.00  0.00    +0.000 C 
ATOM     51  C   UNL     1     -12.423  10.102  71.278  0.00  0.00    +0.002 C 
ATOM     52  C   UNL     1     -12.321   8.758  71.915  0.00  0.00    +0.000 C 
ENDBRANCH  49  51
ENDBRANCH   1  49
TORSDOF 20
ENDMDL
