MODEL 1
REMARK VINA RESULT:      -6.3      0.000      0.000
REMARK  Name = 
REMARK  5 active torsions:
REMARK  status: ('A' for Active; 'I' for Inactive)
REMARK    1  A    between atoms: C_2  and  C_3
REMARK    2  A    between atoms: C_2  and  C_10
REMARK    3  A    between atoms: C_10  and  C_12
REMARK    4  A    between atoms: C_10  and  C_18
REMARK    5  A    between atoms: C_12  and  N_13
REMARK                            x       y       z     vdW  Elec       q    Type
REMARK                         _______ _______ _______ _____ _____    ______ ____
ROOT
ATOM      1  C   UNL     1     -10.214  16.094  67.720  0.00  0.00    +0.175 C 
ATOM      2  O   UNL     1      -9.359  15.702  68.694  0.00  0.00    -0.219 OA
ENDROOT
BRANCH   1   3
ATOM      3  C   UNL     1     -10.107  17.591  67.672  0.00  0.00    +0.035 A 
ATOM      4  C   UNL     1     -10.363  18.324  66.540  0.00  0.00    +0.141 A 
ATOM      5  F   UNL     1     -10.877  17.731  65.455  0.00  0.00    -0.204 F 
ATOM      6  C   UNL     1      -9.587  19.455  66.321  0.00  0.00    +0.059 A 
ATOM      7  C   UNL     1      -8.802  19.984  67.336  0.00  0.00    +0.142 A 
ATOM      8  F   UNL     1      -7.732  20.779  67.091  0.00  0.00    -0.204 F 
ATOM      9  C   UNL     1      -8.985  19.484  68.612  0.00  0.00    +0.030 A 
ATOM     10  C   UNL     1      -9.749  18.336  68.789  0.00  0.00    +0.003 A 
ENDBRANCH   1   3
BRANCH   1  12
ATOM     11  C   UNL     1      -8.429  14.679  66.866  0.00  0.00    +0.009 C 
ATOM     12  C   UNL     1      -9.661  15.600  66.256  0.00  0.00    +0.077 C 
BRANCH  12  13
ATOM     13  C   UNL     1     -10.726  14.393  66.090  0.00  0.00    +0.092 A 
ATOM     14  C   UNL     1     -10.300  13.119  66.295  0.00  0.00    +0.173 A 
ATOM     15  F   UNL     1      -9.635  12.993  67.484  0.00  0.00    -0.201 F 
ATOM     16  C   UNL     1     -11.109  12.096  65.815  0.00  0.00    +0.131 A 
ATOM     17  N   UNL     1     -11.629  12.279  64.587  0.00  0.00    -0.220 NA
ATOM     18  C   UNL     1     -11.908  13.552  64.238  0.00  0.00    +0.199 A 
ATOM     19  N   UNL     1     -11.375  14.594  64.911  0.00  0.00    -0.226 NA
ENDBRANCH  12  13
ENDBRANCH   1  12
BRANCH   1  20
ATOM     20  C   UNL     1     -11.635  15.765  67.877  0.00  0.00    +0.164 C 
BRANCH  20  21
ATOM     21  N   UNL     1     -11.791  15.189  69.209  0.00  0.00    -0.227 N 
ATOM     22  N   UNL     1     -12.099  13.903  69.385  0.00  0.00    -0.145 NA
ATOM     23  C   UNL     1     -12.290  13.717  70.713  0.00  0.00    +0.221 A 
ATOM     24  N   UNL     1     -12.679  14.937  71.155  0.00  0.00    -0.201 NA
ATOM     25  C   UNL     1     -12.109  15.860  70.344  0.00  0.00    +0.197 A 
ENDBRANCH  20  21
ENDBRANCH   1  20
TORSDOF 5
ENDMDL
MODEL 2
REMARK VINA RESULT:      -6.3      2.458      5.486
REMARK  Name = 
REMARK  5 active torsions:
REMARK  status: ('A' for Active; 'I' for Inactive)
REMARK    1  A    between atoms: C_2  and  C_3
REMARK    2  A    between atoms: C_2  and  C_10
REMARK    3  A    between atoms: C_10  and  C_12
REMARK    4  A    between atoms: C_10  and  C_18
REMARK    5  A    between atoms: C_12  and  N_13
REMARK                            x       y       z     vdW  Elec       q    Type
REMARK                         _______ _______ _______ _____ _____    ______ ____
ROOT
ATOM      1  C   UNL     1     -10.416  15.064  68.650  0.00  0.00    +0.175 C 
ATOM      2  O   UNL     1      -9.811  13.878  68.398  0.00  0.00    -0.219 OA
ENDROOT
BRANCH   1   3
ATOM      3  C   UNL     1     -11.235  14.840  69.888  0.00  0.00    +0.035 A 
ATOM      4  C   UNL     1     -12.063  13.757  70.052  0.00  0.00    +0.141 A 
ATOM      5  F   UNL     1     -12.053  12.760  69.158  0.00  0.00    -0.204 F 
ATOM      6  C   UNL     1     -13.249  13.957  70.746  0.00  0.00    +0.059 A 
ATOM      7  C   UNL     1     -13.448  15.111  71.492  0.00  0.00    +0.142 A 
ATOM      8  F   UNL     1     -14.683  15.562  71.820  0.00  0.00    -0.204 F 
ATOM      9  C   UNL     1     -12.358  15.938  71.693  0.00  0.00    +0.030 A 
ATOM     10  C   UNL     1     -11.196  15.721  70.962  0.00  0.00    +0.003 A 
ENDBRANCH   1   3
BRANCH   1  12
ATOM     11  C   UNL     1      -8.045  15.467  68.286  0.00  0.00    +0.009 C 
ATOM     12  C   UNL     1      -9.299  16.179  69.098  0.00  0.00    +0.077 C 
BRANCH  12  13
ATOM     13  C   UNL     1      -9.678  17.248  67.944  0.00  0.00    +0.092 A 
ATOM     14  C   UNL     1      -8.738  17.561  67.014  0.00  0.00    +0.173 A 
ATOM     15  F   UNL     1      -8.192  16.441  66.449  0.00  0.00    -0.201 F 
ATOM     16  C   UNL     1      -8.950  18.711  66.263  0.00  0.00    +0.131 A 
ATOM     17  N   UNL     1      -9.389  19.789  66.940  0.00  0.00    -0.220 NA
ATOM     18  C   UNL     1     -10.187  19.544  68.001  0.00  0.00    +0.199 A 
ATOM     19  N   UNL     1     -10.246  18.319  68.563  0.00  0.00    -0.226 NA
ENDBRANCH  12  13
ENDBRANCH   1  12
BRANCH   1  20
ATOM     20  C   UNL     1     -11.314  15.610  67.628  0.00  0.00    +0.164 C 
BRANCH  20  21
ATOM     21  N   UNL     1     -11.368  14.632  66.546  0.00  0.00    -0.227 N 
ATOM     22  N   UNL     1     -10.550  14.703  65.494  0.00  0.00    -0.145 NA
ATOM     23  C   UNL     1     -10.933  13.737  64.625  0.00  0.00    +0.221 A 
ATOM     24  N   UNL     1     -12.250  13.568  64.893  0.00  0.00    -0.201 NA
ATOM     25  C   UNL     1     -12.437  13.873  66.199  0.00  0.00    +0.197 A 
ENDBRANCH  20  21
ENDBRANCH   1  20
TORSDOF 5
ENDMDL
MODEL 3
REMARK VINA RESULT:      -6.2      2.087      5.422
REMARK  Name = 
REMARK  5 active torsions:
REMARK  status: ('A' for Active; 'I' for Inactive)
REMARK    1  A    between atoms: C_2  and  C_3
REMARK    2  A    between atoms: C_2  and  C_10
REMARK    3  A    between atoms: C_10  and  C_12
REMARK    4  A    between atoms: C_10  and  C_18
REMARK    5  A    between atoms: C_12  and  N_13
REMARK                            x       y       z     vdW  Elec       q    Type
REMARK                         _______ _______ _______ _____ _____    ______ ____
ROOT
ATOM      1  C   UNL     1     -10.692  15.124  67.514  0.00  0.00    +0.175 C 
ATOM      2  O   UNL     1     -11.880  15.775  67.491  0.00  0.00    -0.219 OA
ENDROOT
BRANCH   1   3
ATOM      3  C   UNL     1     -10.928  13.835  66.781  0.00  0.00    +0.035 A 
ATOM      4  C   UNL     1      -9.916  12.973  66.439  0.00  0.00    +0.141 A 
ATOM      5  F   UNL     1      -8.673  13.180  66.891  0.00  0.00    -0.204 F 
ATOM      6  C   UNL     1     -10.034  12.294  65.232  0.00  0.00    +0.059 A 
ATOM      7  C   UNL     1     -11.244  12.260  64.554  0.00  0.00    +0.142 A 
ATOM      8  F   UNL     1     -11.326  12.009  63.224  0.00  0.00    -0.204 F 
ATOM      9  C   UNL     1     -12.362  12.731  65.216  0.00  0.00    +0.030 A 
ATOM     10  C   UNL     1     -12.203  13.426  66.409  0.00  0.00    +0.003 A 
ENDBRANCH   1   3
BRANCH   1  12
ATOM     11  C   UNL     1     -10.570  16.012  65.253  0.00  0.00    +0.009 C 
ATOM     12  C   UNL     1      -9.597  15.923  66.589  0.00  0.00    +0.077 C 
BRANCH  12  13
ATOM     13  C   UNL     1      -9.951  17.393  67.168  0.00  0.00    +0.092 A 
ATOM     14  C   UNL     1     -10.098  18.419  66.290  0.00  0.00    +0.173 A 
ATOM     15  F   UNL     1     -10.960  18.098  65.277  0.00  0.00    -0.201 F 
ATOM     16  C   UNL     1     -10.051  19.707  66.809  0.00  0.00    +0.131 A 
ATOM     17  N   UNL     1      -9.093  19.942  67.726  0.00  0.00    -0.220 NA
ATOM     18  C   UNL     1      -8.759  18.904  68.521  0.00  0.00    +0.199 A 
ATOM     19  N   UNL     1      -9.087  17.637  68.190  0.00  0.00    -0.226 NA
ENDBRANCH  12  13
ENDBRANCH   1  12
BRANCH   1  20
ATOM     20  C   UNL     1     -10.118  14.783  68.820  0.00  0.00    +0.164 C 
BRANCH  20  21
ATOM     21  N   UNL     1     -11.179  14.958  69.807  0.00  0.00    -0.227 N 
ATOM     22  N   UNL     1     -11.213  16.015  70.620  0.00  0.00    -0.145 NA
ATOM     23  C   UNL     1     -12.236  15.820  71.486  0.00  0.00    +0.221 A 
ATOM     24  N   UNL     1     -12.351  14.472  71.547  0.00  0.00    -0.201 NA
ATOM     25  C   UNL     1     -11.938  13.978  70.356  0.00  0.00    +0.197 A 
ENDBRANCH  20  21
ENDBRANCH   1  20
TORSDOF 5
ENDMDL
MODEL 4
REMARK VINA RESULT:      -6.2      1.414      1.669
REMARK  Name = 
REMARK  5 active torsions:
REMARK  status: ('A' for Active; 'I' for Inactive)
REMARK    1  A    between atoms: C_2  and  C_3
REMARK    2  A    between atoms: C_2  and  C_10
REMARK    3  A    between atoms: C_10  and  C_12
REMARK    4  A    between atoms: C_10  and  C_18
REMARK    5  A    between atoms: C_12  and  N_13
REMARK                            x       y       z     vdW  Elec       q    Type
REMARK                         _______ _______ _______ _____ _____    ______ ____
ROOT
ATOM      1  C   UNL     1     -10.015  15.418  68.115  0.00  0.00    +0.175 C 
ATOM      2  O   UNL     1      -9.340  15.022  69.221  0.00  0.00    -0.219 OA
ENDROOT
BRANCH   1   3
ATOM      3  C   UNL     1      -9.563  16.826  67.854  0.00  0.00    +0.035 A 
ATOM      4  C   UNL     1      -9.903  17.884  68.660  0.00  0.00    +0.141 A 
ATOM      5  F   UNL     1     -10.536  17.669  69.820  0.00  0.00    -0.204 F 
ATOM      6  C   UNL     1     -10.126  19.110  68.048  0.00  0.00    +0.059 A 
ATOM      7  C   UNL     1      -9.735  19.328  66.734  0.00  0.00    +0.142 A 
ATOM      8  F   UNL     1     -10.285  20.297  65.961  0.00  0.00    -0.204 F 
ATOM      9  C   UNL     1      -8.934  18.372  66.138  0.00  0.00    +0.030 A 
ATOM     10  C   UNL     1      -8.754  17.147  66.770  0.00  0.00    +0.003 A 
ENDBRANCH   1   3
BRANCH   1  12
ATOM     11  C   UNL     1      -9.224  13.169  67.637  0.00  0.00    +0.009 C 
ATOM     12  C   UNL     1      -9.495  14.575  66.808  0.00  0.00    +0.077 C 
BRANCH  12  13
ATOM     13  C   UNL     1     -10.974  14.190  66.275  0.00  0.00    +0.092 A 
ATOM     14  C   UNL     1     -11.247  12.887  66.002  0.00  0.00    +0.173 A 
ATOM     15  F   UNL     1     -10.899  12.068  67.041  0.00  0.00    -0.201 F 
ATOM     16  C   UNL     1     -12.373  12.625  65.230  0.00  0.00    +0.131 A 
ATOM     17  N   UNL     1     -12.563  13.430  64.167  0.00  0.00    -0.220 NA
ATOM     18  C   UNL     1     -12.143  14.706  64.300  0.00  0.00    +0.199 A 
ATOM     19  N   UNL     1     -11.274  15.058  65.272  0.00  0.00    -0.226 NA
ENDBRANCH  12  13
ENDBRANCH   1  12
BRANCH   1  20
ATOM     20  C   UNL     1     -11.480  15.436  68.173  0.00  0.00    +0.164 C 
BRANCH  20  21
ATOM     21  N   UNL     1     -11.859  14.886  69.471  0.00  0.00    -0.227 N 
ATOM     22  N   UNL     1     -12.052  13.578  69.649  0.00  0.00    -0.145 NA
ATOM     23  C   UNL     1     -12.508  13.410  70.913  0.00  0.00    +0.221 A 
ATOM     24  N   UNL     1     -13.119  14.587  71.192  0.00  0.00    -0.201 NA
ATOM     25  C   UNL     1     -12.493  15.547  70.471  0.00  0.00    +0.197 A 
ENDBRANCH  20  21
ENDBRANCH   1  20
TORSDOF 5
ENDMDL
MODEL 5
REMARK VINA RESULT:      -6.1      3.872      5.631
REMARK  Name = 
REMARK  5 active torsions:
REMARK  status: ('A' for Active; 'I' for Inactive)
REMARK    1  A    between atoms: C_2  and  C_3
REMARK    2  A    between atoms: C_2  and  C_10
REMARK    3  A    between atoms: C_10  and  C_12
REMARK    4  A    between atoms: C_10  and  C_18
REMARK    5  A    between atoms: C_12  and  N_13
REMARK                            x       y       z     vdW  Elec       q    Type
REMARK                         _______ _______ _______ _____ _____    ______ ____
ROOT
ATOM      1  C   UNL     1     -10.847  12.110  67.456  0.00  0.00    +0.175 C 
ATOM      2  O   UNL     1     -12.064  11.560  67.228  0.00  0.00    -0.219 OA
ENDROOT
BRANCH   1   3
ATOM      3  C   UNL     1     -11.016  12.961  68.681  0.00  0.00    +0.035 A 
ATOM      4  C   UNL     1     -11.728  12.554  69.782  0.00  0.00    +0.141 A 
ATOM      5  F   UNL     1     -12.179  11.296  69.866  0.00  0.00    -0.204 F 
ATOM      6  C   UNL     1     -12.452  13.521  70.469  0.00  0.00    +0.059 A 
ATOM      7  C   UNL     1     -12.229  14.871  70.237  0.00  0.00    +0.142 A 
ATOM      8  F   UNL     1     -13.151  15.822  70.525  0.00  0.00    -0.204 F 
ATOM      9  C   UNL     1     -11.129  15.216  69.474  0.00  0.00    +0.030 A 
ATOM     10  C   UNL     1     -10.445  14.224  68.781  0.00  0.00    +0.003 A 
ENDBRANCH   1   3
BRANCH   1  12
ATOM     11  C   UNL     1     -10.740   9.680  67.449  0.00  0.00    +0.009 C 
ATOM     12  C   UNL     1      -9.782  10.947  67.911  0.00  0.00    +0.077 C 
BRANCH  12  13
ATOM     13  C   UNL     1      -8.898  11.010  66.557  0.00  0.00    +0.092 A 
ATOM     14  C   UNL     1      -9.023  10.005  65.652  0.00  0.00    +0.173 A 
ATOM     15  F   UNL     1     -10.335   9.765  65.341  0.00  0.00    -0.201 F 
ATOM     16  C   UNL     1      -8.027   9.891  64.690  0.00  0.00    +0.131 A 
ATOM     17  N   UNL     1      -6.762  10.042  65.126  0.00  0.00    -0.220 NA
ATOM     18  C   UNL     1      -6.582  10.895  66.157  0.00  0.00    +0.199 A 
ATOM     19  N   UNL     1      -7.618  11.285  66.929  0.00  0.00    -0.226 NA
ENDBRANCH  12  13
ENDBRANCH   1  12
BRANCH   1  20
ATOM     20  C   UNL     1     -10.270  12.963  66.411  0.00  0.00    +0.164 C 
BRANCH  20  21
ATOM     21  N   UNL     1     -11.297  13.132  65.388  0.00  0.00    -0.227 N 
ATOM     22  N   UNL     1     -11.197  12.549  64.192  0.00  0.00    -0.145 NA
ATOM     23  C   UNL     1     -12.233  12.998  63.442  0.00  0.00    +0.221 A 
ATOM     24  N   UNL     1     -12.511  14.212  63.975  0.00  0.00    -0.201 NA
ATOM     25  C   UNL     1     -12.166  14.167  65.283  0.00  0.00    +0.197 A 
ENDBRANCH  20  21
ENDBRANCH   1  20
TORSDOF 5
ENDMDL
MODEL 6
REMARK VINA RESULT:      -6.1      3.084      5.060
REMARK  Name = 
REMARK  5 active torsions:
REMARK  status: ('A' for Active; 'I' for Inactive)
REMARK    1  A    between atoms: C_2  and  C_3
REMARK    2  A    between atoms: C_2  and  C_10
REMARK    3  A    between atoms: C_10  and  C_12
REMARK    4  A    between atoms: C_10  and  C_18
REMARK    5  A    between atoms: C_12  and  N_13
REMARK                            x       y       z     vdW  Elec       q    Type
REMARK                         _______ _______ _______ _____ _____    ______ ____
ROOT
ATOM      1  C   UNL     1     -11.101  14.350  67.472  0.00  0.00    +0.175 C 
ATOM      2  O   UNL     1     -11.538  15.522  66.950  0.00  0.00    -0.219 OA
ENDROOT
BRANCH   1   3
ATOM      3  C   UNL     1     -11.452  14.407  68.930  0.00  0.00    +0.035 A 
ATOM      4  C   UNL     1     -11.493  13.294  69.734  0.00  0.00    +0.141 A 
ATOM      5  F   UNL     1     -11.063  12.114  69.272  0.00  0.00    -0.204 F 
ATOM      6  C   UNL     1     -12.464  13.257  70.726  0.00  0.00    +0.059 A 
ATOM      7  C   UNL     1     -13.159  14.405  71.082  0.00  0.00    +0.142 A 
ATOM      8  F   UNL     1     -14.366  14.365  71.696  0.00  0.00    -0.204 F 
ATOM      9  C   UNL     1     -12.705  15.609  70.576  0.00  0.00    +0.030 A 
ATOM     10  C   UNL     1     -11.750  15.606  69.567  0.00  0.00    +0.003 A 
ENDBRANCH   1   3
BRANCH   1  12
ATOM     11  C   UNL     1     -12.794  14.019  65.757  0.00  0.00    +0.009 C 
ATOM     12  C   UNL     1     -11.997  13.107  66.885  0.00  0.00    +0.077 C 
BRANCH  12  13
ATOM     13  C   UNL     1     -10.851  12.548  65.889  0.00  0.00    +0.092 A 
ATOM     14  C   UNL     1     -10.954  12.821  64.562  0.00  0.00    +0.173 A 
ATOM     15  F   UNL     1     -11.158  14.154  64.334  0.00  0.00    -0.201 F 
ATOM     16  C   UNL     1     -10.179  12.057  63.698  0.00  0.00    +0.131 A 
ATOM     17  N   UNL     1     -10.132  10.736  63.955  0.00  0.00    -0.220 NA
ATOM     18  C   UNL     1     -10.212  10.375  65.253  0.00  0.00    +0.199 A 
ATOM     19  N   UNL     1     -10.670  11.233  66.189  0.00  0.00    -0.226 NA
ENDBRANCH  12  13
ENDBRANCH   1  12
BRANCH   1  20
ATOM     20  C   UNL     1      -9.669  14.047  67.380  0.00  0.00    +0.164 C 
BRANCH  20  21
ATOM     21  N   UNL     1      -8.973  15.324  67.254  0.00  0.00    -0.227 N 
ATOM     22  N   UNL     1      -8.612  15.810  66.065  0.00  0.00    -0.145 NA
ATOM     23  C   UNL     1      -7.888  16.932  66.296  0.00  0.00    +0.221 A 
ATOM     24  N   UNL     1      -7.359  16.724  67.526  0.00  0.00    -0.201 NA
ATOM     25  C   UNL     1      -8.219  15.928  68.205  0.00  0.00    +0.197 A 
ENDBRANCH  20  21
ENDBRANCH   1  20
TORSDOF 5
ENDMDL
MODEL 7
REMARK VINA RESULT:      -6.0      2.415      6.258
REMARK  Name = 
REMARK  5 active torsions:
REMARK  status: ('A' for Active; 'I' for Inactive)
REMARK    1  A    between atoms: C_2  and  C_3
REMARK    2  A    between atoms: C_2  and  C_10
REMARK    3  A    between atoms: C_10  and  C_12
REMARK    4  A    between atoms: C_10  and  C_18
REMARK    5  A    between atoms: C_12  and  N_13
REMARK                            x       y       z     vdW  Elec       q    Type
REMARK                         _______ _______ _______ _____ _____    ______ ____
ROOT
ATOM      1  C   UNL     1     -10.682  13.403  67.292  0.00  0.00    +0.175 C 
ATOM      2  O   UNL     1      -9.792  12.735  66.519  0.00  0.00    -0.219 OA
ENDROOT
BRANCH   1   3
ATOM      3  C   UNL     1     -11.331  12.356  68.150  0.00  0.00    +0.035 A 
ATOM      4  C   UNL     1     -12.100  12.659  69.247  0.00  0.00    +0.141 A 
ATOM      5  F   UNL     1     -12.432  13.929  69.507  0.00  0.00    -0.204 F 
ATOM      6  C   UNL     1     -12.027  11.799  70.336  0.00  0.00    +0.059 A 
ATOM      7  C   UNL     1     -11.443  10.546  70.213  0.00  0.00    +0.142 A 
ATOM      8  F   UNL     1     -10.960   9.860  71.277  0.00  0.00    -0.204 F 
ATOM      9  C   UNL     1     -11.140  10.105  68.939  0.00  0.00    +0.030 A 
ATOM     10  C   UNL     1     -11.201  11.000  67.877  0.00  0.00    +0.003 A 
ENDBRANCH   1   3
BRANCH   1  12
ATOM     11  C   UNL     1      -8.378  14.020  67.772  0.00  0.00    +0.009 C 
ATOM     12  C   UNL     1      -9.887  14.366  68.357  0.00  0.00    +0.077 C 
BRANCH  12  13
ATOM     13  C   UNL     1     -10.099  15.732  67.516  0.00  0.00    +0.092 A 
ATOM     14  C   UNL     1      -9.065  16.202  66.770  0.00  0.00    +0.173 A 
ATOM     15  F   UNL     1      -8.545  15.232  65.957  0.00  0.00    -0.201 F 
ATOM     16  C   UNL     1      -9.139  17.525  66.348  0.00  0.00    +0.131 A 
ATOM     17  N   UNL     1      -9.566  18.415  67.264  0.00  0.00    -0.220 NA
ATOM     18  C   UNL     1     -10.465  17.964  68.164  0.00  0.00    +0.199 A 
ATOM     19  N   UNL     1     -10.648  16.642  68.366  0.00  0.00    -0.226 NA
ENDBRANCH  12  13
ENDBRANCH   1  12
BRANCH   1  20
ATOM     20  C   UNL     1     -11.755  14.144  66.623  0.00  0.00    +0.164 C 
BRANCH  20  21
ATOM     21  N   UNL     1     -11.886  13.581  65.282  0.00  0.00    -0.227 N 
ATOM     22  N   UNL     1     -12.789  12.641  65.002  0.00  0.00    -0.145 NA
ATOM     23  C   UNL     1     -12.573  12.248  63.723  0.00  0.00    +0.221 A 
ATOM     24  N   UNL     1     -11.256  12.499  63.530  0.00  0.00    -0.201 NA
ATOM     25  C   UNL     1     -10.922  13.539  64.329  0.00  0.00    +0.197 A 
ENDBRANCH  20  21
ENDBRANCH   1  20
TORSDOF 5
ENDMDL
MODEL 8
REMARK VINA RESULT:      -6.0      2.642      5.209
REMARK  Name = 
REMARK  5 active torsions:
REMARK  status: ('A' for Active; 'I' for Inactive)
REMARK    1  A    between atoms: C_2  and  C_3
REMARK    2  A    between atoms: C_2  and  C_10
REMARK    3  A    between atoms: C_10  and  C_12
REMARK    4  A    between atoms: C_10  and  C_18
REMARK    5  A    between atoms: C_12  and  N_13
REMARK                            x       y       z     vdW  Elec       q    Type
REMARK                         _______ _______ _______ _____ _____    ______ ____
ROOT
ATOM      1  C   UNL     1      -9.793  15.732  66.915  0.00  0.00    +0.175 C 
ATOM      2  O   UNL     1     -10.712  16.723  67.007  0.00  0.00    -0.219 OA
ENDROOT
BRANCH   1   3
ATOM      3  C   UNL     1     -10.309  14.805  65.852  0.00  0.00    +0.035 A 
ATOM      4  C   UNL     1     -11.059  15.234  64.785  0.00  0.00    +0.141 A 
ATOM      5  F   UNL     1     -11.231  16.543  64.566  0.00  0.00    -0.204 F 
ATOM      6  C   UNL     1     -12.062  14.390  64.327  0.00  0.00    +0.059 A 
ATOM      7  C   UNL     1     -12.110  13.062  64.729  0.00  0.00    +0.142 A 
ATOM      8  F   UNL     1     -13.248  12.327  64.683  0.00  0.00    -0.204 F 
ATOM      9  C   UNL     1     -11.019  12.562  65.415  0.00  0.00    +0.030 A 
ATOM     10  C   UNL     1     -10.047  13.441  65.878  0.00  0.00    +0.003 A 
ENDBRANCH   1   3
BRANCH   1  12
ATOM     11  C   UNL     1      -8.774  17.911  66.554  0.00  0.00    +0.009 C 
ATOM     12  C   UNL     1      -8.393  16.321  66.296  0.00  0.00    +0.077 C 
BRANCH  12  13
ATOM     13  C   UNL     1      -7.530  16.120  67.650  0.00  0.00    +0.092 A 
ATOM     14  C   UNL     1      -7.276  17.205  68.426  0.00  0.00    +0.173 A 
ATOM     15  F   UNL     1      -8.418  17.908  68.702  0.00  0.00    -0.201 F 
ATOM     16  C   UNL     1      -6.263  17.086  69.370  0.00  0.00    +0.131 A 
ATOM     17  N   UNL     1      -5.140  16.468  68.959  0.00  0.00    -0.220 NA
ATOM     18  C   UNL     1      -5.296  15.492  68.039  0.00  0.00    +0.199 A 
ATOM     19  N   UNL     1      -6.432  15.388  67.317  0.00  0.00    -0.226 NA
ENDBRANCH  12  13
ENDBRANCH   1  12
BRANCH   1  20
ATOM     20  C   UNL     1      -9.533  14.921  68.109  0.00  0.00    +0.164 C 
BRANCH  20  21
ATOM     21  N   UNL     1     -10.675  15.100  68.999  0.00  0.00    -0.227 N 
ATOM     22  N   UNL     1     -10.613  15.897  70.067  0.00  0.00    -0.145 NA
ATOM     23  C   UNL     1     -11.778  15.751  70.743  0.00  0.00    +0.221 A 
ATOM     24  N   UNL     1     -12.183  14.500  70.416  0.00  0.00    -0.201 NA
ATOM     25  C   UNL     1     -11.700  14.231  69.180  0.00  0.00    +0.197 A 
ENDBRANCH  20  21
ENDBRANCH   1  20
TORSDOF 5
ENDMDL
MODEL 9
REMARK VINA RESULT:      -5.9      2.390      4.199
REMARK  Name = 
REMARK  5 active torsions:
REMARK  status: ('A' for Active; 'I' for Inactive)
REMARK    1  A    between atoms: C_2  and  C_3
REMARK    2  A    between atoms: C_2  and  C_10
REMARK    3  A    between atoms: C_10  and  C_12
REMARK    4  A    between atoms: C_10  and  C_18
REMARK    5  A    between atoms: C_12  and  N_13
REMARK                            x       y       z     vdW  Elec       q    Type
REMARK                         _______ _______ _______ _____ _____    ______ ____
ROOT
ATOM      1  C   UNL     1     -10.741  14.243  67.310  0.00  0.00    +0.175 C 
ATOM      2  O   UNL     1     -12.080  14.433  67.381  0.00  0.00    -0.219 OA
ENDROOT
BRANCH   1   3
ATOM      3  C   UNL     1     -10.137  15.615  67.395  0.00  0.00    +0.035 A 
ATOM      4  C   UNL     1     -10.663  16.618  68.170  0.00  0.00    +0.141 A 
ATOM      5  F   UNL     1     -11.667  16.358  69.017  0.00  0.00    -0.204 F 
ATOM      6  C   UNL     1     -10.583  17.915  67.680  0.00  0.00    +0.059 A 
ATOM      7  C   UNL     1      -9.753  18.219  66.610  0.00  0.00    +0.142 A 
ATOM      8  F   UNL     1      -9.942  19.310  65.828  0.00  0.00    -0.204 F 
ATOM      9  C   UNL     1      -8.861  17.247  66.198  0.00  0.00    +0.030 A 
ATOM     10  C   UNL     1      -8.987  15.954  66.692  0.00  0.00    +0.003 A 
ENDBRANCH   1   3
BRANCH   1  12
ATOM     11  C   UNL     1     -11.721  13.135  69.241  0.00  0.00    +0.009 C 
ATOM     12  C   UNL     1     -10.210  13.481  68.663  0.00  0.00    +0.077 C 
BRANCH  12  13
ATOM     13  C   UNL     1      -9.959  12.052  67.945  0.00  0.00    +0.092 A 
ATOM     14  C   UNL     1     -10.876  11.066  68.123  0.00  0.00    +0.173 A 
ATOM     15  F   UNL     1     -12.146  11.503  67.858  0.00  0.00    -0.201 F 
ATOM     16  C   UNL     1     -10.484   9.771  67.804  0.00  0.00    +0.131 A 
ATOM     17  N   UNL     1      -9.250   9.411  68.205  0.00  0.00    -0.220 NA
ATOM     18  C   UNL     1      -8.320  10.389  68.232  0.00  0.00    +0.199 A 
ATOM     19  N   UNL     1      -8.675  11.691  68.215  0.00  0.00    -0.226 NA
ENDBRANCH  12  13
ENDBRANCH   1  12
BRANCH   1  20
ATOM     20  C   UNL     1     -10.199  13.603  66.107  0.00  0.00    +0.164 C 
BRANCH  20  21
ATOM     21  N   UNL     1     -11.324  13.379  65.204  0.00  0.00    -0.227 N 
ATOM     22  N   UNL     1     -11.594  12.170  64.709  0.00  0.00    -0.145 NA
ATOM     23  C   UNL     1     -12.608  12.320  63.822  0.00  0.00    +0.221 A 
ATOM     24  N   UNL     1     -12.475  13.599  63.397  0.00  0.00    -0.201 NA
ATOM     25  C   UNL     1     -11.915  14.304  64.409  0.00  0.00    +0.197 A 
ENDBRANCH  20  21
ENDBRANCH   1  20
TORSDOF 5
ENDMDL
