MODEL 1
REMARK VINA RESULT:      -7.4      0.000      0.000
REMARK  Name = 
REMARK  1 active torsions:
REMARK  status: ('A' for Active; 'I' for Inactive)
REMARK    1  A    between atoms: N_9  and  C_10
REMARK                            x       y       z     vdW  Elec       q    Type
REMARK                         _______ _______ _______ _____ _____    ______ ____
ROOT
ATOM      1  N   UNL     1     -11.147  16.655  69.641  0.00  0.00    -0.128 NA
ATOM      2  C   UNL     1     -10.521  17.108  68.522  0.00  0.00    +0.087 A 
ATOM      3  C   UNL     1     -10.667  16.428  67.335  0.00  0.00    +0.019 A 
ATOM      4  C   UNL     1     -10.633  14.962  67.082  0.00  0.00    +0.122 C 
ATOM      5  N   UNL     1     -11.046  14.803  65.690  0.00  0.00    -0.265 N 
ATOM      6  C   UNL     1     -10.930  16.104  65.101  0.00  0.00    +0.249 C 
ATOM      7  O   UNL     1     -11.380  16.501  63.983  0.00  0.00    -0.270 OA
ATOM      8  C   UNL     1     -10.468  17.047  66.109  0.00  0.00    +0.053 A 
ATOM      9  C   UNL     1     -10.220  18.401  66.112  0.00  0.00    +0.004 A 
ATOM     10  C   UNL     1      -9.824  19.046  67.264  0.00  0.00    +0.002 A 
ATOM     11  C   UNL     1     -10.035  18.407  68.454  0.00  0.00    +0.018 A 
ENDROOT
BRANCH   5  12
ATOM     12  C   UNL     1     -12.381  13.983  65.450  0.00  0.00    +0.155 C 
ATOM     13  C   UNL     1     -11.853  13.389  64.041  0.00  0.00    +0.266 C 
ATOM     14  O   UNL     1     -12.748  13.636  63.173  0.00  0.00    -0.271 OA
ATOM     15  N   UNL     1     -11.234  12.157  63.978  0.00  0.00    -0.143 NA
ATOM     16  C   UNL     1     -10.214  11.908  64.943  0.00  0.00    +0.248 C 
ATOM     17  O   UNL     1      -9.228  11.193  64.780  0.00  0.00    -0.273 OA
ATOM     18  C   UNL     1     -10.440  12.549  66.257  0.00  0.00    +0.089 C 
ATOM     19  C   UNL     1     -11.904  12.718  66.395  0.00  0.00    +0.039 C 
ENDBRANCH   5  12
TORSDOF 1
ENDMDL
MODEL 2
REMARK VINA RESULT:      -6.9      2.443      3.310
REMARK  Name = 
REMARK  1 active torsions:
REMARK  status: ('A' for Active; 'I' for Inactive)
REMARK    1  A    between atoms: N_9  and  C_10
REMARK                            x       y       z     vdW  Elec       q    Type
REMARK                         _______ _______ _______ _____ _____    ______ ____
ROOT
ATOM      1  N   UNL     1      -7.180  17.969  65.712  0.00  0.00    -0.128 NA
ATOM      2  C   UNL     1      -8.392  18.400  66.154  0.00  0.00    +0.087 A 
ATOM      3  C   UNL     1      -9.321  17.487  66.599  0.00  0.00    +0.019 A 
ATOM      4  C   UNL     1      -9.704  16.175  66.012  0.00  0.00    +0.122 C 
ATOM      5  N   UNL     1     -10.577  15.551  67.005  0.00  0.00    -0.265 N 
ATOM      6  C   UNL     1     -10.969  16.605  67.892  0.00  0.00    +0.249 C 
ATOM      7  O   UNL     1     -11.540  16.508  69.020  0.00  0.00    -0.270 OA
ATOM      8  C   UNL     1     -10.342  17.849  67.466  0.00  0.00    +0.053 A 
ATOM      9  C   UNL     1     -10.338  19.136  67.954  0.00  0.00    +0.004 A 
ATOM     10  C   UNL     1      -9.592  20.122  67.346  0.00  0.00    +0.002 A 
ATOM     11  C   UNL     1      -8.594  19.730  66.498  0.00  0.00    +0.018 A 
ENDROOT
BRANCH   5  12
ATOM     12  C   UNL     1     -10.057  14.192  67.632  0.00  0.00    +0.155 C 
ATOM     13  C   UNL     1     -11.558  13.663  67.921  0.00  0.00    +0.266 C 
ATOM     14  O   UNL     1     -11.606  13.327  69.146  0.00  0.00    -0.271 OA
ATOM     15  N   UNL     1     -12.210  12.850  67.016  0.00  0.00    -0.143 NA
ATOM     16  C   UNL     1     -12.169  13.257  65.651  0.00  0.00    +0.248 C 
ATOM     17  O   UNL     1     -13.040  13.045  64.810  0.00  0.00    -0.273 OA
ATOM     18  C   UNL     1     -10.923  13.947  65.251  0.00  0.00    +0.089 C 
ATOM     19  C   UNL     1      -9.864  13.461  66.165  0.00  0.00    +0.039 C 
ENDBRANCH   5  12
TORSDOF 1
ENDMDL
MODEL 3
REMARK VINA RESULT:      -6.9      2.334      3.916
REMARK  Name = 
REMARK  1 active torsions:
REMARK  status: ('A' for Active; 'I' for Inactive)
REMARK    1  A    between atoms: N_9  and  C_10
REMARK                            x       y       z     vdW  Elec       q    Type
REMARK                         _______ _______ _______ _____ _____    ______ ____
ROOT
ATOM      1  N   UNL     1     -10.943  17.027  69.207  0.00  0.00    -0.128 NA
ATOM      2  C   UNL     1     -11.698  15.938  69.515  0.00  0.00    +0.087 A 
ATOM      3  C   UNL     1     -11.647  14.822  68.712  0.00  0.00    +0.019 A 
ATOM      4  C   UNL     1     -11.647  14.733  67.228  0.00  0.00    +0.122 C 
ATOM      5  N   UNL     1     -11.372  13.329  66.927  0.00  0.00    -0.265 N 
ATOM      6  C   UNL     1     -11.600  12.620  68.151  0.00  0.00    +0.249 C 
ATOM      7  O   UNL     1     -11.284  11.425  68.435  0.00  0.00    -0.270 OA
ATOM      8  C   UNL     1     -11.995  13.565  69.186  0.00  0.00    +0.053 A 
ATOM      9  C   UNL     1     -12.296  13.450  70.524  0.00  0.00    +0.004 A 
ATOM     10  C   UNL     1     -12.598  14.561  71.281  0.00  0.00    +0.002 A 
ATOM     11  C   UNL     1     -12.241  15.783  70.783  0.00  0.00    +0.018 A 
ENDROOT
BRANCH   5  12
ATOM     12  C   UNL     1     -10.036  13.038  66.125  0.00  0.00    +0.155 C 
ATOM     13  C   UNL     1     -10.563  11.594  65.623  0.00  0.00    +0.266 C 
ATOM     14  O   UNL     1      -9.668  10.744  65.925  0.00  0.00    -0.271 OA
ATOM     15  N   UNL     1     -11.181  11.452  64.396  0.00  0.00    -0.143 NA
ATOM     16  C   UNL     1     -12.201  12.397  64.085  0.00  0.00    +0.248 C 
ATOM     17  O   UNL     1     -13.187  12.188  63.382  0.00  0.00    -0.273 OA
ATOM     18  C   UNL     1     -11.977  13.750  64.641  0.00  0.00    +0.089 C 
ATOM     19  C   UNL     1     -10.513  13.900  64.802  0.00  0.00    +0.039 C 
ENDBRANCH   5  12
TORSDOF 1
ENDMDL
MODEL 4
REMARK VINA RESULT:      -6.7      2.003      5.480
REMARK  Name = 
REMARK  1 active torsions:
REMARK  status: ('A' for Active; 'I' for Inactive)
REMARK    1  A    between atoms: N_9  and  C_10
REMARK                            x       y       z     vdW  Elec       q    Type
REMARK                         _______ _______ _______ _____ _____    ______ ____
ROOT
ATOM      1  N   UNL     1      -9.170  11.359  65.309  0.00  0.00    -0.128 NA
ATOM      2  C   UNL     1     -10.355  11.925  64.956  0.00  0.00    +0.087 A 
ATOM      3  C   UNL     1     -10.576  13.260  65.206  0.00  0.00    +0.019 A 
ATOM      4  C   UNL     1     -10.257  14.052  66.424  0.00  0.00    +0.122 C 
ATOM      5  N   UNL     1     -10.519  15.442  66.057  0.00  0.00    -0.265 N 
ATOM      6  C   UNL     1     -11.306  15.385  64.861  0.00  0.00    +0.249 C 
ATOM      7  O   UNL     1     -11.586  16.329  64.062  0.00  0.00    -0.270 OA
ATOM      8  C   UNL     1     -11.512  13.992  64.491  0.00  0.00    +0.053 A 
ATOM      9  C   UNL     1     -12.146  13.364  63.442  0.00  0.00    +0.004 A 
ATOM     10  C   UNL     1     -12.137  11.990  63.329  0.00  0.00    +0.002 A 
ATOM     11  C   UNL     1     -11.201  11.301  64.049  0.00  0.00    +0.018 A 
ENDROOT
BRANCH   5  12
ATOM     12  C   UNL     1      -9.272  16.419  66.094  0.00  0.00    +0.155 C 
ATOM     13  C   UNL     1     -10.167  17.666  66.602  0.00  0.00    +0.266 C 
ATOM     14  O   UNL     1      -9.940  18.635  65.811  0.00  0.00    -0.271 OA
ATOM     15  N   UNL     1     -10.276  17.960  67.946  0.00  0.00    -0.143 NA
ATOM     16  C   UNL     1     -10.557  16.866  68.815  0.00  0.00    +0.248 C 
ATOM     17  O   UNL     1     -11.189  16.925  69.868  0.00  0.00    -0.273 OA
ATOM     18  C   UNL     1      -9.968  15.576  68.391  0.00  0.00    +0.089 C 
ATOM     19  C   UNL     1      -8.775  15.907  67.581  0.00  0.00    +0.039 C 
ENDBRANCH   5  12
TORSDOF 1
ENDMDL
MODEL 5
REMARK VINA RESULT:      -6.5      5.809      8.258
REMARK  Name = 
REMARK  1 active torsions:
REMARK  status: ('A' for Active; 'I' for Inactive)
REMARK    1  A    between atoms: N_9  and  C_10
REMARK                            x       y       z     vdW  Elec       q    Type
REMARK                         _______ _______ _______ _____ _____    ______ ____
ROOT
ATOM      1  N   UNL     1     -11.357  10.795  68.287  0.00  0.00    -0.128 NA
ATOM      2  C   UNL     1     -11.652  10.587  69.598  0.00  0.00    +0.087 A 
ATOM      3  C   UNL     1     -12.109  11.631  70.370  0.00  0.00    +0.019 A 
ATOM      4  C   UNL     1     -11.629  13.037  70.427  0.00  0.00    +0.122 C 
ATOM      5  N   UNL     1     -12.604  13.742  71.256  0.00  0.00    -0.265 N 
ATOM      6  C   UNL     1     -13.345  12.721  71.935  0.00  0.00    +0.249 C 
ATOM      7  O   UNL     1     -14.426  12.840  72.587  0.00  0.00    -0.270 OA
ATOM      8  C   UNL     1     -12.847  11.416  71.525  0.00  0.00    +0.053 A 
ATOM      9  C   UNL     1     -13.201  10.119  71.823  0.00  0.00    +0.004 A 
ATOM     10  C   UNL     1     -12.559   9.055  71.227  0.00  0.00    +0.002 A 
ATOM     11  C   UNL     1     -11.841   9.303  70.091  0.00  0.00    +0.018 A 
ENDROOT
BRANCH   5  12
ATOM     12  C   UNL     1     -13.407  14.910  70.545  0.00  0.00    +0.155 C 
ATOM     13  C   UNL     1     -14.389  15.109  71.814  0.00  0.00    +0.266 C 
ATOM     14  O   UNL     1     -15.581  15.052  71.376  0.00  0.00    -0.271 OA
ATOM     15  N   UNL     1     -14.116  16.056  72.781  0.00  0.00    -0.143 NA
ATOM     16  C   UNL     1     -12.782  16.088  73.280  0.00  0.00    +0.248 C 
ATOM     17  O   UNL     1     -12.445  16.418  74.415  0.00  0.00    -0.273 OA
ATOM     18  C   UNL     1     -11.744  15.734  72.287  0.00  0.00    +0.089 C 
ATOM     19  C   UNL     1     -12.306  16.067  70.958  0.00  0.00    +0.039 C 
ENDBRANCH   5  12
TORSDOF 1
ENDMDL
MODEL 6
REMARK VINA RESULT:      -6.5      3.516      4.404
REMARK  Name = 
REMARK  1 active torsions:
REMARK  status: ('A' for Active; 'I' for Inactive)
REMARK    1  A    between atoms: N_9  and  C_10
REMARK                            x       y       z     vdW  Elec       q    Type
REMARK                         _______ _______ _______ _____ _____    ______ ____
ROOT
ATOM      1  N   UNL     1     -13.937  12.806  72.123  0.00  0.00    -0.128 NA
ATOM      2  C   UNL     1     -13.020  13.809  72.179  0.00  0.00    +0.087 A 
ATOM      3  C   UNL     1     -12.347  14.183  71.038  0.00  0.00    +0.019 A 
ATOM      4  C   UNL     1     -11.741  13.329  69.983  0.00  0.00    +0.122 C 
ATOM      5  N   UNL     1     -11.348  14.252  68.920  0.00  0.00    -0.265 N 
ATOM      6  C   UNL     1     -11.369  15.556  69.514  0.00  0.00    +0.249 C 
ATOM      7  O   UNL     1     -11.312  16.682  68.933  0.00  0.00    -0.270 OA
ATOM      8  C   UNL     1     -11.778  15.442  70.907  0.00  0.00    +0.053 A 
ATOM      9  C   UNL     1     -11.998  16.350  71.918  0.00  0.00    +0.004 A 
ATOM     10  C   UNL     1     -12.439  15.938  73.156  0.00  0.00    +0.002 A 
ATOM     11  C   UNL     1     -12.994  14.692  73.250  0.00  0.00    +0.018 A 
ENDROOT
BRANCH   5  12
ATOM     12  C   UNL     1     -12.064  14.048  67.522  0.00  0.00    +0.155 C 
ATOM     13  C   UNL     1     -10.783  14.596  66.700  0.00  0.00    +0.266 C 
ATOM     14  O   UNL     1     -11.201  15.511  65.923  0.00  0.00    -0.271 OA
ATOM     15  N   UNL     1      -9.836  13.725  66.200  0.00  0.00    -0.143 NA
ATOM     16  C   UNL     1      -9.359  12.723  67.094  0.00  0.00    +0.248 C 
ATOM     17  O   UNL     1      -8.235  12.226  67.085  0.00  0.00    -0.273 OA
ATOM     18  C   UNL     1     -10.363  12.235  68.065  0.00  0.00    +0.089 C 
ATOM     19  C   UNL     1     -11.687  12.445  67.438  0.00  0.00    +0.039 C 
ENDBRANCH   5  12
TORSDOF 1
ENDMDL
MODEL 7
REMARK VINA RESULT:      -6.4      3.299      5.386
REMARK  Name = 
REMARK  1 active torsions:
REMARK  status: ('A' for Active; 'I' for Inactive)
REMARK    1  A    between atoms: N_9  and  C_10
REMARK                            x       y       z     vdW  Elec       q    Type
REMARK                         _______ _______ _______ _____ _____    ______ ____
ROOT
ATOM      1  N   UNL     1     -11.989  16.460  72.898  0.00  0.00    -0.128 NA
ATOM      2  C   UNL     1     -12.456  15.476  72.083  0.00  0.00    +0.087 A 
ATOM      3  C   UNL     1     -11.819  15.216  70.892  0.00  0.00    +0.019 A 
ATOM      4  C   UNL     1     -11.294  16.171  69.880  0.00  0.00    +0.122 C 
ATOM      5  N   UNL     1     -10.541  15.351  68.932  0.00  0.00    -0.265 N 
ATOM      6  C   UNL     1     -10.954  14.001  69.177  0.00  0.00    +0.249 C 
ATOM      7  O   UNL     1     -10.421  12.931  68.754  0.00  0.00    -0.270 OA
ATOM      8  C   UNL     1     -11.928  13.986  70.259  0.00  0.00    +0.053 A 
ATOM      9  C   UNL     1     -12.615  12.991  70.916  0.00  0.00    +0.004 A 
ATOM     10  C   UNL     1     -13.460  13.285  71.963  0.00  0.00    +0.002 A 
ATOM     11  C   UNL     1     -13.325  14.506  72.563  0.00  0.00    +0.018 A 
ENDROOT
BRANCH   5  12
ATOM     12  C   UNL     1      -8.990  15.658  68.825  0.00  0.00    +0.155 C 
ATOM     13  C   UNL     1      -8.885  14.999  67.352  0.00  0.00    +0.266 C 
ATOM     14  O   UNL     1      -7.940  14.150  67.389  0.00  0.00    -0.271 OA
ATOM     15  N   UNL     1      -8.989  15.778  66.217  0.00  0.00    -0.143 NA
ATOM     16  C   UNL     1     -10.070  16.706  66.180  0.00  0.00    +0.248 C 
ATOM     17  O   UNL     1     -10.661  17.084  65.171  0.00  0.00    -0.273 OA
ATOM     18  C   UNL     1     -10.440  17.273  67.496  0.00  0.00    +0.089 C 
ATOM     19  C   UNL     1      -9.221  17.216  68.334  0.00  0.00    +0.039 C 
ENDBRANCH   5  12
TORSDOF 1
ENDMDL
MODEL 8
REMARK VINA RESULT:      -6.3      2.852      5.159
REMARK  Name = 
REMARK  1 active torsions:
REMARK  status: ('A' for Active; 'I' for Inactive)
REMARK    1  A    between atoms: N_9  and  C_10
REMARK                            x       y       z     vdW  Elec       q    Type
REMARK                         _______ _______ _______ _____ _____    ______ ____
ROOT
ATOM      1  N   UNL     1     -11.881  14.378  70.966  0.00  0.00    -0.128 NA
ATOM      2  C   UNL     1     -12.323  13.145  70.602  0.00  0.00    +0.087 A 
ATOM      3  C   UNL     1     -11.934  12.608  69.397  0.00  0.00    +0.019 A 
ATOM      4  C   UNL     1     -11.844  13.260  68.063  0.00  0.00    +0.122 C 
ATOM      5  N   UNL     1     -11.184  12.283  67.201  0.00  0.00    -0.265 N 
ATOM      6  C   UNL     1     -11.265  11.034  67.899  0.00  0.00    +0.249 C 
ATOM      7  O   UNL     1     -10.648   9.955  67.648  0.00  0.00    -0.270 OA
ATOM      8  C   UNL     1     -11.948  11.239  69.169  0.00  0.00    +0.053 A 
ATOM      9  C   UNL     1     -12.266  10.420  70.228  0.00  0.00    +0.004 A 
ATOM     10  C   UNL     1     -12.892  10.921  71.349  0.00  0.00    +0.002 A 
ATOM     11  C   UNL     1     -12.860  12.274  71.541  0.00  0.00    +0.018 A 
ENDROOT
BRANCH   5  12
ATOM     12  C   UNL     1      -9.786  12.719  66.597  0.00  0.00    +0.155 C 
ATOM     13  C   UNL     1      -9.972  11.786  65.290  0.00  0.00    +0.266 C 
ATOM     14  O   UNL     1      -8.930  11.065  65.194  0.00  0.00    -0.271 OA
ATOM     15  N   UNL     1     -10.495  12.299  64.120  0.00  0.00    -0.143 NA
ATOM     16  C   UNL     1     -11.679  13.083  64.243  0.00  0.00    +0.248 C 
ATOM     17  O   UNL     1     -12.568  13.182  63.401  0.00  0.00    -0.273 OA
ATOM     18  C   UNL     1     -11.771  13.868  65.495  0.00  0.00    +0.089 C 
ATOM     19  C   UNL     1     -10.380  14.110  65.939  0.00  0.00    +0.039 C 
ENDBRANCH   5  12
TORSDOF 1
ENDMDL
MODEL 9
REMARK VINA RESULT:      -6.0      3.088      5.635
REMARK  Name = 
REMARK  1 active torsions:
REMARK  status: ('A' for Active; 'I' for Inactive)
REMARK    1  A    between atoms: N_9  and  C_10
REMARK                            x       y       z     vdW  Elec       q    Type
REMARK                         _______ _______ _______ _____ _____    ______ ____
ROOT
ATOM      1  N   UNL     1     -11.580  15.194  71.601  0.00  0.00    -0.128 NA
ATOM      2  C   UNL     1     -11.649  14.635  70.363  0.00  0.00    +0.087 A 
ATOM      3  C   UNL     1     -10.971  15.212  69.314  0.00  0.00    +0.019 A 
ATOM      4  C   UNL     1     -10.852  16.649  68.950  0.00  0.00    +0.122 C 
ATOM      5  N   UNL     1      -9.854  16.693  67.882  0.00  0.00    -0.265 N 
ATOM      6  C   UNL     1      -9.727  15.345  67.416  0.00  0.00    +0.249 C 
ATOM      7  O   UNL     1      -8.834  14.859  66.658  0.00  0.00    -0.270 OA
ATOM      8  C   UNL     1     -10.615  14.486  68.187  0.00  0.00    +0.053 A 
ATOM      9  C   UNL     1     -10.872  13.133  68.193  0.00  0.00    +0.004 A 
ATOM     10  C   UNL     1     -11.757  12.585  69.095  0.00  0.00    +0.002 A 
ATOM     11  C   UNL     1     -12.086  13.328  70.194  0.00  0.00    +0.018 A 
ENDROOT
BRANCH   5  12
ATOM     12  C   UNL     1      -8.534  17.510  68.198  0.00  0.00    +0.155 C 
ATOM     13  C   UNL     1      -8.226  17.765  66.631  0.00  0.00    +0.266 C 
ATOM     14  O   UNL     1      -7.032  17.386  66.418  0.00  0.00    -0.271 OA
ATOM     15  N   UNL     1      -8.643  18.923  66.005  0.00  0.00    -0.143 NA
ATOM     16  C   UNL     1      -9.993  19.319  66.233  0.00  0.00    +0.248 C 
ATOM     17  O   UNL     1     -10.707  19.932  65.443  0.00  0.00    -0.273 OA
ATOM     18  C   UNL     1     -10.514  18.982  67.577  0.00  0.00    +0.089 C 
ATOM     19  C   UNL     1      -9.342  18.921  68.478  0.00  0.00    +0.039 C 
ENDBRANCH   5  12
TORSDOF 1
ENDMDL
