MODEL 1
REMARK VINA RESULT:      -6.7      0.000      0.000
REMARK  Name = 
REMARK  1 active torsions:
REMARK  status: ('A' for Active; 'I' for Inactive)
REMARK    1  A    between atoms: S_2  and  C_5
REMARK                            x       y       z     vdW  Elec       q    Type
REMARK                         _______ _______ _______ _____ _____    ______ ____
ROOT
ATOM      1  C   UNL     1     -11.569  13.277  66.274  0.00  0.00    +0.137 A 
ATOM      2  C   UNL     1     -11.484  12.106  67.013  0.00  0.00    +0.078 A 
ATOM      3 CL   UNL     1     -10.823  10.715  66.193  0.00  0.00    -0.081 Cl
ATOM      4  C   UNL     1     -11.612  12.182  68.396  0.00  0.00    +0.030 A 
ATOM      5  C   UNL     1     -11.764  13.414  68.988  0.00  0.00    +0.087 A 
ATOM      6  N   UNL     1     -12.228  13.628  70.302  0.00  0.00    -0.215 NA
ATOM      7  C   UNL     1     -13.012  14.822  70.609  0.00  0.00    +0.227 C 
ATOM      8  N   UNL     1     -12.234  16.030  70.491  0.00  0.00    -0.054 NA
ATOM      9  S   UNL     1     -11.148  15.996  69.159  0.00  0.00    +0.080 S 
ATOM     10  O   UNL     1     -11.218  17.230  68.319  0.00  0.00    -0.152 OA
ATOM     11  O   UNL     1      -9.769  15.868  69.727  0.00  0.00    -0.152 OA
ATOM     12  C   UNL     1     -11.493  14.556  68.242  0.00  0.00    +0.140 A 
ATOM     13  C   UNL     1     -11.588  14.531  66.864  0.00  0.00    +0.042 A 
ENDROOT
BRANCH   1  15
ATOM     14  N   UNL     1     -12.579  14.764  64.128  0.00  0.00    +0.039 NA
ATOM     15  S   UNL     1     -12.082  13.167  64.593  0.00  0.00    +0.094 S 
ATOM     16  O   UNL     1     -13.279  12.273  64.456  0.00  0.00    -0.150 OA
ATOM     17  O   UNL     1     -10.931  12.729  63.743  0.00  0.00    -0.150 OA
ENDBRANCH   1  15
TORSDOF 1
ENDMDL
MODEL 2
REMARK VINA RESULT:      -6.7      2.229      5.226
REMARK  Name = 
REMARK  1 active torsions:
REMARK  status: ('A' for Active; 'I' for Inactive)
REMARK    1  A    between atoms: S_2  and  C_5
REMARK                            x       y       z     vdW  Elec       q    Type
REMARK                         _______ _______ _______ _____ _____    ______ ____
ROOT
ATOM      1  C   UNL     1     -11.853  14.132  68.416  0.00  0.00    +0.137 A 
ATOM      2  C   UNL     1     -11.659  12.884  68.992  0.00  0.00    +0.078 A 
ATOM      3 CL   UNL     1     -12.235  12.685  70.627  0.00  0.00    -0.081 Cl
ATOM      4  C   UNL     1     -11.334  11.814  68.166  0.00  0.00    +0.030 A 
ATOM      5  C   UNL     1     -11.267  12.013  66.806  0.00  0.00    +0.087 A 
ATOM      6  N   UNL     1     -10.644  11.141  65.891  0.00  0.00    -0.215 NA
ATOM      7  C   UNL     1      -9.998  11.683  64.698  0.00  0.00    +0.227 C 
ATOM      8  N   UNL     1     -10.946  12.263  63.780  0.00  0.00    -0.054 NA
ATOM      9  S   UNL     1     -12.208  13.118  64.577  0.00  0.00    +0.080 S 
ATOM     10  O   UNL     1     -12.440  14.478  64.004  0.00  0.00    -0.152 OA
ATOM     11  O   UNL     1     -13.451  12.301  64.419  0.00  0.00    -0.152 OA
ATOM     12  C   UNL     1     -11.807  13.178  66.271  0.00  0.00    +0.140 A 
ATOM     13  C   UNL     1     -11.920  14.316  67.044  0.00  0.00    +0.042 A 
ENDROOT
BRANCH   1  15
ATOM     14  N   UNL     1     -11.297  16.873  68.315  0.00  0.00    +0.039 NA
ATOM     15  S   UNL     1     -11.592  15.560  69.412  0.00  0.00    +0.094 S 
ATOM     16  O   UNL     1     -10.363  15.405  70.258  0.00  0.00    -0.150 OA
ATOM     17  O   UNL     1     -12.820  15.842  70.219  0.00  0.00    -0.150 OA
ENDBRANCH   1  15
TORSDOF 1
ENDMDL
MODEL 3
REMARK VINA RESULT:      -6.3      3.704      5.941
REMARK  Name = 
REMARK  1 active torsions:
REMARK  status: ('A' for Active; 'I' for Inactive)
REMARK    1  A    between atoms: S_2  and  C_5
REMARK                            x       y       z     vdW  Elec       q    Type
REMARK                         _______ _______ _______ _____ _____    ______ ____
ROOT
ATOM      1  C   UNL     1     -12.454  14.397  70.940  0.00  0.00    +0.137 A 
ATOM      2  C   UNL     1     -11.955  15.607  70.479  0.00  0.00    +0.078 A 
ATOM      3 CL   UNL     1     -11.440  16.748  71.695  0.00  0.00    -0.081 Cl
ATOM      4  C   UNL     1     -11.599  15.712  69.140  0.00  0.00    +0.030 A 
ATOM      5  C   UNL     1     -11.702  14.605  68.330  0.00  0.00    +0.087 A 
ATOM      6  N   UNL     1     -11.699  14.630  66.920  0.00  0.00    -0.215 NA
ATOM      7  C   UNL     1     -12.481  13.647  66.176  0.00  0.00    +0.227 C 
ATOM      8  N   UNL     1     -11.968  12.309  66.334  0.00  0.00    -0.054 NA
ATOM      9  S   UNL     1     -11.425  11.989  67.935  0.00  0.00    +0.080 S 
ATOM     10  O   UNL     1     -11.955  10.704  68.482  0.00  0.00    -0.152 OA
ATOM     11  O   UNL     1      -9.931  11.919  67.879  0.00  0.00    -0.152 OA
ATOM     12  C   UNL     1     -11.869  13.356  68.918  0.00  0.00    +0.140 A 
ATOM     13  C   UNL     1     -12.437  13.243  70.172  0.00  0.00    +0.042 A 
ENDROOT
BRANCH   1  15
ATOM     14  N   UNL     1     -14.639  15.703  72.105  0.00  0.00    +0.039 NA
ATOM     15  S   UNL     1     -13.505  14.412  72.353  0.00  0.00    +0.094 S 
ATOM     16  O   UNL     1     -12.728  14.737  73.595  0.00  0.00    -0.150 OA
ATOM     17  O   UNL     1     -14.236  13.110  72.451  0.00  0.00    -0.150 OA
ENDBRANCH   1  15
TORSDOF 1
ENDMDL
MODEL 4
REMARK VINA RESULT:      -6.3      3.384      4.198
REMARK  Name = 
REMARK  1 active torsions:
REMARK  status: ('A' for Active; 'I' for Inactive)
REMARK    1  A    between atoms: S_2  and  C_5
REMARK                            x       y       z     vdW  Elec       q    Type
REMARK                         _______ _______ _______ _____ _____    ______ ____
ROOT
ATOM      1  C   UNL     1     -11.754  13.412  68.966  0.00  0.00    +0.137 A 
ATOM      2  C   UNL     1     -11.278  14.630  68.501  0.00  0.00    +0.078 A 
ATOM      3 CL   UNL     1     -10.970  14.741  66.787  0.00  0.00    -0.081 Cl
ATOM      4  C   UNL     1     -11.382  15.743  69.327  0.00  0.00    +0.030 A 
ATOM      5  C   UNL     1     -11.998  15.614  70.551  0.00  0.00    +0.087 A 
ATOM      6  N   UNL     1     -11.890  16.537  71.611  0.00  0.00    -0.215 NA
ATOM      7  C   UNL     1     -11.926  16.061  72.992  0.00  0.00    +0.227 C 
ATOM      8  N   UNL     1     -13.214  15.523  73.350  0.00  0.00    -0.054 NA
ATOM      9  S   UNL     1     -13.935  14.618  72.077  0.00  0.00    +0.080 S 
ATOM     10  O   UNL     1     -14.444  13.287  72.526  0.00  0.00    -0.152 OA
ATOM     11  O   UNL     1     -15.079  15.432  71.561  0.00  0.00    -0.152 OA
ATOM     12  C   UNL     1     -12.753  14.475  70.806  0.00  0.00    +0.140 A 
ATOM     13  C   UNL     1     -12.492  13.297  70.134  0.00  0.00    +0.042 A 
ENDROOT
BRANCH   1  15
ATOM     14  N   UNL     1     -11.267  10.710  69.510  0.00  0.00    +0.039 NA
ATOM     15  S   UNL     1     -11.063  11.937  68.299  0.00  0.00    +0.094 S 
ATOM     16  O   UNL     1      -9.588  12.092  68.070  0.00  0.00    -0.150 OA
ATOM     17  O   UNL     1     -11.804  11.549  67.058  0.00  0.00    -0.150 OA
ENDBRANCH   1  15
TORSDOF 1
ENDMDL
MODEL 5
REMARK VINA RESULT:      -6.1      3.699      5.432
REMARK  Name = 
REMARK  1 active torsions:
REMARK  status: ('A' for Active; 'I' for Inactive)
REMARK    1  A    between atoms: S_2  and  C_5
REMARK                            x       y       z     vdW  Elec       q    Type
REMARK                         _______ _______ _______ _____ _____    ______ ____
ROOT
ATOM      1  C   UNL     1      -8.945  15.330  66.599  0.00  0.00    +0.137 A 
ATOM      2  C   UNL     1      -8.686  14.110  67.209  0.00  0.00    +0.078 A 
ATOM      3 CL   UNL     1      -7.907  14.172  68.769  0.00  0.00    -0.081 Cl
ATOM      4  C   UNL     1      -9.327  12.976  66.724  0.00  0.00    +0.030 A 
ATOM      5  C   UNL     1     -10.232  13.105  65.696  0.00  0.00    +0.087 A 
ATOM      6  N   UNL     1     -10.701  12.045  64.894  0.00  0.00    -0.215 NA
ATOM      7  C   UNL     1     -11.033  12.289  63.492  0.00  0.00    +0.227 C 
ATOM      8  N   UNL     1     -12.180  13.150  63.345  0.00  0.00    -0.054 NA
ATOM      9  S   UNL     1     -12.211  14.422  64.503  0.00  0.00    +0.080 S 
ATOM     10  O   UNL     1     -12.466  15.760  63.889  0.00  0.00    -0.152 OA
ATOM     11  O   UNL     1     -13.314  14.106  65.464  0.00  0.00    -0.152 OA
ATOM     12  C   UNL     1     -10.702  14.373  65.371  0.00  0.00    +0.140 A 
ATOM     13  C   UNL     1      -9.948  15.493  65.657  0.00  0.00    +0.042 A 
ENDROOT
BRANCH   1  15
ATOM     14  N   UNL     1      -8.025  17.447  68.182  0.00  0.00    +0.039 NA
ATOM     15  S   UNL     1      -7.720  16.590  66.703  0.00  0.00    +0.094 S 
ATOM     16  O   UNL     1      -7.868  17.576  65.582  0.00  0.00    -0.150 OA
ATOM     17  O   UNL     1      -6.360  15.968  66.752  0.00  0.00    -0.150 OA
ENDBRANCH   1  15
TORSDOF 1
ENDMDL
MODEL 6
REMARK VINA RESULT:      -5.9      3.007      5.417
REMARK  Name = 
REMARK  1 active torsions:
REMARK  status: ('A' for Active; 'I' for Inactive)
REMARK    1  A    between atoms: S_2  and  C_5
REMARK                            x       y       z     vdW  Elec       q    Type
REMARK                         _______ _______ _______ _____ _____    ______ ____
ROOT
ATOM      1  C   UNL     1     -10.582  15.537  66.825  0.00  0.00    +0.137 A 
ATOM      2  C   UNL     1     -10.140  14.650  67.796  0.00  0.00    +0.078 A 
ATOM      3 CL   UNL     1     -10.158  15.228  69.443  0.00  0.00    -0.081 Cl
ATOM      4  C   UNL     1     -10.028  13.304  67.465  0.00  0.00    +0.030 A 
ATOM      5  C   UNL     1     -10.406  12.889  66.209  0.00  0.00    +0.087 A 
ATOM      6  N   UNL     1     -10.050  11.657  65.624  0.00  0.00    -0.215 NA
ATOM      7  C   UNL     1      -9.848  11.572  64.179  0.00  0.00    +0.227 C 
ATOM      8  N   UNL     1     -11.071  11.777  63.444  0.00  0.00    -0.054 NA
ATOM      9  S   UNL     1     -12.066  12.998  64.134  0.00  0.00    +0.080 S 
ATOM     10  O   UNL     1     -12.549  13.991  63.128  0.00  0.00    -0.152 OA
ATOM     11  O   UNL     1     -13.244  12.304  64.742  0.00  0.00    -0.152 OA
ATOM     12  C   UNL     1     -11.156  13.749  65.415  0.00  0.00    +0.140 A 
ATOM     13  C   UNL     1     -11.089  15.115  65.606  0.00  0.00    +0.042 A 
ENDROOT
BRANCH   1  15
ATOM     14  N   UNL     1      -8.438  17.228  67.440  0.00  0.00    +0.039 NA
ATOM     15  S   UNL     1     -10.107  17.227  66.962  0.00  0.00    +0.094 S 
ATOM     16  O   UNL     1     -10.880  17.914  68.049  0.00  0.00    -0.150 OA
ATOM     17  O   UNL     1     -10.252  17.900  65.633  0.00  0.00    -0.150 OA
ENDBRANCH   1  15
TORSDOF 1
ENDMDL
MODEL 7
REMARK VINA RESULT:      -5.9      2.863      3.011
REMARK  Name = 
REMARK  1 active torsions:
REMARK  status: ('A' for Active; 'I' for Inactive)
REMARK    1  A    between atoms: S_2  and  C_5
REMARK                            x       y       z     vdW  Elec       q    Type
REMARK                         _______ _______ _______ _____ _____    ______ ____
ROOT
ATOM      1  C   UNL     1     -10.636  14.018  65.348  0.00  0.00    +0.137 A 
ATOM      2  C   UNL     1      -9.869  13.327  66.275  0.00  0.00    +0.078 A 
ATOM      3 CL   UNL     1      -9.257  11.772  65.774  0.00  0.00    -0.081 Cl
ATOM      4  C   UNL     1      -9.374  14.019  67.375  0.00  0.00    +0.030 A 
ATOM      5  C   UNL     1      -9.615  15.369  67.481  0.00  0.00    +0.087 A 
ATOM      6  N   UNL     1      -9.475  16.125  68.663  0.00  0.00    -0.215 NA
ATOM      7  C   UNL     1     -10.361  17.260  68.907  0.00  0.00    +0.227 C 
ATOM      8  N   UNL     1     -10.137  18.337  67.975  0.00  0.00    -0.054 NA
ATOM      9  S   UNL     1      -9.820  17.780  66.379  0.00  0.00    +0.080 S 
ATOM     10  O   UNL     1     -10.640  18.482  65.345  0.00  0.00    -0.152 OA
ATOM     11  O   UNL     1      -8.370  18.037  66.111  0.00  0.00    -0.152 OA
ATOM     12  C   UNL     1     -10.079  16.058  66.366  0.00  0.00    +0.140 A 
ATOM     13  C   UNL     1     -10.773  15.397  65.373  0.00  0.00    +0.042 A 
ENDROOT
BRANCH   1  15
ATOM     14  N   UNL     1     -10.856  12.149  63.275  0.00  0.00    +0.039 NA
ATOM     15  S   UNL     1     -11.792  13.108  64.379  0.00  0.00    +0.094 S 
ATOM     16  O   UNL     1     -12.642  14.029  63.554  0.00  0.00    -0.150 OA
ATOM     17  O   UNL     1     -12.599  12.213  65.266  0.00  0.00    -0.150 OA
ENDBRANCH   1  15
TORSDOF 1
ENDMDL
MODEL 8
REMARK VINA RESULT:      -5.8      3.371      3.939
REMARK  Name = 
REMARK  1 active torsions:
REMARK  status: ('A' for Active; 'I' for Inactive)
REMARK    1  A    between atoms: S_2  and  C_5
REMARK                            x       y       z     vdW  Elec       q    Type
REMARK                         _______ _______ _______ _____ _____    ______ ____
ROOT
ATOM      1  C   UNL     1     -10.701  14.858  66.726  0.00  0.00    +0.137 A 
ATOM      2  C   UNL     1     -11.434  15.107  67.878  0.00  0.00    +0.078 A 
ATOM      3 CL   UNL     1     -12.034  13.710  68.735  0.00  0.00    -0.081 Cl
ATOM      4  C   UNL     1     -11.373  16.376  68.443  0.00  0.00    +0.030 A 
ATOM      5  C   UNL     1     -10.552  17.323  67.877  0.00  0.00    +0.087 A 
ATOM      6  N   UNL     1     -10.629  18.710  68.120  0.00  0.00    -0.215 NA
ATOM      7  C   UNL     1     -10.291  19.652  67.056  0.00  0.00    +0.227 C 
ATOM      8  N   UNL     1      -8.893  19.605  66.710  0.00  0.00    -0.054 NA
ATOM      9  S   UNL     1      -8.257  18.007  66.719  0.00  0.00    +0.080 S 
ATOM     10  O   UNL     1      -7.476  17.685  65.486  0.00  0.00    -0.152 OA
ATOM     11  O   UNL     1      -7.357  17.906  67.910  0.00  0.00    -0.152 OA
ATOM     12  C   UNL     1      -9.595  16.916  66.954  0.00  0.00    +0.140 A 
ATOM     13  C   UNL     1      -9.773  15.757  66.225  0.00  0.00    +0.042 A 
ENDROOT
BRANCH   1  15
ATOM     14  N   UNL     1     -12.919  13.914  65.303  0.00  0.00    +0.039 NA
ATOM     15  S   UNL     1     -11.251  13.579  65.649  0.00  0.00    +0.094 S 
ATOM     16  O   UNL     1     -11.199  12.244  66.332  0.00  0.00    -0.150 OA
ATOM     17  O   UNL     1     -10.456  13.612  64.381  0.00  0.00    -0.150 OA
ENDBRANCH   1  15
TORSDOF 1
ENDMDL
MODEL 9
REMARK VINA RESULT:      -5.6      3.473      5.197
REMARK  Name = 
REMARK  1 active torsions:
REMARK  status: ('A' for Active; 'I' for Inactive)
REMARK    1  A    between atoms: S_2  and  C_5
REMARK                            x       y       z     vdW  Elec       q    Type
REMARK                         _______ _______ _______ _____ _____    ______ ____
ROOT
ATOM      1  C   UNL     1     -10.014  15.740  66.889  0.00  0.00    +0.137 A 
ATOM      2  C   UNL     1      -8.936  15.421  67.703  0.00  0.00    +0.078 A 
ATOM      3 CL   UNL     1      -8.476  16.617  68.887  0.00  0.00    -0.081 Cl
ATOM      4  C   UNL     1      -8.513  14.097  67.756  0.00  0.00    +0.030 A 
ATOM      5  C   UNL     1      -9.204  13.144  67.046  0.00  0.00    +0.087 A 
ATOM      6  N   UNL     1      -8.719  11.856  66.737  0.00  0.00    -0.215 NA
ATOM      7  C   UNL     1      -9.111  11.215  65.484  0.00  0.00    +0.227 C 
ATOM      8  N   UNL     1     -10.516  10.893  65.453  0.00  0.00    -0.054 NA
ATOM      9  S   UNL     1     -11.494  12.108  66.177  0.00  0.00    +0.080 S 
ATOM     10  O   UNL     1     -12.658  12.500  65.325  0.00  0.00    -0.152 OA
ATOM     11  O   UNL     1     -12.000  11.545  67.468  0.00  0.00    -0.152 OA
ATOM     12  C   UNL     1     -10.460  13.461  66.541  0.00  0.00    +0.140 A 
ATOM     13  C   UNL     1     -10.796  14.774  66.276  0.00  0.00    +0.042 A 
ENDROOT
BRANCH   1  15
ATOM     14  N   UNL     1     -11.041  17.294  64.800  0.00  0.00    +0.039 NA
ATOM     15  S   UNL     1     -10.140  17.387  66.281  0.00  0.00    +0.094 S 
ATOM     16  O   UNL     1      -8.787  17.939  65.942  0.00  0.00    -0.150 OA
ATOM     17  O   UNL     1     -10.879  18.234  67.269  0.00  0.00    -0.150 OA
ENDBRANCH   1  15
TORSDOF 1
ENDMDL
