MODEL 1
REMARK VINA RESULT:      -6.3      0.000      0.000
REMARK  Name = 
REMARK  3 active torsions:
REMARK  status: ('A' for Active; 'I' for Inactive)
REMARK    1  A    between atoms: C_2  and  C_3
REMARK    2  A    between atoms: C_3  and  N_17
REMARK    3  A    between atoms: C_7  and  C_8
REMARK                            x       y       z     vdW  Elec       q    Type
REMARK                         _______ _______ _______ _____ _____    ______ ____
ROOT
ATOM      1  C   UNL     1     -12.684  12.966  71.480  0.00  0.00    +0.146 C 
ATOM      2  C   UNL     1     -12.173  13.358  70.322  0.00  0.00    +0.077 C 
ATOM      3  S   UNL     1     -11.918  12.404  68.822  0.00  0.00    -0.101 S 
ATOM      4  C   UNL     1     -10.196  13.113  68.369  0.00  0.00    +0.087 C 
ATOM      5  C   UNL     1     -10.754  14.609  68.305  0.00  0.00    +0.078 C 
ATOM      6  S   UNL     1     -11.281  14.892  70.028  0.00  0.00    -0.104 S 
ENDROOT
BRANCH   4   7
ATOM      7  C   UNL     1     -10.316  12.851  66.829  0.00  0.00    -0.001 A 
ATOM      8  C   UNL     1     -10.113  11.547  66.395  0.00  0.00    +0.055 A 
ATOM      9 CL   UNL     1      -9.085  10.461  67.299  0.00  0.00    -0.083 Cl
ATOM     10  C   UNL     1     -10.562  11.251  65.129  0.00  0.00    +0.022 A 
ATOM     11  C   UNL     1     -11.007  12.241  64.269  0.00  0.00    +0.058 A 
ATOM     12 CL   UNL     1     -12.103  11.813  62.958  0.00  0.00    -0.082 Cl
ATOM     13  C   UNL     1     -10.771  13.558  64.635  0.00  0.00    +0.011 A 
ATOM     14  C   UNL     1     -10.578  13.873  65.977  0.00  0.00    -0.002 A 
ENDBRANCH   4   7
BRANCH   1  15
ATOM     15  N   UNL     1     -13.366  13.987  72.217  0.00  0.00    -0.277 N 
ATOM     16  C   UNL     1     -14.370  14.756  71.753  0.00  0.00    +0.183 A 
ATOM     17  N   UNL     1     -14.384  15.938  72.417  0.00  0.00    -0.222 NA
ATOM     18  C   UNL     1     -13.392  15.938  73.309  0.00  0.00    +0.120 A 
ATOM     19  C   UNL     1     -12.775  14.720  73.193  0.00  0.00    +0.103 A 
ENDBRANCH   1  15
BRANCH   1  21
ATOM     20  N   UNL     1     -13.188  10.558  71.833  0.00  0.00    -0.189 NA
ATOM     21  C   UNL     1     -12.960  11.561  71.690  0.00  0.00    +0.119 C 
ENDBRANCH   1  21
TORSDOF 3
ENDMDL
MODEL 2
REMARK VINA RESULT:      -6.1      4.531      7.721
REMARK  Name = 
REMARK  3 active torsions:
REMARK  status: ('A' for Active; 'I' for Inactive)
REMARK    1  A    between atoms: C_2  and  C_3
REMARK    2  A    between atoms: C_3  and  N_17
REMARK    3  A    between atoms: C_7  and  C_8
REMARK                            x       y       z     vdW  Elec       q    Type
REMARK                         _______ _______ _______ _____ _____    ______ ____
ROOT
ATOM      1  C   UNL     1     -10.611  12.040  64.447  0.00  0.00    +0.146 C 
ATOM      2  C   UNL     1     -10.452  12.441  65.700  0.00  0.00    +0.077 C 
ATOM      3  S   UNL     1     -11.700  12.937  66.891  0.00  0.00    -0.101 S 
ATOM      4  C   UNL     1     -10.753  14.427  67.636  0.00  0.00    +0.087 C 
ATOM      5  C   UNL     1      -9.518  13.510  68.073  0.00  0.00    +0.078 C 
ATOM      6  S   UNL     1      -8.896  12.920  66.463  0.00  0.00    -0.104 S 
ENDROOT
BRANCH   4   7
ATOM      7  C   UNL     1     -11.461  14.386  69.033  0.00  0.00    -0.001 A 
ATOM      8  C   UNL     1     -11.677  15.604  69.665  0.00  0.00    +0.055 A 
ATOM      9 CL   UNL     1     -10.618  16.960  69.361  0.00  0.00    -0.083 Cl
ATOM     10  C   UNL     1     -12.595  15.604  70.689  0.00  0.00    +0.022 A 
ATOM     11  C   UNL     1     -13.123  14.424  71.187  0.00  0.00    +0.058 A 
ATOM     12 CL   UNL     1     -14.674  14.460  72.020  0.00  0.00    -0.082 Cl
ATOM     13  C   UNL     1     -12.528  13.238  70.783  0.00  0.00    +0.011 A 
ATOM     14  C   UNL     1     -11.813  13.200  69.590  0.00  0.00    -0.002 A 
ENDBRANCH   4   7
BRANCH   1  15
ATOM     15  N   UNL     1      -9.621  11.118  63.976  0.00  0.00    -0.277 N 
ATOM     16  C   UNL     1      -9.163  11.032  62.713  0.00  0.00    +0.183 A 
ATOM     17  N   UNL     1      -8.731   9.770  62.469  0.00  0.00    -0.222 NA
ATOM     18  C   UNL     1      -8.908   9.039  63.570  0.00  0.00    +0.120 A 
ATOM     19  C   UNL     1      -9.445   9.884  64.507  0.00  0.00    +0.103 A 
ENDBRANCH   1  15
BRANCH   1  21
ATOM     20  N   UNL     1     -12.875  12.172  63.429  0.00  0.00    -0.189 NA
ATOM     21  C   UNL     1     -11.922  12.126  63.840  0.00  0.00    +0.119 C 
ENDBRANCH   1  21
TORSDOF 3
ENDMDL
MODEL 3
REMARK VINA RESULT:      -6.0      2.677      4.651
REMARK  Name = 
REMARK  3 active torsions:
REMARK  status: ('A' for Active; 'I' for Inactive)
REMARK    1  A    between atoms: C_2  and  C_3
REMARK    2  A    between atoms: C_3  and  N_17
REMARK    3  A    between atoms: C_7  and  C_8
REMARK                            x       y       z     vdW  Elec       q    Type
REMARK                         _______ _______ _______ _____ _____    ______ ____
ROOT
ATOM      1  C   UNL     1     -12.281  10.891  70.557  0.00  0.00    +0.146 C 
ATOM      2  C   UNL     1     -11.625  11.302  69.481  0.00  0.00    +0.077 C 
ATOM      3  S   UNL     1     -11.226  12.978  68.976  0.00  0.00    -0.101 S 
ATOM      4  C   UNL     1     -11.595  12.769  67.108  0.00  0.00    +0.087 C 
ATOM      5  C   UNL     1     -10.526  11.590  66.959  0.00  0.00    +0.078 C 
ATOM      6  S   UNL     1     -11.231  10.300  68.040  0.00  0.00    -0.104 S 
ENDROOT
BRANCH   4   7
ATOM      7  C   UNL     1     -10.627  13.901  66.624  0.00  0.00    -0.001 A 
ATOM      8  C   UNL     1     -11.095  14.745  65.625  0.00  0.00    +0.055 A 
ATOM      9 CL   UNL     1     -12.283  14.183  64.473  0.00  0.00    -0.083 Cl
ATOM     10  C   UNL     1     -10.412  15.928  65.458  0.00  0.00    +0.022 A 
ATOM     11  C   UNL     1      -9.215  16.170  66.112  0.00  0.00    +0.058 A 
ATOM     12 CL   UNL     1      -8.697  17.834  66.369  0.00  0.00    -0.082 Cl
ATOM     13  C   UNL     1      -8.611  15.100  66.755  0.00  0.00    +0.011 A 
ATOM     14  C   UNL     1      -9.383  14.013  67.154  0.00  0.00    -0.002 A 
ENDBRANCH   4   7
BRANCH   1  15
ATOM     15  N   UNL     1     -11.893   9.602  71.046  0.00  0.00    -0.277 N 
ATOM     16  C   UNL     1     -12.665   8.770  71.771  0.00  0.00    +0.183 A 
ATOM     17  N   UNL     1     -11.882   7.974  72.539  0.00  0.00    -0.222 NA
ATOM     18  C   UNL     1     -10.605   8.288  72.315  0.00  0.00    +0.120 A 
ATOM     19  C   UNL     1     -10.617   9.286  71.376  0.00  0.00    +0.103 A 
ENDBRANCH   1  15
BRANCH   1  21
ATOM     20  N   UNL     1     -13.380  12.550  72.045  0.00  0.00    -0.189 NA
ATOM     21  C   UNL     1     -12.918  11.870  71.411  0.00  0.00    +0.119 C 
ENDBRANCH   1  21
TORSDOF 3
ENDMDL
MODEL 4
REMARK VINA RESULT:      -5.9      5.762      7.784
REMARK  Name = 
REMARK  3 active torsions:
REMARK  status: ('A' for Active; 'I' for Inactive)
REMARK    1  A    between atoms: C_2  and  C_3
REMARK    2  A    between atoms: C_3  and  N_17
REMARK    3  A    between atoms: C_7  and  C_8
REMARK                            x       y       z     vdW  Elec       q    Type
REMARK                         _______ _______ _______ _____ _____    ______ ____
ROOT
ATOM      1  C   UNL     1     -10.921  15.391  67.767  0.00  0.00    +0.146 C 
ATOM      2  C   UNL     1      -9.738  15.977  67.660  0.00  0.00    +0.077 C 
ATOM      3  S   UNL     1      -8.879  17.007  68.854  0.00  0.00    -0.101 S 
ATOM      4  C   UNL     1      -8.217  18.316  67.621  0.00  0.00    +0.087 C 
ATOM      5  C   UNL     1      -7.431  17.215  66.769  0.00  0.00    +0.078 C 
ATOM      6  S   UNL     1      -8.793  16.176  66.143  0.00  0.00    -0.104 S 
ENDROOT
BRANCH   4   7
ATOM      7  C   UNL     1      -6.980  18.738  68.483  0.00  0.00    -0.001 A 
ATOM      8  C   UNL     1      -6.567  20.062  68.386  0.00  0.00    +0.055 A 
ATOM      9 CL   UNL     1      -6.854  20.975  66.925  0.00  0.00    -0.083 Cl
ATOM     10  C   UNL     1      -5.737  20.515  69.385  0.00  0.00    +0.022 A 
ATOM     11  C   UNL     1      -5.188  19.650  70.318  0.00  0.00    +0.058 A 
ATOM     12 CL   UNL     1      -4.663  20.285  71.874  0.00  0.00    -0.082 Cl
ATOM     13  C   UNL     1      -5.314  18.289  70.078  0.00  0.00    +0.011 A 
ATOM     14  C   UNL     1      -6.341  17.828  69.261  0.00  0.00    -0.002 A 
ENDBRANCH   4   7
BRANCH   1  15
ATOM     15  N   UNL     1     -11.060  14.169  67.033  0.00  0.00    -0.277 N 
ATOM     16  C   UNL     1     -12.063  13.868  66.186  0.00  0.00    +0.183 A 
ATOM     17  N   UNL     1     -12.227  12.523  66.132  0.00  0.00    -0.222 NA
ATOM     18  C   UNL     1     -11.333  11.952  66.942  0.00  0.00    +0.120 A 
ATOM     19  C   UNL     1     -10.601  12.976  67.484  0.00  0.00    +0.103 A 
ENDBRANCH   1  15
BRANCH   1  21
ATOM     20  N   UNL     1     -12.333  15.906  69.747  0.00  0.00    -0.189 NA
ATOM     21  C   UNL     1     -11.758  15.693  68.909  0.00  0.00    +0.119 C 
ENDBRANCH   1  21
TORSDOF 3
ENDMDL
MODEL 5
REMARK VINA RESULT:      -5.8      5.012      6.497
REMARK  Name = 
REMARK  3 active torsions:
REMARK  status: ('A' for Active; 'I' for Inactive)
REMARK    1  A    between atoms: C_2  and  C_3
REMARK    2  A    between atoms: C_3  and  N_17
REMARK    3  A    between atoms: C_7  and  C_8
REMARK                            x       y       z     vdW  Elec       q    Type
REMARK                         _______ _______ _______ _____ _____    ______ ____
ROOT
ATOM      1  C   UNL     1      -8.528  18.826  67.950  0.00  0.00    +0.146 C 
ATOM      2  C   UNL     1      -8.619  17.517  67.760  0.00  0.00    +0.077 C 
ATOM      3  S   UNL     1      -9.730  16.610  66.681  0.00  0.00    -0.101 S 
ATOM      4  C   UNL     1     -10.134  15.178  67.888  0.00  0.00    +0.087 C 
ATOM      5  C   UNL     1      -8.596  14.764  68.018  0.00  0.00    +0.078 C 
ATOM      6  S   UNL     1      -7.868  16.248  68.789  0.00  0.00    -0.104 S 
ENDROOT
BRANCH   4   7
ATOM      7  C   UNL     1     -10.471  14.124  66.779  0.00  0.00    -0.001 A 
ATOM      8  C   UNL     1     -11.288  13.061  67.149  0.00  0.00    +0.055 A 
ATOM      9 CL   UNL     1     -11.316  12.498  68.802  0.00  0.00    -0.083 Cl
ATOM     10  C   UNL     1     -11.866  12.353  66.121  0.00  0.00    +0.022 A 
ATOM     11  C   UNL     1     -11.500  12.563  64.801  0.00  0.00    +0.058 A 
ATOM     12 CL   UNL     1     -12.624  12.128  63.518  0.00  0.00    -0.082 Cl
ATOM     13  C   UNL     1     -10.374  13.338  64.567  0.00  0.00    +0.011 A 
ATOM     14  C   UNL     1      -9.955  14.250  65.531  0.00  0.00    -0.002 A 
ENDBRANCH   4   7
BRANCH   1  15
ATOM     15  N   UNL     1      -7.220  19.297  68.296  0.00  0.00    -0.277 N 
ATOM     16  C   UNL     1      -6.833  19.724  69.513  0.00  0.00    +0.183 A 
ATOM     17  N   UNL     1      -5.813  20.608  69.384  0.00  0.00    -0.222 NA
ATOM     18  C   UNL     1      -5.539  20.755  68.087  0.00  0.00    +0.120 A 
ATOM     19  C   UNL     1      -6.403  19.928  67.418  0.00  0.00    +0.103 A 
ENDBRANCH   1  15
BRANCH   1  21
ATOM     20  N   UNL     1     -10.207  20.336  66.912  0.00  0.00    -0.189 NA
ATOM     21  C   UNL     1      -9.519  19.696  67.354  0.00  0.00    +0.119 C 
ENDBRANCH   1  21
TORSDOF 3
ENDMDL
MODEL 6
REMARK VINA RESULT:      -5.8      4.933      7.263
REMARK  Name = 
REMARK  3 active torsions:
REMARK  status: ('A' for Active; 'I' for Inactive)
REMARK    1  A    between atoms: C_2  and  C_3
REMARK    2  A    between atoms: C_3  and  N_17
REMARK    3  A    between atoms: C_7  and  C_8
REMARK                            x       y       z     vdW  Elec       q    Type
REMARK                         _______ _______ _______ _____ _____    ______ ____
ROOT
ATOM      1  C   UNL     1     -11.512  13.200  66.780  0.00  0.00    +0.146 C 
ATOM      2  C   UNL     1     -10.765  14.281  66.612  0.00  0.00    +0.077 C 
ATOM      3  S   UNL     1      -9.709  15.118  67.798  0.00  0.00    -0.101 S 
ATOM      4  C   UNL     1     -10.166  16.914  67.314  0.00  0.00    +0.087 C 
ATOM      5  C   UNL     1      -9.694  16.699  65.803  0.00  0.00    +0.078 C 
ATOM      6  S   UNL     1     -10.854  15.417  65.221  0.00  0.00    -0.104 S 
ENDROOT
BRANCH   4   7
ATOM      7  C   UNL     1      -8.821  17.557  67.793  0.00  0.00    -0.001 A 
ATOM      8  C   UNL     1      -8.852  18.907  68.124  0.00  0.00    +0.055 A 
ATOM      9 CL   UNL     1     -10.011  19.978  67.374  0.00  0.00    -0.083 Cl
ATOM     10  C   UNL     1      -7.794  19.374  68.869  0.00  0.00    +0.022 A 
ATOM     11  C   UNL     1      -6.674  18.594  69.105  0.00  0.00    +0.058 A 
ATOM     12 CL   UNL     1      -5.659  18.946  70.501  0.00  0.00    -0.082 Cl
ATOM     13  C   UNL     1      -6.550  17.420  68.378  0.00  0.00    +0.011 A 
ATOM     14  C   UNL     1      -7.686  16.816  67.849  0.00  0.00    -0.002 A 
ENDBRANCH   4   7
BRANCH   1  15
ATOM     15  N   UNL     1     -11.693  12.400  65.606  0.00  0.00    -0.277 N 
ATOM     16  C   UNL     1     -10.713  11.798  64.905  0.00  0.00    +0.183 A 
ATOM     17  N   UNL     1     -11.102  11.647  63.616  0.00  0.00    -0.222 NA
ATOM     18  C   UNL     1     -12.329  12.150  63.478  0.00  0.00    +0.120 A 
ATOM     19  C   UNL     1     -12.698  12.600  64.719  0.00  0.00    +0.103 A 
ENDBRANCH   1  15
BRANCH   1  21
ATOM     20  N   UNL     1     -11.742  12.250  69.066  0.00  0.00    -0.189 NA
ATOM     21  C   UNL     1     -11.664  12.648  68.110  0.00  0.00    +0.119 C 
ENDBRANCH   1  21
TORSDOF 3
ENDMDL
MODEL 7
REMARK VINA RESULT:      -5.8      5.324      6.855
REMARK  Name = 
REMARK  3 active torsions:
REMARK  status: ('A' for Active; 'I' for Inactive)
REMARK    1  A    between atoms: C_2  and  C_3
REMARK    2  A    between atoms: C_3  and  N_17
REMARK    3  A    between atoms: C_7  and  C_8
REMARK                            x       y       z     vdW  Elec       q    Type
REMARK                         _______ _______ _______ _____ _____    ______ ____
ROOT
ATOM      1  C   UNL     1      -7.112  18.073  67.594  0.00  0.00    +0.146 C 
ATOM      2  C   UNL     1      -8.261  17.461  67.841  0.00  0.00    +0.077 C 
ATOM      3  S   UNL     1      -8.754  15.782  67.439  0.00  0.00    -0.101 S 
ATOM      4  C   UNL     1     -10.546  16.176  66.885  0.00  0.00    +0.087 C 
ATOM      5  C   UNL     1     -10.913  16.824  68.299  0.00  0.00    +0.078 C 
ATOM      6  S   UNL     1      -9.787  18.257  68.365  0.00  0.00    -0.104 S 
ENDROOT
BRANCH   4   7
ATOM      7  C   UNL     1     -11.132  14.763  67.219  0.00  0.00    -0.001 A 
ATOM      8  C   UNL     1     -11.522  13.973  66.144  0.00  0.00    +0.055 A 
ATOM      9 CL   UNL     1     -12.048  14.708  64.649  0.00  0.00    -0.083 Cl
ATOM     10  C   UNL     1     -11.691  12.633  66.404  0.00  0.00    +0.022 A 
ATOM     11  C   UNL     1     -11.667  12.138  67.698  0.00  0.00    +0.058 A 
ATOM     12 CL   UNL     1     -11.280  10.440  67.962  0.00  0.00    -0.082 Cl
ATOM     13  C   UNL     1     -11.700  13.059  68.734  0.00  0.00    +0.011 A 
ATOM     14  C   UNL     1     -11.268  14.363  68.508  0.00  0.00    -0.002 A 
ENDBRANCH   4   7
BRANCH   1  15
ATOM     15  N   UNL     1      -6.745  19.079  68.544  0.00  0.00    -0.277 N 
ATOM     16  C   UNL     1      -6.454  20.363  68.258  0.00  0.00    +0.183 A 
ATOM     17  N   UNL     1      -5.618  20.862  69.202  0.00  0.00    -0.222 NA
ATOM     18  C   UNL     1      -5.367  19.906  70.097  0.00  0.00    +0.120 A 
ATOM     19  C   UNL     1      -6.082  18.808  69.694  0.00  0.00    +0.103 A 
ENDBRANCH   1  15
BRANCH   1  21
ATOM     20  N   UNL     1      -5.401  16.964  66.172  0.00  0.00    -0.189 NA
ATOM     21  C   UNL     1      -6.126  17.413  66.764  0.00  0.00    +0.119 C 
ENDBRANCH   1  21
TORSDOF 3
ENDMDL
MODEL 8
REMARK VINA RESULT:      -5.7      6.506      8.221
REMARK  Name = 
REMARK  3 active torsions:
REMARK  status: ('A' for Active; 'I' for Inactive)
REMARK    1  A    between atoms: C_2  and  C_3
REMARK    2  A    between atoms: C_3  and  N_17
REMARK    3  A    between atoms: C_7  and  C_8
REMARK                            x       y       z     vdW  Elec       q    Type
REMARK                         _______ _______ _______ _____ _____    ______ ____
ROOT
ATOM      1  C   UNL     1      -9.705  15.475  67.053  0.00  0.00    +0.146 C 
ATOM      2  C   UNL     1      -9.376  16.756  67.125  0.00  0.00    +0.077 C 
ATOM      3  S   UNL     1      -7.743  17.500  67.176  0.00  0.00    -0.101 S 
ATOM      4  C   UNL     1      -8.119  18.833  68.499  0.00  0.00    +0.087 C 
ATOM      5  C   UNL     1      -9.287  19.476  67.618  0.00  0.00    +0.078 C 
ATOM      6  S   UNL     1     -10.491  18.109  67.528  0.00  0.00    -0.104 S 
ENDROOT
BRANCH   4   7
ATOM      7  C   UNL     1      -7.016  19.841  68.030  0.00  0.00    -0.001 A 
ATOM      8  C   UNL     1      -6.017  20.152  68.945  0.00  0.00    +0.055 A 
ATOM      9 CL   UNL     1      -6.332  20.076  70.662  0.00  0.00    -0.083 Cl
ATOM     10  C   UNL     1      -4.881  20.733  68.431  0.00  0.00    +0.022 A 
ATOM     11  C   UNL     1      -4.819  21.162  67.115  0.00  0.00    +0.058 A 
ATOM     12 CL   UNL     1      -3.248  21.323  66.336  0.00  0.00    -0.082 Cl
ATOM     13  C   UNL     1      -6.007  21.200  66.400  0.00  0.00    +0.011 A 
ATOM     14  C   UNL     1      -7.070  20.392  66.792  0.00  0.00    -0.002 A 
ENDBRANCH   4   7
BRANCH   1  15
ATOM     15  N   UNL     1     -10.940  15.204  66.380  0.00  0.00    -0.277 N 
ATOM     16  C   UNL     1     -11.894  14.349  66.799  0.00  0.00    +0.183 A 
ATOM     17  N   UNL     1     -12.593  13.889  65.733  0.00  0.00    -0.222 NA
ATOM     18  C   UNL     1     -12.096  14.441  64.625  0.00  0.00    +0.120 A 
ATOM     19  C   UNL     1     -11.083  15.269  65.034  0.00  0.00    +0.103 A 
ENDBRANCH   1  15
BRANCH   1  21
ATOM     20  N   UNL     1      -7.943  13.733  67.249  0.00  0.00    -0.189 NA
ATOM     21  C   UNL     1      -8.668  14.473  67.173  0.00  0.00    +0.119 C 
ENDBRANCH   1  21
TORSDOF 3
ENDMDL
MODEL 9
REMARK VINA RESULT:      -5.7      4.769      6.413
REMARK  Name = 
REMARK  3 active torsions:
REMARK  status: ('A' for Active; 'I' for Inactive)
REMARK    1  A    between atoms: C_2  and  C_3
REMARK    2  A    between atoms: C_3  and  N_17
REMARK    3  A    between atoms: C_7  and  C_8
REMARK                            x       y       z     vdW  Elec       q    Type
REMARK                         _______ _______ _______ _____ _____    ______ ____
ROOT
ATOM      1  C   UNL     1     -11.605  14.463  68.861  0.00  0.00    +0.146 C 
ATOM      2  C   UNL     1     -10.643  15.027  68.145  0.00  0.00    +0.077 C 
ATOM      3  S   UNL     1      -9.940  16.671  68.299  0.00  0.00    -0.101 S 
ATOM      4  C   UNL     1      -9.814  17.063  66.427  0.00  0.00    +0.087 C 
ATOM      5  C   UNL     1      -8.882  15.793  66.155  0.00  0.00    +0.078 C 
ATOM      6  S   UNL     1      -9.989  14.409  66.587  0.00  0.00    -0.104 S 
ENDROOT
BRANCH   4   7
ATOM      7  C   UNL     1      -8.632  18.082  66.555  0.00  0.00    -0.001 A 
ATOM      8  C   UNL     1      -8.968  19.426  66.666  0.00  0.00    +0.055 A 
ATOM      9 CL   UNL     1     -10.452  20.028  65.968  0.00  0.00    -0.083 Cl
ATOM     10  C   UNL     1      -7.982  20.264  67.131  0.00  0.00    +0.022 A 
ATOM     11  C   UNL     1      -6.677  19.827  67.289  0.00  0.00    +0.058 A 
ATOM     12 CL   UNL     1      -5.616  20.674  68.412  0.00  0.00    -0.082 Cl
ATOM     13  C   UNL     1      -6.346  18.593  66.748  0.00  0.00    +0.011 A 
ATOM     14  C   UNL     1      -7.346  17.650  66.529  0.00  0.00    -0.002 A 
ENDBRANCH   4   7
BRANCH   1  15
ATOM     15  N   UNL     1     -11.509  13.040  68.990  0.00  0.00    -0.277 N 
ATOM     16  C   UNL     1     -11.718  12.144  68.006  0.00  0.00    +0.183 A 
ATOM     17  N   UNL     1     -12.125  10.967  68.540  0.00  0.00    -0.222 NA
ATOM     18  C   UNL     1     -12.183  11.097  69.866  0.00  0.00    +0.120 A 
ATOM     19  C   UNL     1     -11.783  12.379  70.141  0.00  0.00    +0.103 A 
ENDBRANCH   1  15
BRANCH   1  21
ATOM     20  N   UNL     1     -12.835  15.845  70.521  0.00  0.00    -0.189 NA
ATOM     21  C   UNL     1     -12.336  15.267  69.817  0.00  0.00    +0.119 C 
ENDBRANCH   1  21
TORSDOF 3
ENDMDL
