MODEL 1
REMARK VINA RESULT:      -4.9      0.000      0.000
REMARK  Name = 
REMARK  5 active torsions:
REMARK  status: ('A' for Active; 'I' for Inactive)
REMARK    1  A    between atoms: N_4  and  CA_5
REMARK    2  A    between atoms: CA_5  and  CB_6
REMARK    3  A    between atoms: CA_5  and  C_11
REMARK    4  A    between atoms: CB_6  and  CG_7
REMARK    5  A    between atoms: CG_7  and  CD_8
REMARK                            x       y       z     vdW  Elec       q    Type
REMARK                         _______ _______ _______ _____ _____    ______ ____
ROOT
ATOM      1  CA  GLU A   1     -11.738  13.427  65.579  0.00  0.00    +0.200 C 
ENDROOT
BRANCH   1   4
ATOM      2  N   UNK A   0      -9.832  11.437  68.003  0.00  0.00    -0.068 NA
ATOM      3  C   UNK A   0     -10.919  11.784  67.203  0.00  0.00    +0.359 C 
ATOM      4  N   GLU A   1     -10.845  12.115  65.820  0.00  0.00    -0.176 NA
ATOM      5  O   UNK A   0     -12.044  11.357  67.534  0.00  0.00    -0.247 OA
ENDBRANCH   1   4
BRANCH   1   6
ATOM      6  C   GLU A   1     -12.273  12.878  64.125  0.00  0.00    +0.384 C 
ATOM      7  OXT GLU A   1     -12.546  13.807  63.160  0.00  0.00    -0.244 OA
ATOM      8  O   GLU A   1     -13.312  12.207  64.440  0.00  0.00    -0.244 OA
ENDBRANCH   1   6
BRANCH   1   9
ATOM      9  CB  GLU A   1     -10.410  14.244  64.957  0.00  0.00    +0.045 C 
BRANCH   9  10
ATOM     10  CG  GLU A   1     -10.207  15.391  65.900  0.00  0.00    +0.116 C 
BRANCH  10  11
ATOM     11  CD  GLU A   1     -10.689  16.691  65.344  0.00  0.00    +0.365 C 
ATOM     12  OE2 GLU A   1      -9.962  17.810  65.723  0.00  0.00    -0.246 OA
ATOM     13  OE1 GLU A   1     -11.286  16.727  64.239  0.00  0.00    -0.246 OA
ENDBRANCH  10  11
ENDBRANCH   9  10
ENDBRANCH   1   9
TORSDOF 5
ENDMDL
MODEL 2
REMARK VINA RESULT:      -4.8      2.808      3.895
REMARK  Name = 
REMARK  5 active torsions:
REMARK  status: ('A' for Active; 'I' for Inactive)
REMARK    1  A    between atoms: N_4  and  CA_5
REMARK    2  A    between atoms: CA_5  and  CB_6
REMARK    3  A    between atoms: CA_5  and  C_11
REMARK    4  A    between atoms: CB_6  and  CG_7
REMARK    5  A    between atoms: CG_7  and  CD_8
REMARK                            x       y       z     vdW  Elec       q    Type
REMARK                         _______ _______ _______ _____ _____    ______ ____
ROOT
ATOM      1  CA  GLU A   1     -11.997  13.968  67.720  0.00  0.00    +0.200 C 
ENDROOT
BRANCH   1   4
ATOM      2  N   UNK A   0     -10.741  17.293  68.632  0.00  0.00    -0.068 NA
ATOM      3  C   UNK A   0     -11.411  16.085  68.808  0.00  0.00    +0.359 C 
ATOM      4  N   GLU A   1     -10.875  14.799  68.512  0.00  0.00    -0.176 NA
ATOM      5  O   UNK A   0     -12.312  16.040  69.671  0.00  0.00    -0.247 OA
ENDBRANCH   1   4
BRANCH   1   6
ATOM      6  C   GLU A   1     -11.514  12.547  68.392  0.00  0.00    +0.384 C 
ATOM      7  OXT GLU A   1     -12.039  11.394  67.878  0.00  0.00    -0.244 OA
ATOM      8  O   GLU A   1     -11.820  12.696  69.621  0.00  0.00    -0.244 OA
ENDBRANCH   1   6
BRANCH   1   9
ATOM      9  CB  GLU A   1     -10.996  13.852  66.377  0.00  0.00    +0.045 C 
BRANCH   9  10
ATOM     10  CG  GLU A   1     -11.730  14.600  65.305  0.00  0.00    +0.116 C 
BRANCH  10  11
ATOM     11  CD  GLU A   1     -10.953  15.758  64.771  0.00  0.00    +0.365 C 
ATOM     12  OE2 GLU A   1     -11.653  16.610  63.928  0.00  0.00    -0.246 OA
ATOM     13  OE1 GLU A   1      -9.998  16.241  65.429  0.00  0.00    -0.246 OA
ENDBRANCH  10  11
ENDBRANCH   9  10
ENDBRANCH   1   9
TORSDOF 5
ENDMDL
MODEL 3
REMARK VINA RESULT:      -4.8      1.997      4.703
REMARK  Name = 
REMARK  5 active torsions:
REMARK  status: ('A' for Active; 'I' for Inactive)
REMARK    1  A    between atoms: N_4  and  CA_5
REMARK    2  A    between atoms: CA_5  and  CB_6
REMARK    3  A    between atoms: CA_5  and  C_11
REMARK    4  A    between atoms: CB_6  and  CG_7
REMARK    5  A    between atoms: CG_7  and  CD_8
REMARK                            x       y       z     vdW  Elec       q    Type
REMARK                         _______ _______ _______ _____ _____    ______ ____
ROOT
ATOM      1  CA  GLU A   1     -10.954  13.691  64.694  0.00  0.00    +0.200 C 
ENDROOT
BRANCH   1   4
ATOM      2  N   UNK A   0     -10.348  17.189  65.622  0.00  0.00    -0.068 NA
ATOM      3  C   UNK A   0     -10.952  16.129  64.949  0.00  0.00    +0.359 C 
ATOM      4  N   GLU A   1     -11.449  14.946  65.565  0.00  0.00    -0.176 NA
ATOM      5  O   UNK A   0     -11.512  16.374  63.861  0.00  0.00    -0.247 OA
ENDBRANCH   1   4
BRANCH   1   6
ATOM      6  C   GLU A   1     -12.433  12.975  64.761  0.00  0.00    +0.384 C 
ATOM      7  OXT GLU A   1     -12.979  12.542  63.586  0.00  0.00    -0.244 OA
ATOM      8  O   GLU A   1     -13.156  13.869  65.315  0.00  0.00    -0.244 OA
ENDBRANCH   1   6
BRANCH   1   9
ATOM      9  CB  GLU A   1     -10.356  12.941  66.071  0.00  0.00    +0.045 C 
BRANCH   9  10
ATOM     10  CG  GLU A   1     -10.631  11.485  65.846  0.00  0.00    +0.116 C 
BRANCH  10  11
ATOM     11  CD  GLU A   1     -10.950  10.753  67.109  0.00  0.00    +0.365 C 
ATOM     12  OE2 GLU A   1     -12.033  11.242  67.826  0.00  0.00    -0.246 OA
ATOM     13  OE1 GLU A   1     -10.675   9.533  67.224  0.00  0.00    -0.246 OA
ENDBRANCH  10  11
ENDBRANCH   9  10
ENDBRANCH   1   9
TORSDOF 5
ENDMDL
MODEL 4
REMARK VINA RESULT:      -4.7      1.755      4.357
REMARK  Name = 
REMARK  5 active torsions:
REMARK  status: ('A' for Active; 'I' for Inactive)
REMARK    1  A    between atoms: N_4  and  CA_5
REMARK    2  A    between atoms: CA_5  and  CB_6
REMARK    3  A    between atoms: CA_5  and  C_11
REMARK    4  A    between atoms: CB_6  and  CG_7
REMARK    5  A    between atoms: CG_7  and  CD_8
REMARK                            x       y       z     vdW  Elec       q    Type
REMARK                         _______ _______ _______ _____ _____    ______ ____
ROOT
ATOM      1  CA  GLU A   1     -11.704  14.664  65.647  0.00  0.00    +0.200 C 
ENDROOT
BRANCH   1   4
ATOM      2  N   UNK A   0     -11.544  11.611  63.617  0.00  0.00    -0.068 NA
ATOM      3  C   UNK A   0     -11.776  12.958  63.889  0.00  0.00    +0.359 C 
ATOM      4  N   GLU A   1     -10.870  13.825  64.562  0.00  0.00    -0.176 NA
ATOM      5  O   UNK A   0     -12.564  13.574  63.143  0.00  0.00    -0.247 OA
ENDBRANCH   1   4
BRANCH   1   6
ATOM      6  C   GLU A   1     -10.887  16.049  65.304  0.00  0.00    +0.384 C 
ATOM      7  OXT GLU A   1     -11.289  16.765  64.211  0.00  0.00    -0.244 OA
ATOM      8  O   GLU A   1      -9.683  15.646  65.186  0.00  0.00    -0.244 OA
ENDBRANCH   1   6
BRANCH   1   9
ATOM      9  CB  GLU A   1     -10.662  14.167  66.866  0.00  0.00    +0.045 C 
BRANCH   9  10
ATOM     10  CG  GLU A   1     -11.572  13.754  67.984  0.00  0.00    +0.116 C 
BRANCH  10  11
ATOM     11  CD  GLU A   1     -11.638  12.273  68.159  0.00  0.00    +0.365 C 
ATOM     12  OE2 GLU A   1     -11.923  11.834  69.445  0.00  0.00    -0.246 OA
ATOM     13  OE1 GLU A   1     -11.974  11.533  67.201  0.00  0.00    -0.246 OA
ENDBRANCH  10  11
ENDBRANCH   9  10
ENDBRANCH   1   9
TORSDOF 5
ENDMDL
MODEL 5
REMARK VINA RESULT:      -4.7      1.616      3.096
REMARK  Name = 
REMARK  5 active torsions:
REMARK  status: ('A' for Active; 'I' for Inactive)
REMARK    1  A    between atoms: N_4  and  CA_5
REMARK    2  A    between atoms: CA_5  and  CB_6
REMARK    3  A    between atoms: CA_5  and  C_11
REMARK    4  A    between atoms: CB_6  and  CG_7
REMARK    5  A    between atoms: CG_7  and  CD_8
REMARK                            x       y       z     vdW  Elec       q    Type
REMARK                         _______ _______ _______ _____ _____    ______ ____
ROOT
ATOM      1  CA  GLU A   1     -10.829  12.884  66.462  0.00  0.00    +0.200 C 
ENDROOT
BRANCH   1   4
ATOM      2  N   UNK A   0     -12.723  12.738  63.322  0.00  0.00    -0.068 NA
ATOM      3  C   UNK A   0     -11.907  12.267  64.349  0.00  0.00    +0.359 C 
ATOM      4  N   GLU A   1     -12.180  12.405  65.740  0.00  0.00    -0.176 NA
ATOM      5  O   UNK A   0     -11.161  11.298  64.101  0.00  0.00    -0.247 OA
ENDBRANCH   1   4
BRANCH   1   6
ATOM      6  C   GLU A   1     -11.416  12.517  67.953  0.00  0.00    +0.384 C 
ATOM      7  OXT GLU A   1     -12.117  11.351  68.087  0.00  0.00    -0.244 OA
ATOM      8  O   GLU A   1     -12.136  13.533  68.233  0.00  0.00    -0.244 OA
ENDBRANCH   1   6
BRANCH   1   9
ATOM      9  CB  GLU A   1     -11.371  14.473  66.469  0.00  0.00    +0.045 C 
BRANCH   9  10
ATOM     10  CG  GLU A   1     -10.298  15.231  65.746  0.00  0.00    +0.116 C 
BRANCH  10  11
ATOM     11  CD  GLU A   1     -10.758  16.568  65.264  0.00  0.00    +0.365 C 
ATOM     12  OE2 GLU A   1     -10.005  17.651  65.695  0.00  0.00    -0.246 OA
ATOM     13  OE1 GLU A   1     -11.364  16.675  64.169  0.00  0.00    -0.246 OA
ENDBRANCH  10  11
ENDBRANCH   9  10
ENDBRANCH   1   9
TORSDOF 5
ENDMDL
MODEL 6
REMARK VINA RESULT:      -4.7      1.448      2.147
REMARK  Name = 
REMARK  5 active torsions:
REMARK  status: ('A' for Active; 'I' for Inactive)
REMARK    1  A    between atoms: N_4  and  CA_5
REMARK    2  A    between atoms: CA_5  and  CB_6
REMARK    3  A    between atoms: CA_5  and  C_11
REMARK    4  A    between atoms: CB_6  and  CG_7
REMARK    5  A    between atoms: CG_7  and  CD_8
REMARK                            x       y       z     vdW  Elec       q    Type
REMARK                         _______ _______ _______ _____ _____    ______ ____
ROOT
ATOM      1  CA  GLU A   1     -11.281  14.885  65.869  0.00  0.00    +0.200 C 
ENDROOT
BRANCH   1   4
ATOM      2  N   UNK A   0     -10.106  11.589  66.971  0.00  0.00    -0.068 NA
ATOM      3  C   UNK A   0     -10.958  12.506  66.360  0.00  0.00    +0.359 C 
ATOM      4  N   GLU A   1     -10.550  13.520  65.447  0.00  0.00    -0.176 NA
ATOM      5  O   UNK A   0     -12.153  12.179  66.210  0.00  0.00    -0.247 OA
ENDBRANCH   1   4
BRANCH   1   6
ATOM      6  C   GLU A   1     -11.536  15.312  64.301  0.00  0.00    +0.384 C 
ATOM      7  OXT GLU A   1     -11.592  16.646  64.011  0.00  0.00    -0.244 OA
ATOM      8  O   GLU A   1     -12.632  14.723  64.022  0.00  0.00    -0.244 OA
ENDBRANCH   1   6
BRANCH   1   9
ATOM      9  CB  GLU A   1      -9.799  15.664  66.002  0.00  0.00    +0.045 C 
BRANCH   9  10
ATOM     10  CG  GLU A   1      -9.888  16.404  67.303  0.00  0.00    +0.116 C 
BRANCH  10  11
ATOM     11  CD  GLU A   1     -10.000  17.882  67.122  0.00  0.00    +0.365 C 
ATOM     12  OE2 GLU A   1      -9.483  18.380  65.934  0.00  0.00    -0.246 OA
ATOM     13  OE1 GLU A   1     -10.934  18.521  67.667  0.00  0.00    -0.246 OA
ENDBRANCH  10  11
ENDBRANCH   9  10
ENDBRANCH   1   9
TORSDOF 5
ENDMDL
MODEL 7
REMARK VINA RESULT:      -4.7      5.439      6.858
REMARK  Name = 
REMARK  5 active torsions:
REMARK  status: ('A' for Active; 'I' for Inactive)
REMARK    1  A    between atoms: N_4  and  CA_5
REMARK    2  A    between atoms: CA_5  and  CB_6
REMARK    3  A    between atoms: CA_5  and  C_11
REMARK    4  A    between atoms: CB_6  and  CG_7
REMARK    5  A    between atoms: CG_7  and  CD_8
REMARK                            x       y       z     vdW  Elec       q    Type
REMARK                         _______ _______ _______ _____ _____    ______ ____
ROOT
ATOM      1  CA  GLU A   1     -11.176  15.345  70.108  0.00  0.00    +0.200 C 
ENDROOT
BRANCH   1   4
ATOM      2  N   UNK A   0     -10.845  18.288  67.940  0.00  0.00    -0.068 NA
ATOM      3  C   UNK A   0     -10.722  16.951  68.312  0.00  0.00    +0.359 C 
ATOM      4  N   GLU A   1     -11.769  16.152  68.853  0.00  0.00    -0.176 NA
ATOM      5  O   UNK A   0      -9.842  16.269  67.748  0.00  0.00    -0.247 OA
ENDBRANCH   1   4
BRANCH   1   6
ATOM      6  C   GLU A   1     -11.798  13.921  69.573  0.00  0.00    +0.384 C 
ATOM      7  OXT GLU A   1     -12.277  13.048  70.510  0.00  0.00    -0.244 OA
ATOM      8  O   GLU A   1     -10.829  13.418  68.913  0.00  0.00    -0.244 OA
ENDBRANCH   1   6
BRANCH   1   9
ATOM      9  CB  GLU A   1     -12.513  15.760  71.035  0.00  0.00    +0.045 C 
BRANCH   9  10
ATOM     10  CG  GLU A   1     -11.933  16.174  72.354  0.00  0.00    +0.116 C 
BRANCH  10  11
ATOM     11  CD  GLU A   1     -12.510  15.417  73.505  0.00  0.00    +0.365 C 
ATOM     12  OE2 GLU A   1     -12.597  16.118  74.699  0.00  0.00    -0.246 OA
ATOM     13  OE1 GLU A   1     -13.338  14.493  73.307  0.00  0.00    -0.246 OA
ENDBRANCH  10  11
ENDBRANCH   9  10
ENDBRANCH   1   9
TORSDOF 5
ENDMDL
MODEL 8
REMARK VINA RESULT:      -4.6      2.606      4.756
REMARK  Name = 
REMARK  5 active torsions:
REMARK  status: ('A' for Active; 'I' for Inactive)
REMARK    1  A    between atoms: N_4  and  CA_5
REMARK    2  A    between atoms: CA_5  and  CB_6
REMARK    3  A    between atoms: CA_5  and  C_11
REMARK    4  A    between atoms: CB_6  and  CG_7
REMARK    5  A    between atoms: CG_7  and  CD_8
REMARK                            x       y       z     vdW  Elec       q    Type
REMARK                         _______ _______ _______ _____ _____    ______ ____
ROOT
ATOM      1  CA  GLU A   1     -10.384  15.417  65.316  0.00  0.00    +0.200 C 
ENDROOT
BRANCH   1   4
ATOM      2  N   UNK A   0      -8.982  17.901  67.624  0.00  0.00    -0.068 NA
ATOM      3  C   UNK A   0      -9.079  17.152  66.454  0.00  0.00    +0.359 C 
ATOM      4  N   GLU A   1     -10.269  16.973  65.692  0.00  0.00    -0.176 NA
ATOM      5  O   UNK A   0      -8.046  17.007  65.768  0.00  0.00    -0.247 OA
ENDBRANCH   1   4
BRANCH   1   6
ATOM      6  C   GLU A   1     -11.860  15.624  64.623  0.00  0.00    +0.384 C 
ATOM      7  OXT GLU A   1     -12.409  14.555  63.972  0.00  0.00    -0.244 OA
ATOM      8  O   GLU A   1     -11.667  16.607  63.832  0.00  0.00    -0.244 OA
ENDBRANCH   1   6
BRANCH   1   9
ATOM      9  CB  GLU A   1     -10.980  15.068  66.847  0.00  0.00    +0.045 C 
BRANCH   9  10
ATOM     10  CG  GLU A   1     -10.561  13.649  67.090  0.00  0.00    +0.116 C 
BRANCH  10  11
ATOM     11  CD  GLU A   1     -11.721  12.728  67.285  0.00  0.00    +0.365 C 
ATOM     12  OE2 GLU A   1     -12.147  12.053  66.150  0.00  0.00    -0.246 OA
ATOM     13  OE1 GLU A   1     -11.919  12.182  68.399  0.00  0.00    -0.246 OA
ENDBRANCH  10  11
ENDBRANCH   9  10
ENDBRANCH   1   9
TORSDOF 5
ENDMDL
MODEL 9
REMARK VINA RESULT:      -4.6      1.958      4.365
REMARK  Name = 
REMARK  5 active torsions:
REMARK  status: ('A' for Active; 'I' for Inactive)
REMARK    1  A    between atoms: N_4  and  CA_5
REMARK    2  A    between atoms: CA_5  and  CB_6
REMARK    3  A    between atoms: CA_5  and  C_11
REMARK    4  A    between atoms: CB_6  and  CG_7
REMARK    5  A    between atoms: CG_7  and  CD_8
REMARK                            x       y       z     vdW  Elec       q    Type
REMARK                         _______ _______ _______ _____ _____    ______ ____
ROOT
ATOM      1  CA  GLU A   1     -10.698  13.894  64.582  0.00  0.00    +0.200 C 
ENDROOT
BRANCH   1   4
ATOM      2  N   UNK A   0     -10.423  17.348  65.788  0.00  0.00    -0.068 NA
ATOM      3  C   UNK A   0     -10.901  16.300  65.007  0.00  0.00    +0.359 C 
ATOM      4  N   GLU A   1     -11.339  15.040  65.506  0.00  0.00    -0.176 NA
ATOM      5  O   UNK A   0     -11.414  16.582  63.904  0.00  0.00    -0.247 OA
ENDBRANCH   1   4
BRANCH   1   6
ATOM      6  C   GLU A   1     -12.154  13.161  64.365  0.00  0.00    +0.384 C 
ATOM      7  OXT GLU A   1     -12.152  11.822  64.091  0.00  0.00    -0.244 OA
ATOM      8  O   GLU A   1     -12.671  13.835  63.413  0.00  0.00    -0.244 OA
ENDBRANCH   1   6
BRANCH   1   9
ATOM      9  CB  GLU A   1     -10.278  13.002  65.942  0.00  0.00    +0.045 C 
BRANCH   9  10
ATOM     10  CG  GLU A   1     -11.342  13.337  66.944  0.00  0.00    +0.116 C 
BRANCH  10  11
ATOM     11  CD  GLU A   1     -11.524  12.270  67.973  0.00  0.00    +0.365 C 
ATOM     12  OE2 GLU A   1     -11.685  12.717  69.277  0.00  0.00    -0.246 OA
ATOM     13  OE1 GLU A   1     -12.047  11.170  67.663  0.00  0.00    -0.246 OA
ENDBRANCH  10  11
ENDBRANCH   9  10
ENDBRANCH   1   9
TORSDOF 5
ENDMDL
