MODEL 1
REMARK VINA RESULT:      -5.8      0.000      0.000
REMARK  Name = 
REMARK  3 active torsions:
REMARK  status: ('A' for Active; 'I' for Inactive)
REMARK    1  A    between atoms: C_2  and  C_4
REMARK    2  A    between atoms: C_2  and  C_12
REMARK    3  A    between atoms: C_4  and  C_6
REMARK                            x       y       z     vdW  Elec       q    Type
REMARK                         _______ _______ _______ _____ _____    ______ ____
ROOT
ATOM      1  C   UNL     1      -9.439  14.568  68.716  0.00  0.00    +0.012 C 
ATOM      2  C   UNL     1     -10.950  14.510  68.528  0.00  0.00    +0.076 C 
ATOM      3  C   UNL     1     -11.369  13.138  69.047  0.00  0.00    +0.012 C 
ENDROOT
BRANCH   2   4
ATOM      4  C   UNL     1     -11.269  14.580  67.079  0.00  0.00    +0.003 A 
ATOM      5  C   UNL     1     -10.349  14.926  66.111  0.00  0.00    +0.095 A 
ATOM      6  N   UNL     1     -10.302  14.299  64.916  0.00  0.00    -0.243 NA
ATOM      7  C   UNL     1     -11.280  13.433  64.585  0.00  0.00    +0.099 A 
ATOM      8  C   UNL     1     -12.468  13.534  65.300  0.00  0.00    +0.020 A 
ATOM      9  C   UNL     1     -12.377  13.875  66.643  0.00  0.00    -0.001 A 
ENDBRANCH   2   4
BRANCH   2  10
ATOM     10  C   UNL     1     -11.637  15.587  69.300  0.00  0.00    +0.178 C 
ATOM     11  O   UNL     1     -11.751  16.690  68.684  0.00  0.00    -0.291 OA
BRANCH  10  12
ATOM     12  C   UNL     1     -12.263  15.375  70.591  0.00  0.00    +0.054 A 
ATOM     13  C   UNL     1     -13.634  15.227  70.759  0.00  0.00    +0.102 A 
ATOM     14  N   UNL     1     -14.096  15.001  72.009  0.00  0.00    -0.242 NA
ATOM     15  C   UNL     1     -13.516  15.647  73.038  0.00  0.00    +0.099 A 
ATOM     16  C   UNL     1     -12.201  16.050  72.916  0.00  0.00    +0.021 A 
ATOM     17  C   UNL     1     -11.568  15.828  71.704  0.00  0.00    +0.006 A 
ENDBRANCH  10  12
ENDBRANCH   2  10
TORSDOF 3
ENDMDL
MODEL 2
REMARK VINA RESULT:      -5.7      3.059      4.118
REMARK  Name = 
REMARK  3 active torsions:
REMARK  status: ('A' for Active; 'I' for Inactive)
REMARK    1  A    between atoms: C_2  and  C_4
REMARK    2  A    between atoms: C_2  and  C_12
REMARK    3  A    between atoms: C_4  and  C_6
REMARK                            x       y       z     vdW  Elec       q    Type
REMARK                         _______ _______ _______ _____ _____    ______ ____
ROOT
ATOM      1  C   UNL     1      -8.831  15.103  67.495  0.00  0.00    +0.012 C 
ATOM      2  C   UNL     1     -10.348  15.089  67.652  0.00  0.00    +0.076 C 
ATOM      3  C   UNL     1     -10.630  14.060  68.741  0.00  0.00    +0.012 C 
ENDROOT
BRANCH   2   4
ATOM      4  C   UNL     1     -10.968  14.614  66.387  0.00  0.00    +0.003 A 
ATOM      5  C   UNL     1     -10.286  14.518  65.192  0.00  0.00    +0.095 A 
ATOM      6  N   UNL     1     -10.471  13.482  64.348  0.00  0.00    -0.243 NA
ATOM      7  C   UNL     1     -11.466  12.604  64.587  0.00  0.00    +0.099 A 
ATOM      8  C   UNL     1     -12.479  13.029  65.439  0.00  0.00    +0.020 A 
ATOM      9  C   UNL     1     -12.118  13.853  66.497  0.00  0.00    -0.001 A 
ENDBRANCH   2   4
BRANCH   2  10
ATOM     10  C   UNL     1     -10.867  16.428  68.057  0.00  0.00    +0.178 C 
ATOM     11  O   UNL     1     -11.865  16.394  68.839  0.00  0.00    -0.291 OA
BRANCH  10  12
ATOM     12  C   UNL     1     -10.214  17.677  67.719  0.00  0.00    +0.054 A 
ATOM     13  C   UNL     1      -9.725  18.565  68.670  0.00  0.00    +0.102 A 
ATOM     14  N   UNL     1      -9.105  19.683  68.231  0.00  0.00    -0.242 NA
ATOM     15  C   UNL     1      -9.596  20.308  67.145  0.00  0.00    +0.099 A 
ATOM     16  C   UNL     1     -10.301  19.573  66.214  0.00  0.00    +0.021 A 
ATOM     17  C   UNL     1     -10.527  18.233  66.486  0.00  0.00    +0.006 A 
ENDBRANCH  10  12
ENDBRANCH   2  10
TORSDOF 3
ENDMDL
MODEL 3
REMARK VINA RESULT:      -5.6      3.482      5.845
REMARK  Name = 
REMARK  3 active torsions:
REMARK  status: ('A' for Active; 'I' for Inactive)
REMARK    1  A    between atoms: C_2  and  C_4
REMARK    2  A    between atoms: C_2  and  C_12
REMARK    3  A    between atoms: C_4  and  C_6
REMARK                            x       y       z     vdW  Elec       q    Type
REMARK                         _______ _______ _______ _____ _____    ______ ____
ROOT
ATOM      1  C   UNL     1      -9.025  15.592  68.405  0.00  0.00    +0.012 C 
ATOM      2  C   UNL     1      -9.837  15.969  67.170  0.00  0.00    +0.076 C 
ATOM      3  C   UNL     1      -8.861  15.874  66.002  0.00  0.00    +0.012 C 
ENDROOT
BRANCH   2   4
ATOM      4  C   UNL     1     -10.289  17.380  67.290  0.00  0.00    +0.003 A 
ATOM      5  C   UNL     1     -10.167  18.124  68.445  0.00  0.00    +0.095 A 
ATOM      6  N   UNL     1      -9.813  19.426  68.420  0.00  0.00    -0.243 NA
ATOM      7  C   UNL     1      -9.740  20.068  67.237  0.00  0.00    +0.099 A 
ATOM      8  C   UNL     1     -10.411  19.483  66.170  0.00  0.00    +0.020 A 
ATOM      9  C   UNL     1     -10.436  18.095  66.115  0.00  0.00    -0.001 A 
ENDBRANCH   2   4
BRANCH   2  10
ATOM     10  C   UNL     1     -10.982  15.035  66.965  0.00  0.00    +0.178 C 
ATOM     11  O   UNL     1     -11.799  14.978  67.934  0.00  0.00    -0.291 OA
BRANCH  10  12
ATOM     12  C   UNL     1     -11.245  14.350  65.714  0.00  0.00    +0.054 A 
ATOM     13  C   UNL     1     -12.274  14.703  64.851  0.00  0.00    +0.102 A 
ATOM     14  N   UNL     1     -12.398  14.010  63.698  0.00  0.00    -0.242 NA
ATOM     15  C   UNL     1     -12.172  12.683  63.716  0.00  0.00    +0.099 A 
ATOM     16  C   UNL     1     -11.326  12.164  64.674  0.00  0.00    +0.021 A 
ATOM     17  C   UNL     1     -10.807  13.035  65.618  0.00  0.00    +0.006 A 
ENDBRANCH  10  12
ENDBRANCH   2  10
TORSDOF 3
ENDMDL
MODEL 4
REMARK VINA RESULT:      -5.5      3.040      5.493
REMARK  Name = 
REMARK  3 active torsions:
REMARK  status: ('A' for Active; 'I' for Inactive)
REMARK    1  A    between atoms: C_2  and  C_4
REMARK    2  A    between atoms: C_2  and  C_12
REMARK    3  A    between atoms: C_4  and  C_6
REMARK                            x       y       z     vdW  Elec       q    Type
REMARK                         _______ _______ _______ _____ _____    ______ ____
ROOT
ATOM      1  C   UNL     1     -11.454  15.926  68.605  0.00  0.00    +0.012 C 
ATOM      2  C   UNL     1     -10.030  15.975  68.064  0.00  0.00    +0.076 C 
ATOM      3  C   UNL     1      -9.132  15.726  69.271  0.00  0.00    +0.012 C 
ENDROOT
BRANCH   2   4
ATOM      4  C   UNL     1      -9.747  17.338  67.543  0.00  0.00    +0.003 A 
ATOM      5  C   UNL     1      -9.899  17.695  66.220  0.00  0.00    +0.095 A 
ATOM      6  N   UNL     1     -10.410  18.891  65.859  0.00  0.00    -0.243 NA
ATOM      7  C   UNL     1     -10.619  19.832  66.802  0.00  0.00    +0.099 A 
ATOM      8  C   UNL     1      -9.938  19.672  68.002  0.00  0.00    +0.020 A 
ATOM      9  C   UNL     1      -9.747  18.374  68.459  0.00  0.00    -0.001 A 
ENDBRANCH   2   4
BRANCH   2  10
ATOM     10  C   UNL     1      -9.805  14.927  67.026  0.00  0.00    +0.178 C 
ATOM     11  O   UNL     1      -8.586  14.660  66.798  0.00  0.00    -0.291 OA
BRANCH  10  12
ATOM     12  C   UNL     1     -10.873  14.155  66.420  0.00  0.00    +0.054 A 
ATOM     13  C   UNL     1     -11.106  12.816  66.710  0.00  0.00    +0.102 A 
ATOM     14  N   UNL     1     -12.154  12.212  66.106  0.00  0.00    -0.242 NA
ATOM     15  C   UNL     1     -12.421  12.518  64.822  0.00  0.00    +0.099 A 
ATOM     16  C   UNL     1     -12.043  13.753  64.338  0.00  0.00    +0.021 A 
ATOM     17  C   UNL     1     -11.337  14.591  65.187  0.00  0.00    +0.006 A 
ENDBRANCH  10  12
ENDBRANCH   2  10
TORSDOF 3
ENDMDL
MODEL 5
REMARK VINA RESULT:      -5.3      2.852      5.725
REMARK  Name = 
REMARK  3 active torsions:
REMARK  status: ('A' for Active; 'I' for Inactive)
REMARK    1  A    between atoms: C_2  and  C_4
REMARK    2  A    between atoms: C_2  and  C_12
REMARK    3  A    between atoms: C_4  and  C_6
REMARK                            x       y       z     vdW  Elec       q    Type
REMARK                         _______ _______ _______ _____ _____    ______ ____
ROOT
ATOM      1  C   UNL     1     -11.392  13.084  69.696  0.00  0.00    +0.012 C 
ATOM      2  C   UNL     1     -10.804  13.191  68.294  0.00  0.00    +0.076 C 
ATOM      3  C   UNL     1      -9.360  12.717  68.426  0.00  0.00    +0.012 C 
ENDROOT
BRANCH   2   4
ATOM      4  C   UNL     1     -10.792  14.616  67.872  0.00  0.00    +0.003 A 
ATOM      5  C   UNL     1     -11.686  15.557  68.339  0.00  0.00    +0.095 A 
ATOM      6  N   UNL     1     -11.305  16.816  68.637  0.00  0.00    -0.243 NA
ATOM      7  C   UNL     1     -10.061  17.224  68.314  0.00  0.00    +0.099 A 
ATOM      8  C   UNL     1      -9.393  16.477  67.351  0.00  0.00    +0.020 A 
ATOM      9  C   UNL     1      -9.613  15.106  67.341  0.00  0.00    -0.001 A 
ENDBRANCH   2   4
BRANCH   2  10
ATOM     10  C   UNL     1     -11.544  12.331  67.325  0.00  0.00    +0.178 C 
ATOM     11  O   UNL     1     -12.237  11.411  67.856  0.00  0.00    -0.291 OA
BRANCH  10  12
ATOM     12  C   UNL     1     -11.603  12.595  65.901  0.00  0.00    +0.054 A 
ATOM     13  C   UNL     1     -12.642  13.290  65.295  0.00  0.00    +0.102 A 
ATOM     14  N   UNL     1     -12.569  13.502  63.962  0.00  0.00    -0.242 NA
ATOM     15  C   UNL     1     -12.077  12.522  63.180  0.00  0.00    +0.099 A 
ATOM     16  C   UNL     1     -11.188  11.618  63.723  0.00  0.00    +0.021 A 
ATOM     17  C   UNL     1     -10.903  11.725  65.075  0.00  0.00    +0.006 A 
ENDBRANCH  10  12
ENDBRANCH   2  10
TORSDOF 3
ENDMDL
MODEL 6
REMARK VINA RESULT:      -5.3      2.183      2.830
REMARK  Name = 
REMARK  3 active torsions:
REMARK  status: ('A' for Active; 'I' for Inactive)
REMARK    1  A    between atoms: C_2  and  C_4
REMARK    2  A    between atoms: C_2  and  C_12
REMARK    3  A    between atoms: C_4  and  C_6
REMARK                            x       y       z     vdW  Elec       q    Type
REMARK                         _______ _______ _______ _____ _____    ______ ____
ROOT
ATOM      1  C   UNL     1      -9.326  12.891  68.060  0.00  0.00    +0.012 C 
ATOM      2  C   UNL     1     -10.588  12.220  67.528  0.00  0.00    +0.076 C 
ATOM      3  C   UNL     1     -10.220  10.750  67.356  0.00  0.00    +0.012 C 
ENDROOT
BRANCH   2   4
ATOM      4  C   UNL     1     -10.916  12.780  66.191  0.00  0.00    +0.003 A 
ATOM      5  C   UNL     1     -12.132  12.599  65.566  0.00  0.00    +0.095 A 
ATOM      6  N   UNL     1     -12.735  13.591  64.878  0.00  0.00    -0.243 NA
ATOM      7  C   UNL     1     -12.062  14.736  64.644  0.00  0.00    +0.099 A 
ATOM      8  C   UNL     1     -10.679  14.681  64.768  0.00  0.00    +0.020 A 
ATOM      9  C   UNL     1     -10.159  13.852  65.754  0.00  0.00    -0.001 A 
ENDBRANCH   2   4
BRANCH   2  10
ATOM     10  C   UNL     1     -11.725  12.362  68.484  0.00  0.00    +0.178 C 
ATOM     11  O   UNL     1     -12.336  11.281  68.742  0.00  0.00    -0.291 OA
BRANCH  10  12
ATOM     12  C   UNL     1     -12.034  13.591  69.187  0.00  0.00    +0.054 A 
ATOM     13  C   UNL     1     -11.771  14.853  68.670  0.00  0.00    +0.102 A 
ATOM     14  N   UNL     1     -12.136  15.927  69.406  0.00  0.00    -0.242 NA
ATOM     15  C   UNL     1     -11.982  15.874  70.742  0.00  0.00    +0.099 A 
ATOM     16  C   UNL     1     -12.006  14.644  71.368  0.00  0.00    +0.021 A 
ATOM     17  C   UNL     1     -12.115  13.516  70.571  0.00  0.00    +0.006 A 
ENDBRANCH  10  12
ENDBRANCH   2  10
TORSDOF 3
ENDMDL
MODEL 7
REMARK VINA RESULT:      -5.3      3.021      4.053
REMARK  Name = 
REMARK  3 active torsions:
REMARK  status: ('A' for Active; 'I' for Inactive)
REMARK    1  A    between atoms: C_2  and  C_4
REMARK    2  A    between atoms: C_2  and  C_12
REMARK    3  A    between atoms: C_4  and  C_6
REMARK                            x       y       z     vdW  Elec       q    Type
REMARK                         _______ _______ _______ _____ _____    ______ ____
ROOT
ATOM      1  C   UNL     1      -9.871  13.576  68.284  0.00  0.00    +0.012 C 
ATOM      2  C   UNL     1     -10.535  14.803  67.669  0.00  0.00    +0.076 C 
ATOM      3  C   UNL     1     -11.727  15.111  68.569  0.00  0.00    +0.012 C 
ENDROOT
BRANCH   2   4
ATOM      4  C   UNL     1     -11.046  14.460  66.316  0.00  0.00    +0.003 A 
ATOM      5  C   UNL     1     -10.231  14.253  65.223  0.00  0.00    +0.095 A 
ATOM      6  N   UNL     1     -10.476  13.274  64.326  0.00  0.00    -0.243 NA
ATOM      7  C   UNL     1     -11.635  12.589  64.397  0.00  0.00    +0.099 A 
ATOM      8  C   UNL     1     -12.665  13.182  65.117  0.00  0.00    +0.020 A 
ATOM      9  C   UNL     1     -12.317  13.918  66.242  0.00  0.00    -0.001 A 
ENDBRANCH   2   4
BRANCH   2  10
ATOM     10  C   UNL     1      -9.601  15.967  67.631  0.00  0.00    +0.178 C 
ATOM     11  O   UNL     1      -8.371  15.659  67.650  0.00  0.00    -0.291 OA
BRANCH  10  12
ATOM     12  C   UNL     1     -10.034  17.337  67.438  0.00  0.00    +0.054 A 
ATOM     13  C   UNL     1     -10.123  17.942  66.190  0.00  0.00    +0.102 A 
ATOM     14  N   UNL     1     -10.572  19.215  66.135  0.00  0.00    -0.242 NA
ATOM     15  C   UNL     1     -10.192  20.074  67.100  0.00  0.00    +0.099 A 
ATOM     16  C   UNL     1      -9.862  19.577  68.344  0.00  0.00    +0.021 A 
ATOM     17  C   UNL     1      -9.869  18.201  68.512  0.00  0.00    +0.006 A 
ENDBRANCH  10  12
ENDBRANCH   2  10
TORSDOF 3
ENDMDL
MODEL 8
REMARK VINA RESULT:      -5.3      3.761      4.993
REMARK  Name = 
REMARK  3 active torsions:
REMARK  status: ('A' for Active; 'I' for Inactive)
REMARK    1  A    between atoms: C_2  and  C_4
REMARK    2  A    between atoms: C_2  and  C_12
REMARK    3  A    between atoms: C_4  and  C_6
REMARK                            x       y       z     vdW  Elec       q    Type
REMARK                         _______ _______ _______ _____ _____    ______ ____
ROOT
ATOM      1  C   UNL     1     -11.579  14.501  67.187  0.00  0.00    +0.012 C 
ATOM      2  C   UNL     1     -11.342  14.590  65.683  0.00  0.00    +0.076 C 
ATOM      3  C   UNL     1     -12.711  14.374  65.046  0.00  0.00    +0.012 C 
ENDROOT
BRANCH   2   4
ATOM      4  C   UNL     1     -10.448  13.480  65.260  0.00  0.00    +0.003 A 
ATOM      5  C   UNL     1      -9.676  12.747  66.137  0.00  0.00    +0.095 A 
ATOM      6  N   UNL     1      -9.521  11.413  66.006  0.00  0.00    -0.243 NA
ATOM      7  C   UNL     1      -9.987  10.799  64.900  0.00  0.00    +0.099 A 
ATOM      8  C   UNL     1     -10.232  11.608  63.797  0.00  0.00    +0.020 A 
ATOM      9  C   UNL     1     -10.714  12.888  64.039  0.00  0.00    -0.001 A 
ENDBRANCH   2   4
BRANCH   2  10
ATOM     10  C   UNL     1     -10.794  15.923  65.295  0.00  0.00    +0.178 C 
ATOM     11  O   UNL     1     -11.282  16.405  64.228  0.00  0.00    -0.291 OA
BRANCH  10  12
ATOM     12  C   UNL     1      -9.891  16.692  66.128  0.00  0.00    +0.054 A 
ATOM     13  C   UNL     1     -10.156  17.990  66.546  0.00  0.00    +0.102 A 
ATOM     14  N   UNL     1      -9.251  18.594  67.348  0.00  0.00    -0.242 NA
ATOM     15  C   UNL     1      -7.942  18.383  67.115  0.00  0.00    +0.099 A 
ATOM     16  C   UNL     1      -7.554  17.211  66.499  0.00  0.00    +0.021 A 
ATOM     17  C   UNL     1      -8.548  16.339  66.085  0.00  0.00    +0.006 A 
ENDBRANCH  10  12
ENDBRANCH   2  10
TORSDOF 3
ENDMDL
MODEL 9
REMARK VINA RESULT:      -5.3      1.620      2.368
REMARK  Name = 
REMARK  3 active torsions:
REMARK  status: ('A' for Active; 'I' for Inactive)
REMARK    1  A    between atoms: C_2  and  C_4
REMARK    2  A    between atoms: C_2  and  C_12
REMARK    3  A    between atoms: C_4  and  C_6
REMARK                            x       y       z     vdW  Elec       q    Type
REMARK                         _______ _______ _______ _____ _____    ______ ____
ROOT
ATOM      1  C   UNL     1     -10.837  16.171  66.679  0.00  0.00    +0.012 C 
ATOM      2  C   UNL     1     -10.345  14.802  67.134  0.00  0.00    +0.076 C 
ATOM      3  C   UNL     1      -8.939  14.667  66.559  0.00  0.00    +0.012 C 
ENDROOT
BRANCH   2   4
ATOM      4  C   UNL     1     -11.201  13.747  66.531  0.00  0.00    +0.003 A 
ATOM      5  C   UNL     1     -12.460  13.986  66.020  0.00  0.00    +0.095 A 
ATOM      6  N   UNL     1     -12.891  13.398  64.884  0.00  0.00    -0.243 NA
ATOM      7  C   UNL     1     -12.148  12.424  64.321  0.00  0.00    +0.099 A 
ATOM      8  C   UNL     1     -11.206  11.810  65.137  0.00  0.00    +0.020 A 
ATOM      9  C   UNL     1     -10.567  12.602  66.082  0.00  0.00    -0.001 A 
ENDBRANCH   2   4
BRANCH   2  10
ATOM     10  C   UNL     1     -10.308  14.702  68.622  0.00  0.00    +0.178 C 
ATOM     11  O   UNL     1      -9.142  14.704  69.124  0.00  0.00    -0.291 OA
BRANCH  10  12
ATOM     12  C   UNL     1     -11.490  14.749  69.460  0.00  0.00    +0.054 A 
ATOM     13  C   UNL     1     -11.920  15.898  70.112  0.00  0.00    +0.102 A 
ATOM     14  N   UNL     1     -13.057  15.825  70.838  0.00  0.00    -0.242 NA
ATOM     15  C   UNL     1     -13.297  14.707  71.550  0.00  0.00    +0.099 A 
ATOM     16  C   UNL     1     -12.742  13.516  71.127  0.00  0.00    +0.021 A 
ATOM     17  C   UNL     1     -11.903  13.550  70.025  0.00  0.00    +0.006 A 
ENDBRANCH  10  12
ENDBRANCH   2  10
TORSDOF 3
ENDMDL
