MODEL 1
REMARK VINA RESULT:      -4.0      0.000      0.000
REMARK  Name = 
REMARK  4 active torsions:
REMARK  status: ('A' for Active; 'I' for Inactive)
REMARK    1  A    between atoms: C_2  and  C_3
REMARK    2  A    between atoms: C_2  and  O_8
REMARK    3  A    between atoms: C_3  and  N_4
REMARK    4  A    between atoms: O_8  and  C_9
REMARK                            x       y       z     vdW  Elec       q    Type
REMARK                         _______ _______ _______ _____ _____    ______ ____
ROOT
ATOM      1  C   UNL     1     -11.980  12.613  63.458  0.00  0.00    +0.054 C 
ATOM      2  C   UNL     1     -11.081  13.372  64.651  0.00  0.00    +0.225 C 
ENDROOT
BRANCH   2   3
ATOM      3  O   UNL     1     -11.985  14.652  64.559  0.00  0.00    -0.430 OA
BRANCH   3   4
ATOM      4  C   UNL     1     -11.263  15.825  64.805  0.00  0.00    +0.441 C 
ATOM      5  O   UNL     1     -11.556  16.664  63.898  0.00  0.00    -0.223 OA
ATOM      6  N   UNL     1      -9.930  15.862  65.274  0.00  0.00    -0.048 NA
ENDBRANCH   3   4
ENDBRANCH   2   3
BRANCH   2   7
ATOM      7  C   UNL     1     -12.016  12.657  65.845  0.00  0.00    +0.153 C 
BRANCH   7   8
ATOM      8  N   UNL     1     -11.053  12.493  66.933  0.00  0.00    +0.313 N 
ATOM      9  C   UNL     1     -11.306  11.270  67.678  0.00  0.00    +0.171 C 
ATOM     10  C   UNL     1      -9.686  12.484  66.440  0.00  0.00    +0.171 C 
ATOM     11  C   UNL     1     -11.138  13.585  67.882  0.00  0.00    +0.171 C 
ENDBRANCH   7   8
ENDBRANCH   2   7
TORSDOF 4
ENDMDL
MODEL 2
REMARK VINA RESULT:      -4.0      0.223      1.206
REMARK  Name = 
REMARK  4 active torsions:
REMARK  status: ('A' for Active; 'I' for Inactive)
REMARK    1  A    between atoms: C_2  and  C_3
REMARK    2  A    between atoms: C_2  and  O_8
REMARK    3  A    between atoms: C_3  and  N_4
REMARK    4  A    between atoms: O_8  and  C_9
REMARK                            x       y       z     vdW  Elec       q    Type
REMARK                         _______ _______ _______ _____ _____    ______ ____
ROOT
ATOM      1  C   UNL     1     -12.044  12.772  63.409  0.00  0.00    +0.054 C 
ATOM      2  C   UNL     1     -11.094  13.389  64.644  0.00  0.00    +0.225 C 
ENDROOT
BRANCH   2   3
ATOM      3  O   UNL     1     -11.996  14.670  64.737  0.00  0.00    -0.430 OA
BRANCH   3   4
ATOM      4  C   UNL     1     -11.237  15.838  64.874  0.00  0.00    +0.441 C 
ATOM      5  O   UNL     1     -11.544  16.620  63.920  0.00  0.00    -0.223 OA
ATOM      6  N   UNL     1      -9.886  15.872  65.290  0.00  0.00    -0.048 NA
ENDBRANCH   3   4
ENDBRANCH   2   3
BRANCH   2   7
ATOM      7  C   UNL     1     -11.983  12.539  65.784  0.00  0.00    +0.153 C 
BRANCH   7   8
ATOM      8  N   UNL     1     -10.984  12.273  66.818  0.00  0.00    +0.313 N 
ATOM      9  C   UNL     1     -11.054  13.260  67.883  0.00  0.00    +0.171 C 
ATOM     10  C   UNL     1     -11.141  10.942  67.381  0.00  0.00    +0.171 C 
ATOM     11  C   UNL     1      -9.639  12.333  66.281  0.00  0.00    +0.171 C 
ENDBRANCH   7   8
ENDBRANCH   2   7
TORSDOF 4
ENDMDL
MODEL 3
REMARK VINA RESULT:      -3.9      1.478      2.104
REMARK  Name = 
REMARK  4 active torsions:
REMARK  status: ('A' for Active; 'I' for Inactive)
REMARK    1  A    between atoms: C_2  and  C_3
REMARK    2  A    between atoms: C_2  and  O_8
REMARK    3  A    between atoms: C_3  and  N_4
REMARK    4  A    between atoms: O_8  and  C_9
REMARK                            x       y       z     vdW  Elec       q    Type
REMARK                         _______ _______ _______ _____ _____    ______ ____
ROOT
ATOM      1  C   UNL     1     -11.646  12.388  65.400  0.00  0.00    +0.054 C 
ATOM      2  C   UNL     1     -10.737  13.678  65.963  0.00  0.00    +0.225 C 
ENDROOT
BRANCH   2   3
ATOM      3  O   UNL     1     -11.119  14.535  64.705  0.00  0.00    -0.430 OA
BRANCH   3   4
ATOM      4  C   UNL     1     -10.977  15.907  64.942  0.00  0.00    +0.441 C 
ATOM      5  O   UNL     1     -11.554  16.531  63.997  0.00  0.00    -0.223 OA
ATOM      6  N   UNL     1      -9.811  16.514  65.461  0.00  0.00    -0.048 NA
ENDBRANCH   3   4
ENDBRANCH   2   3
BRANCH   2   7
ATOM      7  C   UNL     1     -12.033  14.225  66.874  0.00  0.00    +0.153 C 
BRANCH   7   8
ATOM      8  N   UNL     1     -11.428  14.412  68.191  0.00  0.00    +0.313 N 
ATOM      9  C   UNL     1      -9.993  14.175  68.149  0.00  0.00    +0.171 C 
ATOM     10  C   UNL     1     -11.682  15.746  68.711  0.00  0.00    +0.171 C 
ATOM     11  C   UNL     1     -11.975  13.485  69.161  0.00  0.00    +0.171 C 
ENDBRANCH   7   8
ENDBRANCH   2   7
TORSDOF 4
ENDMDL
MODEL 4
REMARK VINA RESULT:      -3.9      1.788      2.814
REMARK  Name = 
REMARK  4 active torsions:
REMARK  status: ('A' for Active; 'I' for Inactive)
REMARK    1  A    between atoms: C_2  and  C_3
REMARK    2  A    between atoms: C_2  and  O_8
REMARK    3  A    between atoms: C_3  and  N_4
REMARK    4  A    between atoms: O_8  and  C_9
REMARK                            x       y       z     vdW  Elec       q    Type
REMARK                         _______ _______ _______ _____ _____    ______ ____
ROOT
ATOM      1  C   UNL     1      -8.953  14.500  66.846  0.00  0.00    +0.054 C 
ATOM      2  C   UNL     1     -10.461  14.912  66.243  0.00  0.00    +0.225 C 
ENDROOT
BRANCH   2   3
ATOM      3  O   UNL     1      -9.846  16.117  65.447  0.00  0.00    -0.430 OA
BRANCH   3   4
ATOM      4  C   UNL     1     -10.750  17.177  65.316  0.00  0.00    +0.441 C 
ATOM      5  O   UNL     1     -11.379  17.025  64.223  0.00  0.00    -0.223 OA
ATOM      6  N   UNL     1     -10.479  18.512  65.693  0.00  0.00    -0.048 NA
ENDBRANCH   3   4
ENDBRANCH   2   3
BRANCH   2   7
ATOM      7  C   UNL     1     -10.276  13.831  64.975  0.00  0.00    +0.153 C 
BRANCH   7   8
ATOM      8  N   UNL     1     -11.549  13.112  64.995  0.00  0.00    +0.313 N 
ATOM      9  C   UNL     1     -11.962  12.737  63.652  0.00  0.00    +0.171 C 
ATOM     10  C   UNL     1     -11.478  11.923  65.829  0.00  0.00    +0.171 C 
ATOM     11  C   UNL     1     -12.610  13.932  65.544  0.00  0.00    +0.171 C 
ENDBRANCH   7   8
ENDBRANCH   2   7
TORSDOF 4
ENDMDL
MODEL 5
REMARK VINA RESULT:      -3.9      3.158      4.922
REMARK  Name = 
REMARK  4 active torsions:
REMARK  status: ('A' for Active; 'I' for Inactive)
REMARK    1  A    between atoms: C_2  and  C_3
REMARK    2  A    between atoms: C_2  and  O_8
REMARK    3  A    between atoms: C_3  and  N_4
REMARK    4  A    between atoms: O_8  and  C_9
REMARK                            x       y       z     vdW  Elec       q    Type
REMARK                         _______ _______ _______ _____ _____    ______ ____
ROOT
ATOM      1  C   UNL     1      -8.900  15.084  66.788  0.00  0.00    +0.054 C 
ATOM      2  C   UNL     1      -9.601  16.398  66.020  0.00  0.00    +0.225 C 
ENDROOT
BRANCH   2   3
ATOM      3  O   UNL     1     -10.968  15.638  65.901  0.00  0.00    -0.430 OA
BRANCH   3   4
ATOM      4  C   UNL     1     -11.428  15.586  64.580  0.00  0.00    +0.441 C 
ATOM      5  O   UNL     1     -11.391  16.763  64.105  0.00  0.00    -0.223 OA
ATOM      6  N   UNL     1     -12.493  14.771  64.134  0.00  0.00    -0.048 NA
ENDBRANCH   3   4
ENDBRANCH   2   3
BRANCH   2   7
ATOM      7  C   UNL     1      -9.982  17.089  67.499  0.00  0.00    +0.153 C 
BRANCH   7   8
ATOM      8  N   UNL     1      -9.586  18.483  67.300  0.00  0.00    +0.313 N 
ATOM      9  C   UNL     1     -10.522  19.175  66.428  0.00  0.00    +0.171 C 
ATOM     10  C   UNL     1      -9.484  19.195  68.563  0.00  0.00    +0.171 C 
ATOM     11  C   UNL     1      -8.283  18.577  66.672  0.00  0.00    +0.171 C 
ENDBRANCH   7   8
ENDBRANCH   2   7
TORSDOF 4
ENDMDL
MODEL 6
REMARK VINA RESULT:      -3.7      4.481      6.106
REMARK  Name = 
REMARK  4 active torsions:
REMARK  status: ('A' for Active; 'I' for Inactive)
REMARK    1  A    between atoms: C_2  and  C_3
REMARK    2  A    between atoms: C_2  and  O_8
REMARK    3  A    between atoms: C_3  and  N_4
REMARK    4  A    between atoms: O_8  and  C_9
REMARK                            x       y       z     vdW  Elec       q    Type
REMARK                         _______ _______ _______ _____ _____    ______ ____
ROOT
ATOM      1  C   UNL     1     -11.265  15.485  71.435  0.00  0.00    +0.054 C 
ATOM      2  C   UNL     1     -12.219  14.414  70.569  0.00  0.00    +0.225 C 
ENDROOT
BRANCH   2   3
ATOM      3  O   UNL     1     -13.469  15.350  70.730  0.00  0.00    -0.430 OA
BRANCH   3   4
ATOM      4  C   UNL     1     -14.281  14.964  71.802  0.00  0.00    +0.441 C 
ATOM      5  O   UNL     1     -14.453  15.976  72.550  0.00  0.00    -0.223 OA
ATOM      6  N   UNL     1     -14.200  13.715  72.460  0.00  0.00    -0.048 NA
ENDBRANCH   3   4
ENDBRANCH   2   3
BRANCH   2   7
ATOM      7  C   UNL     1     -11.736  15.114  69.125  0.00  0.00    +0.153 C 
BRANCH   7   8
ATOM      8  N   UNL     1     -11.343  13.949  68.334  0.00  0.00    +0.313 N 
ATOM      9  C   UNL     1      -9.906  13.923  68.115  0.00  0.00    +0.171 C 
ATOM     10  C   UNL     1     -11.757  12.708  68.969  0.00  0.00    +0.171 C 
ATOM     11  C   UNL     1     -11.965  13.964  67.025  0.00  0.00    +0.171 C 
ENDBRANCH   7   8
ENDBRANCH   2   7
TORSDOF 4
ENDMDL
MODEL 7
REMARK VINA RESULT:      -3.7      2.197      3.676
REMARK  Name = 
REMARK  4 active torsions:
REMARK  status: ('A' for Active; 'I' for Inactive)
REMARK    1  A    between atoms: C_2  and  C_3
REMARK    2  A    between atoms: C_2  and  O_8
REMARK    3  A    between atoms: C_3  and  N_4
REMARK    4  A    between atoms: O_8  and  C_9
REMARK                            x       y       z     vdW  Elec       q    Type
REMARK                         _______ _______ _______ _____ _____    ______ ____
ROOT
ATOM      1  C   UNL     1     -11.705  12.472  68.272  0.00  0.00    +0.054 C 
ATOM      2  C   UNL     1     -11.012  12.840  66.791  0.00  0.00    +0.225 C 
ENDROOT
BRANCH   2   3
ATOM      3  O   UNL     1     -12.196  12.145  66.031  0.00  0.00    -0.430 OA
BRANCH   3   4
ATOM      4  C   UNL     1     -12.263  12.538  64.689  0.00  0.00    +0.441 C 
ATOM      5  O   UNL     1     -13.399  12.196  64.236  0.00  0.00    -0.223 OA
ATOM      6  N   UNL     1     -11.185  12.462  63.778  0.00  0.00    -0.048 NA
ENDBRANCH   3   4
ENDBRANCH   2   3
BRANCH   2   7
ATOM      7  C   UNL     1     -11.747  14.347  66.795  0.00  0.00    +0.153 C 
BRANCH   7   8
ATOM      8  N   UNL     1     -10.623  15.238  66.513  0.00  0.00    +0.313 N 
ATOM      9  C   UNL     1     -10.764  15.867  65.210  0.00  0.00    +0.171 C 
ATOM     10  C   UNL     1     -10.488  16.265  67.534  0.00  0.00    +0.171 C 
ATOM     11  C   UNL     1      -9.367  14.515  66.494  0.00  0.00    +0.171 C 
ENDBRANCH   7   8
ENDBRANCH   2   7
TORSDOF 4
ENDMDL
MODEL 8
REMARK VINA RESULT:      -3.7      2.611      3.532
REMARK  Name = 
REMARK  4 active torsions:
REMARK  status: ('A' for Active; 'I' for Inactive)
REMARK    1  A    between atoms: C_2  and  C_3
REMARK    2  A    between atoms: C_2  and  O_8
REMARK    3  A    between atoms: C_3  and  N_4
REMARK    4  A    between atoms: O_8  and  C_9
REMARK                            x       y       z     vdW  Elec       q    Type
REMARK                         _______ _______ _______ _____ _____    ______ ____
ROOT
ATOM      1  C   UNL     1      -8.559  16.152  66.211  0.00  0.00    +0.054 C 
ATOM      2  C   UNL     1     -10.183  16.202  66.620  0.00  0.00    +0.225 C 
ENDROOT
BRANCH   2   3
ATOM      3  O   UNL     1     -10.404  17.464  65.714  0.00  0.00    -0.430 OA
BRANCH   3   4
ATOM      4  C   UNL     1     -10.341  18.655  66.447  0.00  0.00    +0.441 C 
ATOM      5  O   UNL     1     -10.939  18.468  67.552  0.00  0.00    -0.223 OA
ATOM      6  N   UNL     1     -10.465  19.947  65.888  0.00  0.00    -0.048 NA
ENDBRANCH   3   4
ENDBRANCH   2   3
BRANCH   2   7
ATOM      7  C   UNL     1     -10.550  15.116  65.397  0.00  0.00    +0.153 C 
BRANCH   7   8
ATOM      8  N   UNL     1     -11.382  14.136  66.093  0.00  0.00    +0.313 N 
ATOM      9  C   UNL     1     -10.715  12.846  66.176  0.00  0.00    +0.171 C 
ATOM     10  C   UNL     1     -11.731  14.587  67.431  0.00  0.00    +0.171 C 
ATOM     11  C   UNL     1     -12.633  13.915  65.397  0.00  0.00    +0.171 C 
ENDBRANCH   7   8
ENDBRANCH   2   7
TORSDOF 4
ENDMDL
MODEL 9
REMARK VINA RESULT:      -3.6      2.603      3.503
REMARK  Name = 
REMARK  4 active torsions:
REMARK  status: ('A' for Active; 'I' for Inactive)
REMARK    1  A    between atoms: C_2  and  C_3
REMARK    2  A    between atoms: C_2  and  O_8
REMARK    3  A    between atoms: C_3  and  N_4
REMARK    4  A    between atoms: O_8  and  C_9
REMARK                            x       y       z     vdW  Elec       q    Type
REMARK                         _______ _______ _______ _____ _____    ______ ____
ROOT
ATOM      1  C   UNL     1      -8.558  16.315  66.157  0.00  0.00    +0.054 C 
ATOM      2  C   UNL     1     -10.189  16.436  66.520  0.00  0.00    +0.225 C 
ENDROOT
BRANCH   2   3
ATOM      3  O   UNL     1     -10.341  17.672  65.565  0.00  0.00    -0.430 OA
BRANCH   3   4
ATOM      4  C   UNL     1     -10.530  18.864  66.273  0.00  0.00    +0.441 C 
ATOM      5  O   UNL     1      -9.619  19.678  65.922  0.00  0.00    -0.223 OA
ATOM      6  N   UNL     1     -10.937  18.938  67.624  0.00  0.00    -0.048 NA
ENDBRANCH   3   4
ENDBRANCH   2   3
BRANCH   2   7
ATOM      7  C   UNL     1     -10.562  15.321  65.326  0.00  0.00    +0.153 C 
BRANCH   7   8
ATOM      8  N   UNL     1     -11.318  14.314  66.070  0.00  0.00    +0.313 N 
ATOM      9  C   UNL     1     -12.555  13.974  65.386  0.00  0.00    +0.171 C 
ATOM     10  C   UNL     1     -10.535  13.107  66.281  0.00  0.00    +0.171 C 
ATOM     11  C   UNL     1     -11.687  14.796  67.386  0.00  0.00    +0.171 C 
ENDBRANCH   7   8
ENDBRANCH   2   7
TORSDOF 4
ENDMDL
