MODEL 1
REMARK VINA RESULT:      -7.4      0.000      0.000
REMARK  Name = 
REMARK  5 active torsions:
REMARK  status: ('A' for Active; 'I' for Inactive)
REMARK    1  A    between atoms: C_2  and  C_3
REMARK    2  A    between atoms: C_10  and  C_11
REMARK    3  A    between atoms: C_11  and  C_13
REMARK    4  A    between atoms: C_13  and  C_14
REMARK    5  A    between atoms: C_14  and  C_15
REMARK                            x       y       z     vdW  Elec       q    Type
REMARK                         _______ _______ _______ _____ _____    ______ ____
ROOT
ATOM      1  C   UNL     1      -9.543  19.699  68.100  0.00  0.00    +0.031 C 
ATOM      2  C   UNL     1      -7.934  19.561  68.619  0.00  0.00    +0.005 C 
ATOM      3  C   UNL     1      -7.347  18.340  67.784  0.00  0.00    +0.000 C 
ATOM      4  C   UNL     1      -6.330  18.660  66.848  0.00  0.00    +0.003 C 
ATOM      5  C   UNL     1      -5.343  19.688  67.013  0.00  0.00    +0.033 C 
ATOM      6  C   UNL     1      -5.930  20.901  67.969  0.00  0.00    +0.152 C 
ATOM      7  O   UNL     1      -5.688  21.937  66.875  0.00  0.00    -0.223 OA
ATOM      8  C   UNL     1      -6.793  17.467  68.904  0.00  0.00    +0.000 C 
ATOM      9  C   UNL     1      -8.518  17.527  67.063  0.00  0.00    +0.002 C 
ATOM     10  C   UNL     1      -9.193  17.056  68.503  0.00  0.00    +0.030 C 
ATOM     11  C   UNL     1     -10.355  16.191  67.622  0.00  0.00    +0.002 C 
ATOM     12  C   UNL     1      -9.474  14.837  67.555  0.00  0.00    +0.000 C 
ATOM     13  C   UNL     1      -8.524  15.068  66.489  0.00  0.00    +0.000 C 
ATOM     14  C   UNL     1      -9.098  14.402  68.872  0.00  0.00    +0.000 C 
ATOM     15  C   UNL     1     -10.796  14.071  67.028  0.00  0.00    +0.000 C 
ATOM     16  C   UNL     1     -11.559  14.261  68.446  0.00  0.00    +0.000 C 
ATOM     17  C   UNL     1     -11.129  15.609  68.922  0.00  0.00    +0.000 C 
ATOM     18  C   UNL     1      -7.613  16.172  66.951  0.00  0.00    +0.000 C 
ATOM     19  C   UNL     1      -7.496  20.671  67.482  0.00  0.00    +0.033 C 
ATOM     20  C   UNL     1     -10.187  18.345  68.909  0.00  0.00    +0.152 C 
ATOM     21  O   UNL     1     -11.234  18.182  67.814  0.00  0.00    -0.223 OA
ENDROOT
BRANCH   1  23
ATOM     22  C   UNL     1     -10.069  19.861  66.082  0.00  0.00    +0.000 C 
ATOM     23  C   UNL     1      -9.468  19.212  66.579  0.00  0.00    +0.003 C 
ENDBRANCH   1  23
BRANCH  15  24
ATOM     24  C   UNL     1     -10.198  12.552  67.502  0.00  0.00    +0.001 C 
ATOM     25  C   UNL     1      -9.935  12.079  65.972  0.00  0.00    +0.000 C 
BRANCH  24  26
ATOM     26  C   UNL     1     -11.687  11.908  67.536  0.00  0.00    +0.012 C 
BRANCH  26  27
ATOM     27  C   UNL     1     -11.407  10.550  68.175  0.00  0.00    +0.114 C 
BRANCH  27  28
ATOM     28  C   UNL     1     -11.220  10.689  69.637  0.00  0.00    +0.365 C 
ATOM     29  O   UNL     1     -10.201   9.937  70.221  0.00  0.00    -0.246 OA
ATOM     30  O   UNL     1     -12.064  11.292  70.348  0.00  0.00    -0.246 OA
ENDBRANCH  27  28
ENDBRANCH  26  27
ENDBRANCH  24  26
ENDBRANCH  15  24
TORSDOF 5
ENDMDL
MODEL 2
REMARK VINA RESULT:      -7.1      2.070      7.570
REMARK  Name = 
REMARK  5 active torsions:
REMARK  status: ('A' for Active; 'I' for Inactive)
REMARK    1  A    between atoms: C_2  and  C_3
REMARK    2  A    between atoms: C_10  and  C_11
REMARK    3  A    between atoms: C_11  and  C_13
REMARK    4  A    between atoms: C_13  and  C_14
REMARK    5  A    between atoms: C_14  and  C_15
REMARK                            x       y       z     vdW  Elec       q    Type
REMARK                         _______ _______ _______ _____ _____    ______ ____
ROOT
ATOM      1  C   UNL     1     -11.647  15.673  68.493  0.00  0.00    +0.031 C 
ATOM      2  C   UNL     1     -11.171  14.572  67.294  0.00  0.00    +0.005 C 
ATOM      3  C   UNL     1      -9.647  14.253  67.625  0.00  0.00    +0.000 C 
ATOM      4  C   UNL     1      -9.367  12.924  68.033  0.00  0.00    +0.003 C 
ATOM      5  C   UNL     1     -10.045  11.750  67.566  0.00  0.00    +0.033 C 
ATOM      6  C   UNL     1     -11.595  12.117  67.126  0.00  0.00    +0.152 C 
ATOM      7  O   UNL     1     -12.160  11.095  68.109  0.00  0.00    -0.223 OA
ATOM      8  C   UNL     1      -8.994  14.552  66.280  0.00  0.00    +0.000 C 
ATOM      9  C   UNL     1      -9.067  15.289  68.694  0.00  0.00    +0.002 C 
ATOM     10  C   UNL     1      -9.246  16.579  67.667  0.00  0.00    +0.030 C 
ATOM     11  C   UNL     1      -8.570  17.568  68.867  0.00  0.00    +0.002 C 
ATOM     12  C   UNL     1      -7.048  17.341  68.370  0.00  0.00    +0.000 C 
ATOM     13  C   UNL     1      -6.671  16.055  68.913  0.00  0.00    +0.000 C 
ATOM     14  C   UNL     1      -6.902  17.690  66.983  0.00  0.00    +0.000 C 
ATOM     15  C   UNL     1      -6.611  18.556  69.340  0.00  0.00    +0.000 C 
ATOM     16  C   UNL     1      -7.412  19.651  68.451  0.00  0.00    +0.000 C 
ATOM     17  C   UNL     1      -8.639  18.933  67.995  0.00  0.00    +0.000 C 
ATOM     18  C   UNL     1      -7.524  15.025  68.225  0.00  0.00    +0.000 C 
ATOM     19  C   UNL     1     -11.731  13.340  68.234  0.00  0.00    +0.033 C 
ATOM     20  C   UNL     1     -10.837  17.053  67.907  0.00  0.00    +0.152 C 
ATOM     21  O   UNL     1     -10.705  17.586  69.328  0.00  0.00    -0.223 OA
ENDROOT
BRANCH   1  23
ATOM     22  C   UNL     1     -11.414  15.220  70.522  0.00  0.00    +0.000 C 
ATOM     23  C   UNL     1     -10.758  15.236  69.749  0.00  0.00    +0.003 C 
ENDBRANCH   1  23
BRANCH  15  24
ATOM     24  C   UNL     1      -5.176  18.834  68.472  0.00  0.00    +0.001 C 
ATOM     25  C   UNL     1      -4.256  18.084  69.578  0.00  0.00    +0.000 C 
BRANCH  24  26
ATOM     26  C   UNL     1      -4.968  20.289  69.162  0.00  0.00    +0.012 C 
BRANCH  26  27
ATOM     27  C   UNL     1      -3.779  20.013  70.079  0.00  0.00    +0.114 C 
BRANCH  27  28
ATOM     28  C   UNL     1      -3.885  20.806  71.325  0.00  0.00    +0.365 C 
ATOM     29  O   UNL     1      -3.712  20.123  72.528  0.00  0.00    -0.246 OA
ATOM     30  O   UNL     1      -4.312  21.989  71.311  0.00  0.00    -0.246 OA
ENDBRANCH  27  28
ENDBRANCH  26  27
ENDBRANCH  24  26
ENDBRANCH  15  24
TORSDOF 5
ENDMDL
MODEL 3
REMARK VINA RESULT:      -6.9      4.503     10.052
REMARK  Name = 
REMARK  5 active torsions:
REMARK  status: ('A' for Active; 'I' for Inactive)
REMARK    1  A    between atoms: C_2  and  C_3
REMARK    2  A    between atoms: C_10  and  C_11
REMARK    3  A    between atoms: C_11  and  C_13
REMARK    4  A    between atoms: C_13  and  C_14
REMARK    5  A    between atoms: C_14  and  C_15
REMARK                            x       y       z     vdW  Elec       q    Type
REMARK                         _______ _______ _______ _____ _____    ______ ____
ROOT
ATOM      1  C   UNL     1      -9.080   6.325  68.656  0.00  0.00    +0.031 C 
ATOM      2  C   UNL     1      -8.813   6.795  70.263  0.00  0.00    +0.005 C 
ATOM      3  C   UNL     1      -9.874   7.952  70.524  0.00  0.00    +0.000 C 
ATOM      4  C   UNL     1     -10.892   7.660  71.467  0.00  0.00    +0.003 C 
ATOM      5  C   UNL     1     -10.734   6.839  72.632  0.00  0.00    +0.033 C 
ATOM      6  C   UNL     1      -9.556   5.707  72.384  0.00  0.00    +0.152 C 
ATOM      7  O   UNL     1     -10.529   4.569  72.678  0.00  0.00    -0.223 OA
ATOM      8  C   UNL     1      -8.965   9.062  71.040  0.00  0.00    +0.000 C 
ATOM      9  C   UNL     1     -10.524   8.450  69.152  0.00  0.00    +0.002 C 
ATOM     10  C   UNL     1      -9.077   9.020  68.574  0.00  0.00    +0.030 C 
ATOM     11  C   UNL     1      -9.893   9.545  67.184  0.00  0.00    +0.002 C 
ATOM     12  C   UNL     1     -10.258  10.996  67.797  0.00  0.00    +0.000 C 
ATOM     13  C   UNL     1     -11.406  10.760  68.644  0.00  0.00    +0.000 C 
ATOM     14  C   UNL     1      -9.074  11.681  68.239  0.00  0.00    +0.000 C 
ATOM     15  C   UNL     1     -10.690  11.453  66.309  0.00  0.00    +0.000 C 
ATOM     16  C   UNL     1      -9.167  11.362  65.760  0.00  0.00    +0.000 C 
ATOM     17  C   UNL     1      -8.584  10.188  66.474  0.00  0.00    +0.000 C 
ATOM     18  C   UNL     1     -10.936   9.898  69.784  0.00  0.00    +0.000 C 
ATOM     19  C   UNL     1      -9.846   5.609  70.757  0.00  0.00    +0.033 C 
ATOM     20  C   UNL     1      -8.372   7.666  67.878  0.00  0.00    +0.152 C 
ATOM     21  O   UNL     1      -9.323   7.492  66.701  0.00  0.00    -0.223 OA
ENDROOT
BRANCH   1  23
ATOM     22  C   UNL     1     -10.959   5.798  67.903  0.00  0.00    +0.000 C 
ATOM     23  C   UNL     1     -10.648   6.581  68.467  0.00  0.00    +0.003 C 
ENDBRANCH   1  23
BRANCH  15  24
ATOM     24  C   UNL     1     -10.506  13.101  66.679  0.00  0.00    +0.001 C 
ATOM     25  C   UNL     1     -12.091  13.308  66.956  0.00  0.00    +0.000 C 
BRANCH  24  26
ATOM     26  C   UNL     1     -10.637  13.530  65.118  0.00  0.00    +0.012 C 
BRANCH  26  27
ATOM     27  C   UNL     1     -10.440  15.041  65.209  0.00  0.00    +0.114 C 
BRANCH  27  28
ATOM     28  C   UNL     1     -11.505  15.752  64.465  0.00  0.00    +0.365 C 
ATOM     29  O   UNL     1     -12.538  14.978  63.940  0.00  0.00    -0.246 OA
ATOM     30  O   UNL     1     -11.379  16.962  64.144  0.00  0.00    -0.246 OA
ENDBRANCH  27  28
ENDBRANCH  26  27
ENDBRANCH  24  26
ENDBRANCH  15  24
TORSDOF 5
ENDMDL
MODEL 4
REMARK VINA RESULT:      -6.9      2.330      2.904
REMARK  Name = 
REMARK  5 active torsions:
REMARK  status: ('A' for Active; 'I' for Inactive)
REMARK    1  A    between atoms: C_2  and  C_3
REMARK    2  A    between atoms: C_10  and  C_11
REMARK    3  A    between atoms: C_11  and  C_13
REMARK    4  A    between atoms: C_13  and  C_14
REMARK    5  A    between atoms: C_14  and  C_15
REMARK                            x       y       z     vdW  Elec       q    Type
REMARK                         _______ _______ _______ _____ _____    ______ ____
ROOT
ATOM      1  C   UNL     1      -7.195  20.614  67.246  0.00  0.00    +0.031 C 
ATOM      2  C   UNL     1      -6.039  20.206  68.418  0.00  0.00    +0.005 C 
ATOM      3  C   UNL     1      -5.709  18.675  68.140  0.00  0.00    +0.000 C 
ATOM      4  C   UNL     1      -4.393  18.396  67.690  0.00  0.00    +0.003 C 
ATOM      5  C   UNL     1      -3.212  19.111  68.079  0.00  0.00    +0.033 C 
ATOM      6  C   UNL     1      -3.586  20.673  68.466  0.00  0.00    +0.152 C 
ATOM      7  O   UNL     1      -2.614  21.209  67.419  0.00  0.00    -0.223 OA
ATOM      8  C   UNL     1      -5.943  18.076  69.522  0.00  0.00    +0.000 C 
ATOM      9  C   UNL     1      -6.778  18.033  67.141  0.00  0.00    +0.002 C 
ATOM     10  C   UNL     1      -8.028  18.238  68.211  0.00  0.00    +0.030 C 
ATOM     11  C   UNL     1      -9.053  17.497  67.083  0.00  0.00    +0.002 C 
ATOM     12  C   UNL     1      -8.782  16.002  67.635  0.00  0.00    +0.000 C 
ATOM     13  C   UNL     1      -7.514  15.620  67.056  0.00  0.00    +0.000 C 
ATOM     14  C   UNL     1      -9.072  15.911  69.040  0.00  0.00    +0.000 C 
ATOM     15  C   UNL     1     -10.029  15.505  66.735  0.00  0.00    +0.000 C 
ATOM     16  C   UNL     1     -11.099  16.328  67.634  0.00  0.00    +0.000 C 
ATOM     17  C   UNL     1     -10.383  17.584  68.006  0.00  0.00    +0.000 C 
ATOM     18  C   UNL     1      -6.470  16.517  67.664  0.00  0.00    +0.000 C 
ATOM     19  C   UNL     1      -4.855  20.743  67.404  0.00  0.00    +0.033 C 
ATOM     20  C   UNL     1      -8.537  19.811  67.922  0.00  0.00    +0.152 C 
ATOM     21  O   UNL     1      -9.125  19.610  66.532  0.00  0.00    -0.223 OA
ENDROOT
BRANCH   1  23
ATOM     22  C   UNL     1      -6.782  20.308  65.218  0.00  0.00    +0.000 C 
ATOM     23  C   UNL     1      -6.795  19.677  66.012  0.00  0.00    +0.003 C 
ENDBRANCH   1  23
BRANCH  15  24
ATOM     24  C   UNL     1     -10.248  14.106  67.675  0.00  0.00    +0.001 C 
ATOM     25  C   UNL     1      -9.733  13.122  66.492  0.00  0.00    +0.000 C 
BRANCH  24  26
ATOM     26  C   UNL     1     -11.803  13.972  67.225  0.00  0.00    +0.012 C 
BRANCH  26  27
ATOM     27  C   UNL     1     -11.723  12.822  66.225  0.00  0.00    +0.114 C 
BRANCH  27  28
ATOM     28  C   UNL     1     -12.574  13.095  65.044  0.00  0.00    +0.365 C 
ATOM     29  O   UNL     1     -12.821  14.432  64.736  0.00  0.00    -0.246 OA
ATOM     30  O   UNL     1     -13.211  12.173  64.473  0.00  0.00    -0.246 OA
ENDBRANCH  27  28
ENDBRANCH  26  27
ENDBRANCH  24  26
ENDBRANCH  15  24
TORSDOF 5
ENDMDL
MODEL 5
REMARK VINA RESULT:      -6.5      1.456      7.728
REMARK  Name = 
REMARK  5 active torsions:
REMARK  status: ('A' for Active; 'I' for Inactive)
REMARK    1  A    between atoms: C_2  and  C_3
REMARK    2  A    between atoms: C_10  and  C_11
REMARK    3  A    between atoms: C_11  and  C_13
REMARK    4  A    between atoms: C_13  and  C_14
REMARK    5  A    between atoms: C_14  and  C_15
REMARK                            x       y       z     vdW  Elec       q    Type
REMARK                         _______ _______ _______ _____ _____    ______ ____
ROOT
ATOM      1  C   UNL     1     -11.647  15.633  68.633  0.00  0.00    +0.031 C 
ATOM      2  C   UNL     1     -11.269  14.522  67.408  0.00  0.00    +0.005 C 
ATOM      3  C   UNL     1      -9.728  14.190  67.631  0.00  0.00    +0.000 C 
ATOM      4  C   UNL     1      -9.431  12.860  68.025  0.00  0.00    +0.003 C 
ATOM      5  C   UNL     1     -10.152  11.690  67.613  0.00  0.00    +0.033 C 
ATOM      6  C   UNL     1     -11.727  12.071  67.284  0.00  0.00    +0.152 C 
ATOM      7  O   UNL     1     -12.229  11.058  68.310  0.00  0.00    -0.223 OA
ATOM      8  C   UNL     1      -9.170  14.477  66.241  0.00  0.00    +0.000 C 
ATOM      9  C   UNL     1      -9.063  15.225  68.650  0.00  0.00    +0.002 C 
ATOM     10  C   UNL     1      -9.303  16.512  67.632  0.00  0.00    +0.030 C 
ATOM     11  C   UNL     1      -8.534  17.500  68.775  0.00  0.00    +0.002 C 
ATOM     12  C   UNL     1      -7.055  17.257  68.172  0.00  0.00    +0.000 C 
ATOM     13  C   UNL     1      -6.651  15.970  68.693  0.00  0.00    +0.000 C 
ATOM     14  C   UNL     1      -7.005  17.598  66.776  0.00  0.00    +0.000 C 
ATOM     15  C   UNL     1      -6.537  18.472  69.102  0.00  0.00    +0.000 C 
ATOM     16  C   UNL     1      -7.390  19.570  68.266  0.00  0.00    +0.000 C 
ATOM     17  C   UNL     1      -8.653  18.862  67.903  0.00  0.00    +0.000 C 
ATOM     18  C   UNL     1      -7.561  14.944  68.073  0.00  0.00    +0.000 C 
ATOM     19  C   UNL     1     -11.771  13.300  68.393  0.00  0.00    +0.033 C 
ATOM     20  C   UNL     1     -10.869  17.002  67.983  0.00  0.00    +0.152 C 
ATOM     21  O   UNL     1     -10.631  17.541  69.388  0.00  0.00    -0.223 OA
ENDROOT
BRANCH   1  23
ATOM     22  C   UNL     1     -11.269  15.208  70.645  0.00  0.00    +0.000 C 
ATOM     23  C   UNL     1     -10.674  15.193  69.824  0.00  0.00    +0.003 C 
ENDBRANCH   1  23
BRANCH  15  24
ATOM     24  C   UNL     1      -5.166  18.733  68.132  0.00  0.00    +0.001 C 
ATOM     25  C   UNL     1      -4.170  18.013  69.191  0.00  0.00    +0.000 C 
BRANCH  24  26
ATOM     26  C   UNL     1      -4.918  20.205  68.769  0.00  0.00    +0.012 C 
BRANCH  26  27
ATOM     27  C   UNL     1      -3.785  20.721  67.887  0.00  0.00    +0.114 C 
BRANCH  27  28
ATOM     28  C   UNL     1      -4.323  21.457  66.720  0.00  0.00    +0.365 C 
ATOM     29  O   UNL     1      -5.606  21.988  66.842  0.00  0.00    -0.246 OA
ATOM     30  O   UNL     1      -3.740  21.429  65.606  0.00  0.00    -0.246 OA
ENDBRANCH  27  28
ENDBRANCH  26  27
ENDBRANCH  24  26
ENDBRANCH  15  24
TORSDOF 5
ENDMDL
MODEL 6
REMARK VINA RESULT:      -6.5      2.091      7.632
REMARK  Name = 
REMARK  5 active torsions:
REMARK  status: ('A' for Active; 'I' for Inactive)
REMARK    1  A    between atoms: C_2  and  C_3
REMARK    2  A    between atoms: C_10  and  C_11
REMARK    3  A    between atoms: C_11  and  C_13
REMARK    4  A    between atoms: C_13  and  C_14
REMARK    5  A    between atoms: C_14  and  C_15
REMARK                            x       y       z     vdW  Elec       q    Type
REMARK                         _______ _______ _______ _____ _____    ______ ____
ROOT
ATOM      1  C   UNL     1     -11.765  14.520  68.117  0.00  0.00    +0.031 C 
ATOM      2  C   UNL     1     -12.019  14.594  66.441  0.00  0.00    +0.005 C 
ATOM      3  C   UNL     1     -10.573  14.843  65.827  0.00  0.00    +0.000 C 
ATOM      4  C   UNL     1     -10.043  13.789  65.040  0.00  0.00    +0.003 C 
ATOM      5  C   UNL     1     -10.809  12.910  64.204  0.00  0.00    +0.033 C 
ATOM      6  C   UNL     1     -12.342  12.744  64.797  0.00  0.00    +0.152 C 
ATOM      7  O   UNL     1     -12.183  11.229  64.898  0.00  0.00    -0.223 OA
ATOM      8  C   UNL     1     -10.834  16.077  64.970  0.00  0.00    +0.000 C 
ATOM      9  C   UNL     1      -9.531  15.252  66.968  0.00  0.00    +0.002 C 
ATOM     10  C   UNL     1     -10.334  16.661  67.316  0.00  0.00    +0.030 C 
ATOM     11  C   UNL     1      -9.137  17.004  68.466  0.00  0.00    +0.002 C 
ATOM     12  C   UNL     1      -8.177  17.772  67.417  0.00  0.00    +0.000 C 
ATOM     13  C   UNL     1      -7.492  16.717  66.704  0.00  0.00    +0.000 C 
ATOM     14  C   UNL     1      -8.878  18.844  66.766  0.00  0.00    +0.000 C 
ATOM     15  C   UNL     1      -7.317  18.301  68.679  0.00  0.00    +0.000 C 
ATOM     16  C   UNL     1      -8.538  19.225  69.215  0.00  0.00    +0.000 C 
ATOM     17  C   UNL     1      -9.765  18.430  68.917  0.00  0.00    +0.000 C 
ATOM     18  C   UNL     1      -8.535  15.986  65.902  0.00  0.00    +0.000 C 
ATOM     19  C   UNL     1     -11.871  12.954  66.369  0.00  0.00    +0.033 C 
ATOM     20  C   UNL     1     -11.513  16.180  68.409  0.00  0.00    +0.152 C 
ATOM     21  O   UNL     1     -10.609  15.841  69.587  0.00  0.00    -0.223 OA
ENDROOT
BRANCH   1  23
ATOM     22  C   UNL     1     -10.405  13.107  68.841  0.00  0.00    +0.000 C 
ATOM     23  C   UNL     1     -10.293  13.904  68.225  0.00  0.00    +0.003 C 
ENDBRANCH   1  23
BRANCH  15  24
ATOM     24  C   UNL     1      -6.667  19.596  67.791  0.00  0.00    +0.001 C 
ATOM     25  C   UNL     1      -5.217  18.883  67.643  0.00  0.00    +0.000 C 
BRANCH  24  26
ATOM     26  C   UNL     1      -6.235  20.386  69.142  0.00  0.00    +0.012 C 
BRANCH  26  27
ATOM     27  C   UNL     1      -4.797  20.777  68.808  0.00  0.00    +0.114 C 
BRANCH  27  28
ATOM     28  C   UNL     1      -4.045  21.108  70.040  0.00  0.00    +0.365 C 
ATOM     29  O   UNL     1      -4.763  21.689  71.085  0.00  0.00    -0.246 OA
ATOM     30  O   UNL     1      -2.789  21.060  70.070  0.00  0.00    -0.246 OA
ENDBRANCH  27  28
ENDBRANCH  26  27
ENDBRANCH  24  26
ENDBRANCH  15  24
TORSDOF 5
ENDMDL
MODEL 7
REMARK VINA RESULT:      -6.4      3.732      9.973
REMARK  Name = 
REMARK  5 active torsions:
REMARK  status: ('A' for Active; 'I' for Inactive)
REMARK    1  A    between atoms: C_2  and  C_3
REMARK    2  A    between atoms: C_10  and  C_11
REMARK    3  A    between atoms: C_11  and  C_13
REMARK    4  A    between atoms: C_13  and  C_14
REMARK    5  A    between atoms: C_14  and  C_15
REMARK                            x       y       z     vdW  Elec       q    Type
REMARK                         _______ _______ _______ _____ _____    ______ ____
ROOT
ATOM      1  C   UNL     1     -11.257   7.690  71.588  0.00  0.00    +0.031 C 
ATOM      2  C   UNL     1     -11.022   6.478  70.425  0.00  0.00    +0.005 C 
ATOM      3  C   UNL     1      -9.840   7.025  69.510  0.00  0.00    +0.000 C 
ATOM      4  C   UNL     1      -8.625   6.296  69.565  0.00  0.00    +0.003 C 
ATOM      5  C   UNL     1      -8.514   4.878  69.749  0.00  0.00    +0.033 C 
ATOM      6  C   UNL     1      -9.803   4.307  70.611  0.00  0.00    +0.152 C 
ATOM      7  O   UNL     1      -8.883   3.725  71.681  0.00  0.00    -0.223 OA
ATOM      8  C   UNL     1     -10.473   6.914  68.128  0.00  0.00    +0.000 C 
ATOM      9  C   UNL     1      -9.564   8.572  69.799  0.00  0.00    +0.002 C 
ATOM     10  C   UNL     1     -11.063   9.029  69.256  0.00  0.00    +0.030 C 
ATOM     11  C   UNL     1     -10.632  10.639  69.562  0.00  0.00    +0.002 C 
ATOM     12  C   UNL     1      -9.992  10.875  68.096  0.00  0.00    +0.000 C 
ATOM     13  C   UNL     1      -8.675  10.283  68.169  0.00  0.00    +0.000 C 
ATOM     14  C   UNL     1     -10.944  10.568  67.063  0.00  0.00    +0.000 C 
ATOM     15  C   UNL     1      -9.960  12.456  68.427  0.00  0.00    +0.000 C 
ATOM     16  C   UNL     1     -11.578  12.561  68.436  0.00  0.00    +0.000 C 
ATOM     17  C   UNL     1     -12.031  11.272  69.040  0.00  0.00    +0.000 C 
ATOM     18  C   UNL     1      -8.874   8.801  68.337  0.00  0.00    +0.000 C 
ATOM     19  C   UNL     1      -9.992   5.715  71.461  0.00  0.00    +0.033 C 
ATOM     20  C   UNL     1     -12.044   8.837  70.604  0.00  0.00    +0.152 C 
ATOM     21  O   UNL     1     -11.480   9.965  71.459  0.00  0.00    -0.223 OA
ENDROOT
BRANCH   1  23
ATOM     22  C   UNL     1      -9.631   8.279  72.763  0.00  0.00    +0.000 C 
ATOM     23  C   UNL     1      -9.791   8.304  71.762  0.00  0.00    +0.003 C 
ENDBRANCH   1  23
BRANCH  15  24
ATOM     24  C   UNL     1      -9.898  12.878  66.782  0.00  0.00    +0.001 C 
ATOM     25  C   UNL     1      -8.354  13.368  66.874  0.00  0.00    +0.000 C 
BRANCH  24  26
ATOM     26  C   UNL     1     -10.477  14.366  67.077  0.00  0.00    +0.012 C 
BRANCH  26  27
ATOM     27  C   UNL     1     -11.040  14.740  65.708  0.00  0.00    +0.114 C 
BRANCH  27  28
ATOM     28  C   UNL     1     -10.564  16.080  65.295  0.00  0.00    +0.365 C 
ATOM     29  O   UNL     1     -11.299  16.738  64.311  0.00  0.00    -0.246 OA
ATOM     30  O   UNL     1      -9.442  16.515  65.661  0.00  0.00    -0.246 OA
ENDBRANCH  27  28
ENDBRANCH  26  27
ENDBRANCH  24  26
ENDBRANCH  15  24
TORSDOF 5
ENDMDL
MODEL 8
REMARK VINA RESULT:      -6.4      2.587      7.551
REMARK  Name = 
REMARK  5 active torsions:
REMARK  status: ('A' for Active; 'I' for Inactive)
REMARK    1  A    between atoms: C_2  and  C_3
REMARK    2  A    between atoms: C_10  and  C_11
REMARK    3  A    between atoms: C_11  and  C_13
REMARK    4  A    between atoms: C_13  and  C_14
REMARK    5  A    between atoms: C_14  and  C_15
REMARK                            x       y       z     vdW  Elec       q    Type
REMARK                         _______ _______ _______ _____ _____    ______ ____
ROOT
ATOM      1  C   UNL     1      -9.714  13.590  68.099  0.00  0.00    +0.031 C 
ATOM      2  C   UNL     1     -10.944  14.581  67.482  0.00  0.00    +0.005 C 
ATOM      3  C   UNL     1     -10.198  15.567  66.480  0.00  0.00    +0.000 C 
ATOM      4  C   UNL     1     -10.527  15.421  65.107  0.00  0.00    +0.003 C 
ATOM      5  C   UNL     1     -11.814  15.049  64.596  0.00  0.00    +0.033 C 
ATOM      6  C   UNL     1     -12.620  14.111  65.693  0.00  0.00    +0.152 C 
ATOM      7  O   UNL     1     -12.763  12.978  64.680  0.00  0.00    -0.223 OA
ATOM      8  C   UNL     1     -10.668  16.919  67.005  0.00  0.00    +0.000 C 
ATOM      9  C   UNL     1      -8.614  15.489  66.675  0.00  0.00    +0.002 C 
ATOM     10  C   UNL     1      -8.691  16.082  68.223  0.00  0.00    +0.030 C 
ATOM     11  C   UNL     1      -6.999  15.996  68.289  0.00  0.00    +0.002 C 
ATOM     12  C   UNL     1      -6.778  17.484  67.695  0.00  0.00    +0.000 C 
ATOM     13  C   UNL     1      -6.945  17.338  66.266  0.00  0.00    +0.000 C 
ATOM     14  C   UNL     1      -7.481  18.461  68.480  0.00  0.00    +0.000 C 
ATOM     15  C   UNL     1      -5.228  17.368  68.135  0.00  0.00    +0.000 C 
ATOM     16  C   UNL     1      -5.601  17.364  69.713  0.00  0.00    +0.000 C 
ATOM     17  C   UNL     1      -6.876  16.591  69.792  0.00  0.00    +0.000 C 
ATOM     18  C   UNL     1      -8.385  16.973  66.031  0.00  0.00    +0.000 C 
ATOM     19  C   UNL     1     -11.231  13.457  66.312  0.00  0.00    +0.033 C 
ATOM     20  C   UNL     1      -8.984  14.715  69.151  0.00  0.00    +0.152 C 
ATOM     21  O   UNL     1      -7.640  14.022  68.969  0.00  0.00    -0.223 OA
ENDROOT
BRANCH   1  23
ATOM     22  C   UNL     1      -8.417  12.528  66.848  0.00  0.00    +0.000 C 
ATOM     23  C   UNL     1      -8.680  13.507  66.882  0.00  0.00    +0.003 C 
ENDBRANCH   1  23
BRANCH  15  24
ATOM     24  C   UNL     1      -5.024  19.055  68.141  0.00  0.00    +0.001 C 
ATOM     25  C   UNL     1      -3.962  19.021  66.915  0.00  0.00    +0.000 C 
BRANCH  24  26
ATOM     26  C   UNL     1      -3.856  18.972  69.266  0.00  0.00    +0.012 C 
BRANCH  26  27
ATOM     27  C   UNL     1      -3.727  20.439  69.666  0.00  0.00    +0.114 C 
BRANCH  27  28
ATOM     28  C   UNL     1      -4.130  20.635  71.077  0.00  0.00    +0.365 C 
ATOM     29  O   UNL     1      -4.370  21.944  71.492  0.00  0.00    -0.246 OA
ATOM     30  O   UNL     1      -4.060  19.697  71.912  0.00  0.00    -0.246 OA
ENDBRANCH  27  28
ENDBRANCH  26  27
ENDBRANCH  24  26
ENDBRANCH  15  24
TORSDOF 5
ENDMDL
MODEL 9
REMARK VINA RESULT:      -6.4      1.530      2.118
REMARK  Name = 
REMARK  5 active torsions:
REMARK  status: ('A' for Active; 'I' for Inactive)
REMARK    1  A    between atoms: C_2  and  C_3
REMARK    2  A    between atoms: C_10  and  C_11
REMARK    3  A    between atoms: C_11  and  C_13
REMARK    4  A    between atoms: C_13  and  C_14
REMARK    5  A    between atoms: C_14  and  C_15
REMARK                            x       y       z     vdW  Elec       q    Type
REMARK                         _______ _______ _______ _____ _____    ______ ____
ROOT
ATOM      1  C   UNL     1      -7.254  20.475  67.037  0.00  0.00    +0.031 C 
ATOM      2  C   UNL     1      -6.062  20.211  68.214  0.00  0.00    +0.005 C 
ATOM      3  C   UNL     1      -5.638  18.689  68.021  0.00  0.00    +0.000 C 
ATOM      4  C   UNL     1      -4.313  18.467  67.569  0.00  0.00    +0.003 C 
ATOM      5  C   UNL     1      -3.175  19.276  67.897  0.00  0.00    +0.033 C 
ATOM      6  C   UNL     1      -3.643  20.832  68.197  0.00  0.00    +0.152 C 
ATOM      7  O   UNL     1      -2.719  21.365  67.105  0.00  0.00    -0.223 OA
ATOM      8  C   UNL     1      -5.818  18.161  69.440  0.00  0.00    +0.000 C 
ATOM      9  C   UNL     1      -6.676  17.924  67.078  0.00  0.00    +0.002 C 
ATOM     10  C   UNL     1      -7.924  18.114  68.154  0.00  0.00    +0.030 C 
ATOM     11  C   UNL     1      -8.914  17.243  67.087  0.00  0.00    +0.002 C 
ATOM     12  C   UNL     1      -8.542  15.804  67.722  0.00  0.00    +0.000 C 
ATOM     13  C   UNL     1      -7.258  15.468  67.147  0.00  0.00    +0.000 C 
ATOM     14  C   UNL     1      -8.810  15.780  69.134  0.00  0.00    +0.000 C 
ATOM     15  C   UNL     1      -9.765  15.177  66.872  0.00  0.00    +0.000 C 
ATOM     16  C   UNL     1     -10.875  15.984  67.737  0.00  0.00    +0.000 C 
ATOM     17  C   UNL     1     -10.236  17.302  68.024  0.00  0.00    +0.000 C 
ATOM     18  C   UNL     1      -6.267  16.463  67.685  0.00  0.00    +0.000 C 
ATOM     19  C   UNL     1      -4.926  20.759  67.152  0.00  0.00    +0.033 C 
ATOM     20  C   UNL     1      -8.535  19.631  67.780  0.00  0.00    +0.152 C 
ATOM     21  O   UNL     1      -9.125  19.311  66.413  0.00  0.00    -0.223 OA
ENDROOT
BRANCH   1  23
ATOM     22  C   UNL     1      -6.810  20.084  65.031  0.00  0.00    +0.000 C 
ATOM     23  C   UNL     1      -6.810  19.493  65.855  0.00  0.00    +0.003 C 
ENDBRANCH   1  23
BRANCH  15  24
ATOM     24  C   UNL     1      -9.884  13.826  67.896  0.00  0.00    +0.001 C 
ATOM     25  C   UNL     1      -9.334  12.805  66.761  0.00  0.00    +0.000 C 
BRANCH  24  26
ATOM     26  C   UNL     1     -11.436  13.576  67.489  0.00  0.00    +0.012 C 
BRANCH  26  27
ATOM     27  C   UNL     1     -11.744  12.300  68.266  0.00  0.00    +0.114 C 
BRANCH  27  28
ATOM     28  C   UNL     1     -11.950  12.598  69.702  0.00  0.00    +0.365 C 
ATOM     29  O   UNL     1     -11.929  11.518  70.584  0.00  0.00    -0.246 OA
ATOM     30  O   UNL     1     -12.328  13.735  70.084  0.00  0.00    -0.246 OA
ENDBRANCH  27  28
ENDBRANCH  26  27
ENDBRANCH  24  26
ENDBRANCH  15  24
TORSDOF 5
ENDMDL
