MODEL 1
REMARK VINA RESULT:      -7.0      0.000      0.000
REMARK  Name = 
REMARK  4 active torsions:
REMARK  status: ('A' for Active; 'I' for Inactive)
REMARK    1  A    between atoms: O_2  and  C_3
REMARK    2  A    between atoms: C_7  and  C_8
REMARK    3  A    between atoms: C_8  and  C_10
REMARK    4  A    between atoms: C_17  and  S_18
REMARK                            x       y       z     vdW  Elec       q    Type
REMARK                         _______ _______ _______ _____ _____    ______ ____
ROOT
ATOM      1  C   UNL     1     -10.507  12.481  66.826  0.00  0.00    +0.161 A 
ATOM      2  C   UNL     1     -11.636  13.224  66.503  0.00  0.00    +0.170 A 
ATOM      3  C   UNL     1     -12.054  14.238  67.359  0.00  0.00    +0.030 A 
ATOM      4  C   UNL     1     -11.339  14.511  68.519  0.00  0.00    +0.079 A 
ATOM      5  C   UNL     1     -10.054  14.005  68.662  0.00  0.00    +0.202 A 
ATOM      6  O   UNL     1      -9.039  14.743  69.252  0.00  0.00    -0.286 OA
ATOM      7  C   UNL     1      -9.805  12.825  67.974  0.00  0.00    +0.080 A 
ENDROOT
BRANCH   2   8
ATOM      8  S   UNL     1     -12.093  13.215  64.804  0.00  0.00    +0.144 S 
ATOM      9  O   UNL     1     -12.627  14.763  64.388  0.00  0.00    -0.043 OA
ATOM     10  O   UNL     1     -13.224  12.277  64.534  0.00  0.00    -0.140 OA
ATOM     11  O   UNL     1     -10.927  12.912  63.916  0.00  0.00    -0.140 OA
ENDBRANCH   2   8
BRANCH   1  13
ATOM     12  C   UNL     1     -10.801  10.174  67.347  0.00  0.00    +0.253 C 
ATOM     13  O   UNL     1     -10.509  11.162  66.360  0.00  0.00    -0.470 OA
ENDBRANCH   1  13
BRANCH   4  14
ATOM     14  C   UNL     1     -11.670  15.711  69.267  0.00  0.00    +0.199 C 
ATOM     15  O   UNL     1     -11.691  16.816  68.648  0.00  0.00    -0.286 OA
BRANCH  14  16
ATOM     16  C   UNL     1     -12.345  15.664  70.562  0.00  0.00    +0.039 A 
ATOM     17  C   UNL     1     -11.721  16.086  71.729  0.00  0.00    +0.003 A 
ATOM     18  C   UNL     1     -12.043  15.438  72.907  0.00  0.00    +0.000 A 
ATOM     19  C   UNL     1     -13.114  14.558  72.955  0.00  0.00    +0.000 A 
ATOM     20  C   UNL     1     -14.055  14.698  71.941  0.00  0.00    +0.000 A 
ATOM     21  C   UNL     1     -13.626  15.171  70.709  0.00  0.00    +0.003 A 
ENDBRANCH  14  16
ENDBRANCH   4  14
TORSDOF 4
ENDMDL
MODEL 2
REMARK VINA RESULT:      -6.7      2.173      3.429
REMARK  Name = 
REMARK  4 active torsions:
REMARK  status: ('A' for Active; 'I' for Inactive)
REMARK    1  A    between atoms: O_2  and  C_3
REMARK    2  A    between atoms: C_7  and  C_8
REMARK    3  A    between atoms: C_8  and  C_10
REMARK    4  A    between atoms: C_17  and  S_18
REMARK                            x       y       z     vdW  Elec       q    Type
REMARK                         _______ _______ _______ _____ _____    ______ ____
ROOT
ATOM      1  C   UNL     1     -10.693  12.467  66.690  0.00  0.00    +0.161 A 
ATOM      2  C   UNL     1     -11.672  13.331  66.213  0.00  0.00    +0.170 A 
ATOM      3  C   UNL     1     -11.909  14.529  66.880  0.00  0.00    +0.030 A 
ATOM      4  C   UNL     1     -11.162  14.862  68.004  0.00  0.00    +0.079 A 
ATOM      5  C   UNL     1      -9.988  14.171  68.271  0.00  0.00    +0.202 A 
ATOM      6  O   UNL     1      -8.862  14.809  68.770  0.00  0.00    -0.286 OA
ATOM      7  C   UNL     1      -9.948  12.869  67.791  0.00  0.00    +0.080 A 
ENDROOT
BRANCH   2   8
ATOM      8  S   UNL     1     -12.113  13.121  64.523  0.00  0.00    +0.144 S 
ATOM      9  O   UNL     1     -12.586  14.622  63.906  0.00  0.00    -0.043 OA
ATOM     10  O   UNL     1     -13.275  12.197  64.359  0.00  0.00    -0.140 OA
ATOM     11  O   UNL     1     -10.951  12.667  63.697  0.00  0.00    -0.140 OA
ENDBRANCH   2   8
BRANCH   1  13
ATOM     12  C   UNL     1     -11.060  10.299  67.610  0.00  0.00    +0.253 C 
ATOM     13  O   UNL     1     -10.925  11.110  66.443  0.00  0.00    -0.470 OA
ENDBRANCH   1  13
BRANCH   4  14
ATOM     14  C   UNL     1     -11.281  16.208  68.536  0.00  0.00    +0.199 C 
ATOM     15  O   UNL     1     -11.743  16.351  69.706  0.00  0.00    -0.286 OA
BRANCH  14  16
ATOM     16  C   UNL     1     -10.554  17.340  67.966  0.00  0.00    +0.039 A 
ATOM     17  C   UNL     1      -9.895  18.265  68.766  0.00  0.00    +0.003 A 
ATOM     18  C   UNL     1      -9.838  19.576  68.329  0.00  0.00    +0.000 A 
ATOM     19  C   UNL     1     -10.224  19.903  67.038  0.00  0.00    +0.000 A 
ATOM     20  C   UNL     1     -10.242  18.851  66.129  0.00  0.00    +0.000 A 
ATOM     21  C   UNL     1     -10.504  17.576  66.606  0.00  0.00    +0.003 A 
ENDBRANCH  14  16
ENDBRANCH   4  14
TORSDOF 4
ENDMDL
MODEL 3
REMARK VINA RESULT:      -6.4      2.996      6.074
REMARK  Name = 
REMARK  4 active torsions:
REMARK  status: ('A' for Active; 'I' for Inactive)
REMARK    1  A    between atoms: O_2  and  C_3
REMARK    2  A    between atoms: C_7  and  C_8
REMARK    3  A    between atoms: C_8  and  C_10
REMARK    4  A    between atoms: C_17  and  S_18
REMARK                            x       y       z     vdW  Elec       q    Type
REMARK                         _______ _______ _______ _____ _____    ______ ____
ROOT
ATOM      1  C   UNL     1     -10.019  16.466  68.165  0.00  0.00    +0.161 A 
ATOM      2  C   UNL     1     -10.219  16.652  66.802  0.00  0.00    +0.170 A 
ATOM      3  C   UNL     1     -10.825  15.645  66.057  0.00  0.00    +0.030 A 
ATOM      4  C   UNL     1     -11.236  14.470  66.676  0.00  0.00    +0.079 A 
ATOM      5  C   UNL     1     -11.337  14.429  68.060  0.00  0.00    +0.202 A 
ATOM      6  O   UNL     1     -12.366  13.752  68.698  0.00  0.00    -0.286 OA
ATOM      7  C   UNL     1     -10.488  15.293  68.739  0.00  0.00    +0.080 A 
ENDROOT
BRANCH   2   8
ATOM      8  S   UNL     1     -10.227  18.325  66.255  0.00  0.00    +0.144 S 
ATOM      9  O   UNL     1     -10.981  19.268  67.436  0.00  0.00    -0.043 OA
ATOM     10  O   UNL     1     -11.009  18.497  64.994  0.00  0.00    -0.140 OA
ATOM     11  O   UNL     1      -8.840  18.864  66.097  0.00  0.00    -0.140 OA
ENDBRANCH   2   8
BRANCH   1  13
ATOM     12  C   UNL     1      -7.674  16.419  68.584  0.00  0.00    +0.253 C 
ATOM     13  O   UNL     1      -8.907  17.127  68.698  0.00  0.00    -0.470 OA
ENDBRANCH   1  13
BRANCH   4  14
ATOM     14  C   UNL     1     -12.059  13.544  65.919  0.00  0.00    +0.199 C 
ATOM     15  O   UNL     1     -13.141  13.972  65.423  0.00  0.00    -0.286 OA
BRANCH  14  16
ATOM     16  C   UNL     1     -11.533  12.291  65.382  0.00  0.00    +0.039 A 
ATOM     17  C   UNL     1     -10.972  11.320  66.202  0.00  0.00    +0.003 A 
ATOM     18  C   UNL     1      -9.938  10.557  65.690  0.00  0.00    +0.000 A 
ATOM     19  C   UNL     1      -9.631  10.606  64.339  0.00  0.00    +0.000 A 
ATOM     20  C   UNL     1     -10.638  11.086  63.509  0.00  0.00    +0.000 A 
ATOM     21  C   UNL     1     -11.533  12.009  64.030  0.00  0.00    +0.003 A 
ENDBRANCH  14  16
ENDBRANCH   4  14
TORSDOF 4
ENDMDL
MODEL 4
REMARK VINA RESULT:      -6.3      3.396      4.072
REMARK  Name = 
REMARK  4 active torsions:
REMARK  status: ('A' for Active; 'I' for Inactive)
REMARK    1  A    between atoms: O_2  and  C_3
REMARK    2  A    between atoms: C_7  and  C_8
REMARK    3  A    between atoms: C_8  and  C_10
REMARK    4  A    between atoms: C_17  and  S_18
REMARK                            x       y       z     vdW  Elec       q    Type
REMARK                         _______ _______ _______ _____ _____    ______ ____
ROOT
ATOM      1  C   UNL     1     -10.794  12.678  66.621  0.00  0.00    +0.161 A 
ATOM      2  C   UNL     1     -11.290  13.626  65.734  0.00  0.00    +0.170 A 
ATOM      3  C   UNL     1     -10.786  14.923  65.768  0.00  0.00    +0.030 A 
ATOM      4  C   UNL     1      -9.786  15.259  66.673  0.00  0.00    +0.079 A 
ATOM      5  C   UNL     1      -9.075  14.249  67.309  0.00  0.00    +0.202 A 
ATOM      6  O   UNL     1      -7.713  14.353  67.548  0.00  0.00    -0.286 OA
ATOM      7  C   UNL     1      -9.765  13.056  67.473  0.00  0.00    +0.080 A 
ENDROOT
BRANCH   2   8
ATOM      8  S   UNL     1     -12.071  12.987  64.293  0.00  0.00    +0.144 S 
ATOM      9  O   UNL     1     -12.507  14.284  63.303  0.00  0.00    -0.043 OA
ATOM     10  O   UNL     1     -13.327  12.246  64.619  0.00  0.00    -0.140 OA
ATOM     11  O   UNL     1     -11.142  12.130  63.491  0.00  0.00    -0.140 OA
ENDBRANCH   2   8
BRANCH   1  13
ATOM     12  C   UNL     1     -11.111  10.482  67.491  0.00  0.00    +0.253 C 
ATOM     13  O   UNL     1     -11.702  11.683  66.996  0.00  0.00    -0.470 OA
ENDBRANCH   1  13
BRANCH   4  14
ATOM     14  C   UNL     1      -9.132  16.547  66.530  0.00  0.00    +0.199 C 
ATOM     15  O   UNL     1      -8.181  16.648  65.701  0.00  0.00    -0.286 OA
BRANCH  14  16
ATOM     16  C   UNL     1      -9.747  17.791  66.988  0.00  0.00    +0.039 A 
ATOM     17  C   UNL     1     -10.410  18.645  66.116  0.00  0.00    +0.003 A 
ATOM     18  C   UNL     1     -10.358  20.003  66.374  0.00  0.00    +0.000 A 
ATOM     19  C   UNL     1      -9.857  20.471  67.580  0.00  0.00    +0.000 A 
ATOM     20  C   UNL     1      -9.832  19.548  68.620  0.00  0.00    +0.000 A 
ATOM     21  C   UNL     1      -9.681  18.206  68.304  0.00  0.00    +0.003 A 
ENDBRANCH  14  16
ENDBRANCH   4  14
TORSDOF 4
ENDMDL
MODEL 5
REMARK VINA RESULT:      -6.1      3.758      5.839
REMARK  Name = 
REMARK  4 active torsions:
REMARK  status: ('A' for Active; 'I' for Inactive)
REMARK    1  A    between atoms: O_2  and  C_3
REMARK    2  A    between atoms: C_7  and  C_8
REMARK    3  A    between atoms: C_8  and  C_10
REMARK    4  A    between atoms: C_17  and  S_18
REMARK                            x       y       z     vdW  Elec       q    Type
REMARK                         _______ _______ _______ _____ _____    ______ ____
ROOT
ATOM      1  C   UNL     1     -12.338  13.721  70.318  0.00  0.00    +0.161 A 
ATOM      2  C   UNL     1     -11.778  14.806  70.983  0.00  0.00    +0.170 A 
ATOM      3  C   UNL     1     -10.804  15.569  70.346  0.00  0.00    +0.030 A 
ATOM      4  C   UNL     1     -10.407  15.254  69.051  0.00  0.00    +0.079 A 
ATOM      5  C   UNL     1     -11.191  14.400  68.288  0.00  0.00    +0.202 A 
ATOM      6  O   UNL     1     -11.388  14.606  66.931  0.00  0.00    -0.286 OA
ATOM      7  C   UNL     1     -11.936  13.479  69.011  0.00  0.00    +0.080 A 
ENDROOT
BRANCH   2   8
ATOM      8  S   UNL     1     -12.732  15.462  72.308  0.00  0.00    +0.144 S 
ATOM      9  O   UNL     1     -12.863  14.279  73.507  0.00  0.00    -0.043 OA
ATOM     10  O   UNL     1     -14.121  15.805  71.880  0.00  0.00    -0.140 OA
ATOM     11  O   UNL     1     -12.065  16.642  72.943  0.00  0.00    -0.140 OA
ENDBRANCH   2   8
BRANCH   1  13
ATOM     12  C   UNL     1     -12.303  11.378  70.751  0.00  0.00    +0.253 C 
ATOM     13  O   UNL     1     -12.760  12.673  71.141  0.00  0.00    -0.470 OA
ENDBRANCH   1  13
BRANCH   4  14
ATOM     14  C   UNL     1      -9.561  16.197  68.342  0.00  0.00    +0.199 C 
ATOM     15  O   UNL     1      -8.525  15.755  67.763  0.00  0.00    -0.286 OA
BRANCH  14  16
ATOM     16  C   UNL     1     -10.031  17.520  67.940  0.00  0.00    +0.039 A 
ATOM     17  C   UNL     1     -10.555  17.759  66.676  0.00  0.00    +0.003 A 
ATOM     18  C   UNL     1     -10.343  19.004  66.111  0.00  0.00    +0.000 A 
ATOM     19  C   UNL     1      -9.828  20.042  66.872  0.00  0.00    +0.000 A 
ATOM     20  C   UNL     1      -9.951  19.899  68.249  0.00  0.00    +0.000 A 
ATOM     21  C   UNL     1      -9.957  18.616  68.778  0.00  0.00    +0.003 A 
ENDBRANCH  14  16
ENDBRANCH   4  14
TORSDOF 4
ENDMDL
MODEL 6
REMARK VINA RESULT:      -6.1      3.734      5.370
REMARK  Name = 
REMARK  4 active torsions:
REMARK  status: ('A' for Active; 'I' for Inactive)
REMARK    1  A    between atoms: O_2  and  C_3
REMARK    2  A    between atoms: C_7  and  C_8
REMARK    3  A    between atoms: C_8  and  C_10
REMARK    4  A    between atoms: C_17  and  S_18
REMARK                            x       y       z     vdW  Elec       q    Type
REMARK                         _______ _______ _______ _____ _____    ______ ____
ROOT
ATOM      1  C   UNL     1     -10.561  13.549  65.616  0.00  0.00    +0.161 A 
ATOM      2  C   UNL     1     -10.390  13.830  66.966  0.00  0.00    +0.170 A 
ATOM      3  C   UNL     1     -10.161  15.142  67.368  0.00  0.00    +0.030 A 
ATOM      4  C   UNL     1     -10.116  16.163  66.425  0.00  0.00    +0.079 A 
ATOM      5  C   UNL     1     -10.611  15.932  65.148  0.00  0.00    +0.202 A 
ATOM      6  O   UNL     1     -11.318  16.901  64.453  0.00  0.00    -0.286 OA
ATOM      7  C   UNL     1     -10.551  14.612  64.722  0.00  0.00    +0.080 A 
ENDROOT
BRANCH   2   8
ATOM      8  S   UNL     1     -11.041  12.633  68.080  0.00  0.00    +0.144 S 
ATOM      9  O   UNL     1     -11.703  13.444  69.406  0.00  0.00    -0.043 OA
ATOM     10  O   UNL     1      -9.978  11.726  68.610  0.00  0.00    -0.140 OA
ATOM     11  O   UNL     1     -12.153  11.845  67.463  0.00  0.00    -0.140 OA
ENDBRANCH   2   8
BRANCH   1  13
ATOM     12  C   UNL     1     -10.443  11.942  63.861  0.00  0.00    +0.253 C 
ATOM     13  O   UNL     1     -10.143  12.277  65.215  0.00  0.00    -0.470 OA
ENDBRANCH   1  13
BRANCH   4  14
ATOM     14  C   UNL     1     -10.099  17.536  66.897  0.00  0.00    +0.199 C 
ATOM     15  O   UNL     1     -10.950  17.880  67.769  0.00  0.00    -0.286 OA
BRANCH  14  16
ATOM     16  C   UNL     1      -8.942  18.410  66.717  0.00  0.00    +0.039 A 
ATOM     17  C   UNL     1      -7.726  17.929  66.249  0.00  0.00    +0.003 A 
ATOM     18  C   UNL     1      -6.569  18.524  66.718  0.00  0.00    +0.000 A 
ATOM     19  C   UNL     1      -6.631  19.701  67.449  0.00  0.00    +0.000 A 
ATOM     20  C   UNL     1      -7.802  20.437  67.306  0.00  0.00    +0.000 A 
ATOM     21  C   UNL     1      -8.977  19.755  67.030  0.00  0.00    +0.003 A 
ENDBRANCH  14  16
ENDBRANCH   4  14
TORSDOF 4
ENDMDL
MODEL 7
REMARK VINA RESULT:      -6.0      3.812      5.754
REMARK  Name = 
REMARK  4 active torsions:
REMARK  status: ('A' for Active; 'I' for Inactive)
REMARK    1  A    between atoms: O_2  and  C_3
REMARK    2  A    between atoms: C_7  and  C_8
REMARK    3  A    between atoms: C_8  and  C_10
REMARK    4  A    between atoms: C_17  and  S_18
REMARK                            x       y       z     vdW  Elec       q    Type
REMARK                         _______ _______ _______ _____ _____    ______ ____
ROOT
ATOM      1  C   UNL     1     -12.237  13.730  70.150  0.00  0.00    +0.161 A 
ATOM      2  C   UNL     1     -12.018  14.877  70.904  0.00  0.00    +0.170 A 
ATOM      3  C   UNL     1     -11.252  15.909  70.370  0.00  0.00    +0.030 A 
ATOM      4  C   UNL     1     -10.724  15.795  69.089  0.00  0.00    +0.079 A 
ATOM      5  C   UNL     1     -11.214  14.818  68.234  0.00  0.00    +0.202 A 
ATOM      6  O   UNL     1     -11.394  15.054  66.880  0.00  0.00    -0.286 OA
ATOM      7  C   UNL     1     -11.723  13.688  68.861  0.00  0.00    +0.080 A 
ENDROOT
BRANCH   2   8
ATOM      8  S   UNL     1     -13.175  15.171  72.196  0.00  0.00    +0.144 S 
ATOM      9  O   UNL     1     -12.534  16.347  73.227  0.00  0.00    -0.043 OA
ATOM     10  O   UNL     1     -13.413  13.949  73.022  0.00  0.00    -0.140 OA
ATOM     11  O   UNL     1     -14.466  15.719  71.673  0.00  0.00    -0.140 OA
ENDBRANCH   2   8
BRANCH   1  13
ATOM     12  C   UNL     1     -12.006  11.359  70.221  0.00  0.00    +0.253 C 
ATOM     13  O   UNL     1     -12.404  12.555  70.890  0.00  0.00    -0.470 OA
ENDBRANCH   1  13
BRANCH   4  14
ATOM     14  C   UNL     1     -10.125  16.972  68.484  0.00  0.00    +0.199 C 
ATOM     15  O   UNL     1     -10.863  17.979  68.275  0.00  0.00    -0.286 OA
BRANCH  14  16
ATOM     16  C   UNL     1      -8.681  17.192  68.466  0.00  0.00    +0.039 A 
ATOM     17  C   UNL     1      -7.780  16.172  68.745  0.00  0.00    +0.003 A 
ATOM     18  C   UNL     1      -6.595  16.508  69.374  0.00  0.00    +0.000 A 
ATOM     19  C   UNL     1      -6.224  17.837  69.511  0.00  0.00    +0.000 A 
ATOM     20  C   UNL     1      -6.845  18.728  68.643  0.00  0.00    +0.000 A 
ATOM     21  C   UNL     1      -8.126  18.429  68.201  0.00  0.00    +0.003 A 
ENDBRANCH  14  16
ENDBRANCH   4  14
TORSDOF 4
ENDMDL
MODEL 8
REMARK VINA RESULT:      -5.9      3.934      6.296
REMARK  Name = 
REMARK  4 active torsions:
REMARK  status: ('A' for Active; 'I' for Inactive)
REMARK    1  A    between atoms: O_2  and  C_3
REMARK    2  A    between atoms: C_7  and  C_8
REMARK    3  A    between atoms: C_8  and  C_10
REMARK    4  A    between atoms: C_17  and  S_18
REMARK                            x       y       z     vdW  Elec       q    Type
REMARK                         _______ _______ _______ _____ _____    ______ ____
ROOT
ATOM      1  C   UNL     1      -8.220  17.067  66.391  0.00  0.00    +0.161 A 
ATOM      2  C   UNL     1      -9.575  17.378  66.375  0.00  0.00    +0.170 A 
ATOM      3  C   UNL     1     -10.512  16.352  66.451  0.00  0.00    +0.030 A 
ATOM      4  C   UNL     1     -10.093  15.031  66.555  0.00  0.00    +0.079 A 
ATOM      5  C   UNL     1      -8.777  14.759  66.902  0.00  0.00    +0.202 A 
ATOM      6  O   UNL     1      -8.445  13.710  67.746  0.00  0.00    -0.286 OA
ATOM      7  C   UNL     1      -7.858  15.735  66.540  0.00  0.00    +0.080 A 
ENDROOT
BRANCH   2   8
ATOM      8  S   UNL     1      -9.983  19.026  66.838  0.00  0.00    +0.144 S 
ATOM      9  O   UNL     1      -8.758  19.616  67.841  0.00  0.00    -0.043 OA
ATOM     10  O   UNL     1     -11.255  19.089  67.619  0.00  0.00    -0.140 OA
ATOM     11  O   UNL     1     -10.042  19.938  65.653  0.00  0.00    -0.140 OA
ENDBRANCH   2   8
BRANCH   1  13
ATOM     12  C   UNL     1      -6.004  17.838  65.973  0.00  0.00    +0.253 C 
ATOM     13  O   UNL     1      -7.398  17.956  65.691  0.00  0.00    -0.470 OA
ENDBRANCH   1  13
BRANCH   4  14
ATOM     14  C   UNL     1     -11.086  14.015  66.856  0.00  0.00    +0.199 C 
ATOM     15  O   UNL     1     -11.917  14.246  67.783  0.00  0.00    -0.286 OA
BRANCH  14  16
ATOM     16  C   UNL     1     -11.418  12.945  65.919  0.00  0.00    +0.039 A 
ATOM     17  C   UNL     1     -10.749  11.728  65.929  0.00  0.00    +0.003 A 
ATOM     18  C   UNL     1     -10.577  11.073  64.723  0.00  0.00    +0.000 A 
ATOM     19  C   UNL     1     -11.246  11.504  63.588  0.00  0.00    +0.000 A 
ATOM     20  C   UNL     1     -12.368  12.294  63.813  0.00  0.00    +0.000 A 
ATOM     21  C   UNL     1     -12.393  13.088  64.951  0.00  0.00    +0.003 A 
ENDBRANCH  14  16
ENDBRANCH   4  14
TORSDOF 4
ENDMDL
MODEL 9
REMARK VINA RESULT:      -5.9      3.248      4.003
REMARK  Name = 
REMARK  4 active torsions:
REMARK  status: ('A' for Active; 'I' for Inactive)
REMARK    1  A    between atoms: O_2  and  C_3
REMARK    2  A    between atoms: C_7  and  C_8
REMARK    3  A    between atoms: C_8  and  C_10
REMARK    4  A    between atoms: C_17  and  S_18
REMARK                            x       y       z     vdW  Elec       q    Type
REMARK                         _______ _______ _______ _____ _____    ______ ____
ROOT
ATOM      1  C   UNL     1     -10.059  12.085  65.348  0.00  0.00    +0.161 A 
ATOM      2  C   UNL     1     -11.352  12.449  65.705  0.00  0.00    +0.170 A 
ATOM      3  C   UNL     1     -11.794  12.217  67.004  0.00  0.00    +0.030 A 
ATOM      4  C   UNL     1     -10.942  11.638  67.937  0.00  0.00    +0.079 A 
ATOM      5  C   UNL     1      -9.579  11.588  67.677  0.00  0.00    +0.202 A 
ATOM      6  O   UNL     1      -8.637  11.794  68.672  0.00  0.00    -0.286 OA
ATOM      7  C   UNL     1      -9.237  11.551  66.332  0.00  0.00    +0.080 A 
ENDROOT
BRANCH   2   8
ATOM      8  S   UNL     1     -12.107  13.670  64.687  0.00  0.00    +0.144 S 
ATOM      9  O   UNL     1     -13.547  14.160  65.423  0.00  0.00    -0.043 OA
ATOM     10  O   UNL     1     -12.467  13.131  63.341  0.00  0.00    -0.140 OA
ATOM     11  O   UNL     1     -11.254  14.893  64.559  0.00  0.00    -0.140 OA
ENDBRANCH   2   8
BRANCH   1  13
ATOM     12  C   UNL     1      -9.816  10.326  63.759  0.00  0.00    +0.253 C 
ATOM     13  O   UNL     1      -9.890  11.730  64.007  0.00  0.00    -0.470 OA
ENDBRANCH   1  13
BRANCH   4  14
ATOM     14  C   UNL     1     -11.357  11.617  69.329  0.00  0.00    +0.199 C 
ATOM     15  O   UNL     1     -11.718  12.706  69.863  0.00  0.00    -0.286 OA
BRANCH  14  16
ATOM     16  C   UNL     1     -11.744  10.383  70.010  0.00  0.00    +0.039 A 
ATOM     17  C   UNL     1     -12.901  10.300  70.774  0.00  0.00    +0.003 A 
ATOM     18  C   UNL     1     -12.889   9.468  71.879  0.00  0.00    +0.000 A 
ATOM     19  C   UNL     1     -11.842   8.581  72.080  0.00  0.00    +0.000 A 
ATOM     20  C   UNL     1     -11.086   8.277  70.954  0.00  0.00    +0.000 A 
ATOM     21  C   UNL     1     -10.971   9.239  69.961  0.00  0.00    +0.003 A 
ENDBRANCH  14  16
ENDBRANCH   4  14
TORSDOF 4
ENDMDL
