MODEL 1
REMARK VINA RESULT:      -5.6      0.000      0.000
REMARK  Name = 
REMARK  6 active torsions:
REMARK  status: ('A' for Active; 'I' for Inactive)
REMARK    1  A    between atoms: C_2  and  N_4
REMARK    2  A    between atoms: N_4  and  C_5
REMARK    3  A    between atoms: C_5  and  C_6
REMARK    4  A    between atoms: C_6  and  C_8
REMARK    5  A    between atoms: C_11  and  N_12
REMARK    6  A    between atoms: N_12  and  S_13
REMARK                            x       y       z     vdW  Elec       q    Type
REMARK                         _______ _______ _______ _____ _____    ______ ____
ROOT
ATOM      1  C   UNL     1     -10.909  15.573  67.616  0.00  0.00    +0.009 A 
ATOM      2  C   UNL     1     -10.194  15.757  68.740  0.00  0.00    -0.000 A 
ATOM      3  C   UNL     1     -10.940  15.597  69.904  0.00  0.00    +0.018 A 
ATOM      4  C   UNL     1     -11.898  14.601  69.940  0.00  0.00    +0.091 A 
ATOM      5  C   UNL     1     -12.046  13.827  68.796  0.00  0.00    +0.018 A 
ATOM      6  C   UNL     1     -11.705  14.429  67.591  0.00  0.00    -0.000 A 
ENDROOT
BRANCH   1   7
ATOM      7  C   UNL     1     -10.150  15.785  66.165  0.00  0.00    +0.192 C 
ATOM      8  O   UNL     1      -9.151  14.607  66.349  0.00  0.00    -0.217 OA
BRANCH   7   9
ATOM      9  C   UNL     1      -9.059  16.895  66.825  0.00  0.00    +0.126 C 
BRANCH   9  10
ATOM     10  N   UNL     1      -9.251  18.077  66.048  0.00  0.00    -0.216 NA
BRANCH  10  12
ATOM     11  C   UNL     1     -10.577  19.776  65.913  0.00  0.00    +0.019 C 
ATOM     12  C   UNL     1     -10.123  19.062  66.566  0.00  0.00    +0.073 C 
ATOM     13  C   UNL     1      -9.966  19.375  68.019  0.00  0.00    +0.019 C 
ENDBRANCH  10  12
ENDBRANCH   9  10
ENDBRANCH   7   9
ENDBRANCH   1   7
BRANCH   4  14
ATOM     14  N   UNL     1     -12.163  14.024  71.216  0.00  0.00    -0.101 NA
BRANCH  14  15
ATOM     15  S   UNL     1     -13.341  14.633  72.296  0.00  0.00    +0.075 S 
ATOM     16  O   UNL     1     -14.164  15.677  71.592  0.00  0.00    -0.153 OA
ATOM     17  O   UNL     1     -14.289  13.499  72.609  0.00  0.00    -0.153 OA
ATOM     18  C   UNL     1     -12.645  15.312  73.771  0.00  0.00    +0.202 C 
ENDBRANCH  14  15
ENDBRANCH   4  14
TORSDOF 6
ENDMDL
MODEL 2
REMARK VINA RESULT:      -5.6      2.974      4.450
REMARK  Name = 
REMARK  6 active torsions:
REMARK  status: ('A' for Active; 'I' for Inactive)
REMARK    1  A    between atoms: C_2  and  N_4
REMARK    2  A    between atoms: N_4  and  C_5
REMARK    3  A    between atoms: C_5  and  C_6
REMARK    4  A    between atoms: C_6  and  C_8
REMARK    5  A    between atoms: C_11  and  N_12
REMARK    6  A    between atoms: N_12  and  S_13
REMARK                            x       y       z     vdW  Elec       q    Type
REMARK                         _______ _______ _______ _____ _____    ______ ____
ROOT
ATOM      1  C   UNL     1     -11.949  14.395  67.393  0.00  0.00    +0.009 A 
ATOM      2  C   UNL     1     -11.392  15.484  67.953  0.00  0.00    -0.000 A 
ATOM      3  C   UNL     1     -11.815  15.713  69.260  0.00  0.00    +0.018 A 
ATOM      4  C   UNL     1     -12.004  14.623  70.090  0.00  0.00    +0.091 A 
ATOM      5  C   UNL     1     -11.758  13.368  69.549  0.00  0.00    +0.018 A 
ATOM      6  C   UNL     1     -11.926  13.240  68.175  0.00  0.00    -0.000 A 
ENDROOT
BRANCH   1   7
ATOM      7  C   UNL     1     -11.568  14.043  65.826  0.00  0.00    +0.192 C 
ATOM      8  O   UNL     1     -13.041  13.985  65.327  0.00  0.00    -0.217 OA
BRANCH   7   9
ATOM      9  C   UNL     1     -11.543  12.382  66.137  0.00  0.00    +0.126 C 
BRANCH   9  10
ATOM     10  N   UNL     1     -11.472  11.786  64.842  0.00  0.00    -0.216 NA
BRANCH  10  12
ATOM     11  C   UNL     1     -10.098  10.715  63.566  0.00  0.00    +0.019 C 
ATOM     12  C   UNL     1     -10.373  10.939  64.574  0.00  0.00    +0.073 C 
ATOM     13  C   UNL     1      -9.980  10.009  65.677  0.00  0.00    +0.019 C 
ENDBRANCH  10  12
ENDBRANCH   9  10
ENDBRANCH   7   9
ENDBRANCH   1   7
BRANCH   4  14
ATOM     14  N   UNL     1     -11.785  14.843  71.481  0.00  0.00    -0.101 NA
BRANCH  14  15
ATOM     15  S   UNL     1     -13.050  14.931  72.629  0.00  0.00    +0.075 S 
ATOM     16  O   UNL     1     -14.131  15.837  72.104  0.00  0.00    -0.153 OA
ATOM     17  O   UNL     1     -13.668  13.555  72.719  0.00  0.00    -0.153 OA
ATOM     18  C   UNL     1     -12.511  15.496  74.213  0.00  0.00    +0.202 C 
ENDBRANCH  14  15
ENDBRANCH   4  14
TORSDOF 6
ENDMDL
MODEL 3
REMARK VINA RESULT:      -5.6      2.523      3.848
REMARK  Name = 
REMARK  6 active torsions:
REMARK  status: ('A' for Active; 'I' for Inactive)
REMARK    1  A    between atoms: C_2  and  N_4
REMARK    2  A    between atoms: N_4  and  C_5
REMARK    3  A    between atoms: C_5  and  C_6
REMARK    4  A    between atoms: C_6  and  C_8
REMARK    5  A    between atoms: C_11  and  N_12
REMARK    6  A    between atoms: N_12  and  S_13
REMARK                            x       y       z     vdW  Elec       q    Type
REMARK                         _______ _______ _______ _____ _____    ______ ____
ROOT
ATOM      1  C   UNL     1     -11.324  14.855  67.406  0.00  0.00    +0.009 A 
ATOM      2  C   UNL     1     -10.531  15.588  68.208  0.00  0.00    -0.000 A 
ATOM      3  C   UNL     1     -11.067  15.800  69.475  0.00  0.00    +0.018 A 
ATOM      4  C   UNL     1     -11.764  14.767  70.075  0.00  0.00    +0.091 A 
ATOM      5  C   UNL     1     -11.878  13.583  69.358  0.00  0.00    +0.018 A 
ATOM      6  C   UNL     1     -11.839  13.690  67.973  0.00  0.00    -0.000 A 
ENDROOT
BRANCH   1   7
ATOM      7  C   UNL     1     -10.824  14.576  65.857  0.00  0.00    +0.192 C 
ATOM      8  O   UNL     1     -11.101  16.021  65.352  0.00  0.00    -0.217 OA
BRANCH   7   9
ATOM      9  C   UNL     1     -12.359  14.051  65.387  0.00  0.00    +0.126 C 
BRANCH   9  10
ATOM     10  N   UNL     1     -12.256  13.890  63.973  0.00  0.00    -0.216 NA
BRANCH  10  12
ATOM     11  C   UNL     1     -12.788  11.857  63.477  0.00  0.00    +0.019 C 
ATOM     12  C   UNL     1     -12.009  12.589  63.481  0.00  0.00    +0.073 C 
ATOM     13  C   UNL     1     -10.579  12.153  63.475  0.00  0.00    +0.019 C 
ENDBRANCH  10  12
ENDBRANCH   9  10
ENDBRANCH   7   9
ENDBRANCH   1   7
BRANCH   4  14
ATOM     14  N   UNL     1     -11.726  14.724  71.499  0.00  0.00    -0.101 NA
BRANCH  14  15
ATOM     15  S   UNL     1     -13.104  14.968  72.483  0.00  0.00    +0.075 S 
ATOM     16  O   UNL     1     -14.114  15.787  71.724  0.00  0.00    -0.153 OA
ATOM     17  O   UNL     1     -13.745  13.616  72.699  0.00  0.00    -0.153 OA
ATOM     18  C   UNL     1     -12.730  15.752  74.020  0.00  0.00    +0.202 C 
ENDBRANCH  14  15
ENDBRANCH   4  14
TORSDOF 6
ENDMDL
MODEL 4
REMARK VINA RESULT:      -5.3      2.295      3.452
REMARK  Name = 
REMARK  6 active torsions:
REMARK  status: ('A' for Active; 'I' for Inactive)
REMARK    1  A    between atoms: C_2  and  N_4
REMARK    2  A    between atoms: N_4  and  C_5
REMARK    3  A    between atoms: C_5  and  C_6
REMARK    4  A    between atoms: C_6  and  C_8
REMARK    5  A    between atoms: C_11  and  N_12
REMARK    6  A    between atoms: N_12  and  S_13
REMARK                            x       y       z     vdW  Elec       q    Type
REMARK                         _______ _______ _______ _____ _____    ______ ____
ROOT
ATOM      1  C   UNL     1      -9.951  14.351  68.177  0.00  0.00    +0.009 A 
ATOM      2  C   UNL     1     -10.812  13.354  68.448  0.00  0.00    -0.000 A 
ATOM      3  C   UNL     1     -11.598  13.591  69.573  0.00  0.00    +0.018 A 
ATOM      4  C   UNL     1     -12.054  14.877  69.797  0.00  0.00    +0.091 A 
ATOM      5  C   UNL     1     -11.688  15.846  68.873  0.00  0.00    +0.018 A 
ATOM      6  C   UNL     1     -10.495  15.635  68.191  0.00  0.00    -0.000 A 
ENDROOT
BRANCH   1   7
ATOM      7  C   UNL     1      -8.925  14.169  66.896  0.00  0.00    +0.192 C 
ATOM      8  O   UNL     1      -9.468  15.390  66.098  0.00  0.00    -0.217 OA
BRANCH   7   9
ATOM      9  C   UNL     1      -9.986  13.110  66.115  0.00  0.00    +0.126 C 
BRANCH   9  10
ATOM     10  N   UNL     1     -10.468  13.858  65.000  0.00  0.00    -0.216 NA
BRANCH  10  12
ATOM     11  C   UNL     1     -12.609  13.847  65.282  0.00  0.00    +0.019 C 
ATOM     12  C   UNL     1     -11.808  13.645  64.603  0.00  0.00    +0.073 C 
ATOM     13  C   UNL     1     -12.012  12.684  63.476  0.00  0.00    +0.019 C 
ENDBRANCH  10  12
ENDBRANCH   9  10
ENDBRANCH   7   9
ENDBRANCH   1   7
BRANCH   4  14
ATOM     14  N   UNL     1     -13.299  14.995  70.482  0.00  0.00    -0.101 NA
BRANCH  14  15
ATOM     15  S   UNL     1     -13.424  15.231  72.171  0.00  0.00    +0.075 S 
ATOM     16  O   UNL     1     -14.631  16.081  72.464  0.00  0.00    -0.153 OA
ATOM     17  O   UNL     1     -13.707  13.882  72.791  0.00  0.00    -0.153 OA
ATOM     18  C   UNL     1     -11.984  15.970  72.877  0.00  0.00    +0.202 C 
ENDBRANCH  14  15
ENDBRANCH   4  14
TORSDOF 6
ENDMDL
MODEL 5
REMARK VINA RESULT:      -5.3      3.576      5.277
REMARK  Name = 
REMARK  6 active torsions:
REMARK  status: ('A' for Active; 'I' for Inactive)
REMARK    1  A    between atoms: C_2  and  N_4
REMARK    2  A    between atoms: N_4  and  C_5
REMARK    3  A    between atoms: C_5  and  C_6
REMARK    4  A    between atoms: C_6  and  C_8
REMARK    5  A    between atoms: C_11  and  N_12
REMARK    6  A    between atoms: N_12  and  S_13
REMARK                            x       y       z     vdW  Elec       q    Type
REMARK                         _______ _______ _______ _____ _____    ______ ____
ROOT
ATOM      1  C   UNL     1     -10.390  14.885  68.149  0.00  0.00    +0.009 A 
ATOM      2  C   UNL     1     -11.027  15.445  67.105  0.00  0.00    -0.000 A 
ATOM      3  C   UNL     1     -11.287  14.551  66.070  0.00  0.00    +0.018 A 
ATOM      4  C   UNL     1     -11.656  13.259  66.395  0.00  0.00    +0.091 A 
ATOM      5  C   UNL     1     -11.737  12.946  67.745  0.00  0.00    +0.018 A 
ATOM      6  C   UNL     1     -10.925  13.679  68.602  0.00  0.00    -0.000 A 
ENDROOT
BRANCH   1   7
ATOM      7  C   UNL     1      -9.977  15.853  69.422  0.00  0.00    +0.192 C 
ATOM      8  O   UNL     1     -11.334  16.612  69.474  0.00  0.00    -0.217 OA
BRANCH   7   9
ATOM      9  C   UNL     1      -9.296  17.014  68.401  0.00  0.00    +0.126 C 
BRANCH   9  10
ATOM     10  N   UNL     1      -9.948  18.229  68.770  0.00  0.00    -0.216 NA
BRANCH  10  12
ATOM     11  C   UNL     1     -10.701  19.435  67.145  0.00  0.00    +0.019 C 
ATOM     12  C   UNL     1      -9.906  19.297  67.846  0.00  0.00    +0.073 C 
ATOM     13  C   UNL     1      -8.551  19.856  67.553  0.00  0.00    +0.019 C 
ENDBRANCH  10  12
ENDBRANCH   9  10
ENDBRANCH   7   9
ENDBRANCH   1   7
BRANCH   4  14
ATOM     14  N   UNL     1     -12.512  12.594  65.468  0.00  0.00    -0.101 NA
BRANCH  14  15
ATOM     15  S   UNL     1     -12.196  12.513  63.789  0.00  0.00    +0.075 S 
ATOM     16  O   UNL     1     -13.182  11.575  63.145  0.00  0.00    -0.153 OA
ATOM     17  O   UNL     1     -12.487  13.880  63.213  0.00  0.00    -0.153 OA
ATOM     18  C   UNL     1     -10.548  11.999  63.417  0.00  0.00    +0.202 C 
ENDBRANCH  14  15
ENDBRANCH   4  14
TORSDOF 6
ENDMDL
MODEL 6
REMARK VINA RESULT:      -5.2      3.465      5.953
REMARK  Name = 
REMARK  6 active torsions:
REMARK  status: ('A' for Active; 'I' for Inactive)
REMARK    1  A    between atoms: C_2  and  N_4
REMARK    2  A    between atoms: N_4  and  C_5
REMARK    3  A    between atoms: C_5  and  C_6
REMARK    4  A    between atoms: C_6  and  C_8
REMARK    5  A    between atoms: C_11  and  N_12
REMARK    6  A    between atoms: N_12  and  S_13
REMARK                            x       y       z     vdW  Elec       q    Type
REMARK                         _______ _______ _______ _____ _____    ______ ____
ROOT
ATOM      1  C   UNL     1     -10.198  13.320  65.590  0.00  0.00    +0.009 A 
ATOM      2  C   UNL     1      -9.680  13.873  66.701  0.00  0.00    -0.000 A 
ATOM      3  C   UNL     1      -9.212  15.170  66.509  0.00  0.00    +0.018 A 
ATOM      4  C   UNL     1      -9.930  16.012  65.680  0.00  0.00    +0.091 A 
ATOM      5  C   UNL     1     -11.077  15.492  65.094  0.00  0.00    +0.018 A 
ATOM      6  C   UNL     1     -11.100  14.118  64.887  0.00  0.00    -0.000 A 
ENDROOT
BRANCH   1   7
ATOM      7  C   UNL     1     -10.742  11.763  65.674  0.00  0.00    +0.192 C 
ATOM      8  O   UNL     1     -12.226  12.141  65.947  0.00  0.00    -0.217 OA
BRANCH   7   9
ATOM      9  C   UNL     1     -10.398  11.664  67.325  0.00  0.00    +0.126 C 
BRANCH   9  10
ATOM     10  N   UNL     1     -11.633  11.256  67.914  0.00  0.00    -0.216 NA
BRANCH  10  12
ATOM     11  C   UNL     1     -12.231  10.743  69.925  0.00  0.00    +0.019 C 
ATOM     12  C   UNL     1     -11.805  11.496  69.297  0.00  0.00    +0.073 C 
ATOM     13  C   UNL     1     -11.865  12.932  69.709  0.00  0.00    +0.019 C 
ENDBRANCH  10  12
ENDBRANCH   9  10
ENDBRANCH   7   9
ENDBRANCH   1   7
BRANCH   4  14
ATOM     14  N   UNL     1      -9.866  17.403  65.984  0.00  0.00    -0.101 NA
BRANCH  14  15
ATOM     15  S   UNL     1     -10.228  18.044  67.528  0.00  0.00    +0.075 S 
ATOM     16  O   UNL     1     -11.035  19.304  67.363  0.00  0.00    -0.153 OA
ATOM     17  O   UNL     1     -11.139  17.056  68.220  0.00  0.00    -0.153 OA
ATOM     18  C   UNL     1      -8.789  18.376  68.497  0.00  0.00    +0.202 C 
ENDBRANCH  14  15
ENDBRANCH   4  14
TORSDOF 6
ENDMDL
MODEL 7
REMARK VINA RESULT:      -5.2      3.312      4.184
REMARK  Name = 
REMARK  6 active torsions:
REMARK  status: ('A' for Active; 'I' for Inactive)
REMARK    1  A    between atoms: C_2  and  N_4
REMARK    2  A    between atoms: N_4  and  C_5
REMARK    3  A    between atoms: C_5  and  C_6
REMARK    4  A    between atoms: C_6  and  C_8
REMARK    5  A    between atoms: C_11  and  N_12
REMARK    6  A    between atoms: N_12  and  S_13
REMARK                            x       y       z     vdW  Elec       q    Type
REMARK                         _______ _______ _______ _____ _____    ______ ____
ROOT
ATOM      1  C   UNL     1     -11.761  12.336  68.131  0.00  0.00    +0.009 A 
ATOM      2  C   UNL     1     -11.226  13.569  68.085  0.00  0.00    -0.000 A 
ATOM      3  C   UNL     1     -11.836  14.471  68.952  0.00  0.00    +0.018 A 
ATOM      4  C   UNL     1     -12.234  14.020  70.197  0.00  0.00    +0.091 A 
ATOM      5  C   UNL     1     -11.994  12.684  70.489  0.00  0.00    +0.018 A 
ATOM      6  C   UNL     1     -11.947  11.811  69.410  0.00  0.00    -0.000 A 
ENDROOT
BRANCH   1   7
ATOM      7  C   UNL     1     -11.159  11.186  67.111  0.00  0.00    +0.192 C 
ATOM      8  O   UNL     1      -9.902  10.870  67.972  0.00  0.00    -0.217 OA
BRANCH   7   9
ATOM      9  C   UNL     1     -10.323  12.338  66.201  0.00  0.00    +0.126 C 
BRANCH   9  10
ATOM     10  N   UNL     1     -10.570  11.959  64.847  0.00  0.00    -0.216 NA
BRANCH  10  12
ATOM     11  C   UNL     1     -11.792  13.689  64.424  0.00  0.00    +0.019 C 
ATOM     12  C   UNL     1     -11.548  12.689  64.135  0.00  0.00    +0.073 C 
ATOM     13  C   UNL     1     -12.537  11.875  63.363  0.00  0.00    +0.019 C 
ENDBRANCH  10  12
ENDBRANCH   9  10
ENDBRANCH   7   9
ENDBRANCH   1   7
BRANCH   4  14
ATOM     14  N   UNL     1     -12.227  14.981  71.250  0.00  0.00    -0.101 NA
BRANCH  14  15
ATOM     15  S   UNL     1     -13.303  14.927  72.578  0.00  0.00    +0.075 S 
ATOM     16  O   UNL     1     -14.414  15.918  72.355  0.00  0.00    -0.153 OA
ATOM     17  O   UNL     1     -13.955  13.564  72.570  0.00  0.00    -0.153 OA
ATOM     18  C   UNL     1     -12.513  15.249  74.125  0.00  0.00    +0.202 C 
ENDBRANCH  14  15
ENDBRANCH   4  14
TORSDOF 6
ENDMDL
MODEL 8
REMARK VINA RESULT:      -5.1      3.912      5.193
REMARK  Name = 
REMARK  6 active torsions:
REMARK  status: ('A' for Active; 'I' for Inactive)
REMARK    1  A    between atoms: C_2  and  N_4
REMARK    2  A    between atoms: N_4  and  C_5
REMARK    3  A    between atoms: C_5  and  C_6
REMARK    4  A    between atoms: C_6  and  C_8
REMARK    5  A    between atoms: C_11  and  N_12
REMARK    6  A    between atoms: N_12  and  S_13
REMARK                            x       y       z     vdW  Elec       q    Type
REMARK                         _______ _______ _______ _____ _____    ______ ____
ROOT
ATOM      1  C   UNL     1     -10.379  17.500  67.825  0.00  0.00    +0.009 A 
ATOM      2  C   UNL     1     -10.055  16.282  68.295  0.00  0.00    -0.000 A 
ATOM      3  C   UNL     1     -10.632  15.239  67.574  0.00  0.00    +0.018 A 
ATOM      4  C   UNL     1     -10.728  15.364  66.201  0.00  0.00    +0.091 A 
ATOM      5  C   UNL     1     -10.239  16.535  65.638  0.00  0.00    +0.018 A 
ATOM      6  C   UNL     1     -10.252  17.665  66.446  0.00  0.00    -0.000 A 
ENDROOT
BRANCH   1   7
ATOM      7  C   UNL     1      -9.799  18.823  68.625  0.00  0.00    +0.192 C 
ATOM      8  O   UNL     1     -10.344  19.862  67.603  0.00  0.00    -0.217 OA
BRANCH   7   9
ATOM      9  C   UNL     1      -8.310  18.731  67.832  0.00  0.00    +0.126 C 
BRANCH   9  10
ATOM     10  N   UNL     1      -7.395  19.353  68.734  0.00  0.00    -0.216 NA
BRANCH  10  12
ATOM     11  C   UNL     1      -6.780  20.792  67.245  0.00  0.00    +0.019 C 
ATOM     12  C   UNL     1      -6.670  20.469  68.259  0.00  0.00    +0.073 C 
ATOM     13  C   UNL     1      -5.431  20.817  69.021  0.00  0.00    +0.019 C 
ENDBRANCH  10  12
ENDBRANCH   9  10
ENDBRANCH   7   9
ENDBRANCH   1   7
BRANCH   4  14
ATOM     14  N   UNL     1     -10.680  14.152  65.451  0.00  0.00    -0.101 NA
BRANCH  14  15
ATOM     15  S   UNL     1     -12.056  13.184  65.142  0.00  0.00    +0.075 S 
ATOM     16  O   UNL     1     -12.186  12.149  66.227  0.00  0.00    -0.153 OA
ATOM     17  O   UNL     1     -13.269  14.076  65.272  0.00  0.00    -0.153 OA
ATOM     18  C   UNL     1     -12.009  12.395  63.563  0.00  0.00    +0.202 C 
ENDBRANCH  14  15
ENDBRANCH   4  14
TORSDOF 6
ENDMDL
MODEL 9
REMARK VINA RESULT:      -5.0      4.041      6.358
REMARK  Name = 
REMARK  6 active torsions:
REMARK  status: ('A' for Active; 'I' for Inactive)
REMARK    1  A    between atoms: C_2  and  N_4
REMARK    2  A    between atoms: N_4  and  C_5
REMARK    3  A    between atoms: C_5  and  C_6
REMARK    4  A    between atoms: C_6  and  C_8
REMARK    5  A    between atoms: C_11  and  N_12
REMARK    6  A    between atoms: N_12  and  S_13
REMARK                            x       y       z     vdW  Elec       q    Type
REMARK                         _______ _______ _______ _____ _____    ______ ____
ROOT
ATOM      1  C   UNL     1     -11.522  14.494  68.839  0.00  0.00    +0.009 A 
ATOM      2  C   UNL     1     -11.894  14.346  67.554  0.00  0.00    -0.000 A 
ATOM      3  C   UNL     1     -11.390  13.192  66.961  0.00  0.00    +0.018 A 
ATOM      4  C   UNL     1     -11.324  12.038  67.719  0.00  0.00    +0.091 A 
ATOM      5  C   UNL     1     -11.770  12.119  69.032  0.00  0.00    +0.018 A 
ATOM      6  C   UNL     1     -11.678  13.365  69.642  0.00  0.00    -0.000 A 
ENDROOT
BRANCH   1   7
ATOM      7  C   UNL     1     -12.013  15.851  69.642  0.00  0.00    +0.192 C 
ATOM      8  O   UNL     1     -10.728  16.673  69.337  0.00  0.00    -0.217 OA
BRANCH   7   9
ATOM      9  C   UNL     1     -11.382  15.291  71.106  0.00  0.00    +0.126 C 
BRANCH   9  10
ATOM     10  N   UNL     1     -12.033  16.088  72.094  0.00  0.00    -0.216 NA
BRANCH  10  12
ATOM     11  C   UNL     1     -12.500  15.580  74.141  0.00  0.00    +0.019 C 
ATOM     12  C   UNL     1     -12.742  15.412  73.113  0.00  0.00    +0.073 C 
ATOM     13  C   UNL     1     -13.421  14.144  72.705  0.00  0.00    +0.019 C 
ENDBRANCH  10  12
ENDBRANCH   9  10
ENDBRANCH   7   9
ENDBRANCH   1   7
BRANCH   4  14
ATOM     14  N   UNL     1     -11.453  10.808  67.010  0.00  0.00    -0.101 NA
BRANCH  14  15
ATOM     15  S   UNL     1     -10.137  10.012  66.262  0.00  0.00    +0.075 S 
ATOM     16  O   UNL     1     -10.287   8.526  66.449  0.00  0.00    -0.153 OA
ATOM     17  O   UNL     1     -10.252  10.257  64.776  0.00  0.00    -0.153 OA
ATOM     18  C   UNL     1      -8.568  10.538  66.878  0.00  0.00    +0.202 C 
ENDBRANCH  14  15
ENDBRANCH   4  14
TORSDOF 6
ENDMDL
