MODEL 1
REMARK VINA RESULT:      -7.5      0.000      0.000
REMARK  Name = 
REMARK  10 active torsions:
REMARK  status: ('A' for Active; 'I' for Inactive)
REMARK    1  A    between atoms: C_2  and  O_3
REMARK    2  A    between atoms: O_3  and  N_4
REMARK    3  A    between atoms: C_5  and  C_6
REMARK    4  A    between atoms: C_5  and  C_34
REMARK    5  A    between atoms: N_8  and  CA_9
REMARK    6  A    between atoms: CA_13  and  C_14
REMARK    7  A    between atoms: C_17  and  S_18
REMARK    8  A    between atoms: S_18  and  C_19
REMARK    9  A    between atoms: C_21  and  C_22
REMARK   10  A    between atoms: N_38  and  P_39
REMARK                            x       y       z     vdW  Elec       q    Type
REMARK                         _______ _______ _______ _____ _____    ______ ____
ROOT
ATOM      1  CA  UNL     1      -8.209  19.806  66.451  0.00  0.00    +0.201 C 
ATOM      2  C   UNL     1      -7.132  20.471  67.551  0.00  0.00    +0.157 C 
ATOM      3  N   UNL     1      -6.157  19.496  66.908  0.00  0.00    -0.241 N 
ATOM      4  CA  UNL     1      -4.862  19.527  67.467  0.00  0.00    +0.138 C 
ATOM      5  C   UNL     1      -4.561  19.577  68.755  0.00  0.00    +0.040 C 
ATOM      6  C   UNL     1      -5.615  19.679  69.819  0.00  0.00    +0.093 C 
ATOM      7  S   UNL     1      -7.281  19.397  69.116  0.00  0.00    -0.113 S 
ATOM      8  C   UNL     1      -7.176  18.578  66.451  0.00  0.00    +0.253 C 
ATOM      9  O   UNL     1      -7.102  17.825  65.430  0.00  0.00    -0.273 OA
ENDROOT
BRANCH   4  10
ATOM     10  C   UNL     1      -3.789  19.537  66.465  0.00  0.00    +0.401 C 
ATOM     11  OXT UNL     1      -3.640  18.510  65.525  0.00  0.00    -0.239 OA
ATOM     12  O   UNL     1      -3.590  20.691  65.967  0.00  0.00    -0.239 OA
ENDBRANCH   4  10
BRANCH   1  14
ATOM     13  C   UNL     1     -10.121  18.302  66.816  0.00  0.00    +0.289 C 
ATOM     14  N   UNL     1      -9.202  19.170  67.490  0.00  0.00    -0.190 NA
ATOM     15  O   UNL     1     -10.514  18.590  65.666  0.00  0.00    -0.266 OA
BRANCH  13  17
ATOM     16  N   UNL     1     -11.125  17.157  68.622  0.00  0.00    -0.075 NA
ATOM     17  C   UNL     1     -10.574  17.057  67.448  0.00  0.00    +0.210 C 
BRANCH  17  18
ATOM     18  C   UNL     1      -9.993  15.761  67.055  0.00  0.00    +0.197 A 
ATOM     19  N   UNL     1     -10.718  14.897  66.346  0.00  0.00    -0.200 NA
ATOM     20  C   UNL     1      -9.944  13.957  65.749  0.00  0.00    +0.207 A 
ATOM     21  N   UNL     1     -10.291  13.131  64.629  0.00  0.00    -0.114 NA
ATOM     22  S   UNL     1      -8.808  13.711  67.013  0.00  0.00    +0.051 S 
ATOM     23  N   UNL     1      -9.126  15.130  67.885  0.00  0.00    -0.185 NA
BRANCH  21  24
ATOM     24  P   UNL     1     -11.995  13.006  64.261  0.00  0.00    +0.502 P 
ATOM     25  O   UNL     1     -12.542  14.503  63.741  0.00  0.00    -0.121 OA
ATOM     26  O   UNL     1     -12.816  12.490  65.632  0.00  0.00    -0.121 OA
ATOM     27  O   UNL     1     -12.199  11.999  63.168  0.00  0.00    -0.230 OA
ENDBRANCH  21  24
ENDBRANCH  17  18
BRANCH  16  28
ATOM     28  O   UNL     1     -11.967  16.116  68.966  0.00  0.00    -0.377 OA
BRANCH  28  30
ATOM     29  C   UNL     1     -11.400  15.781  70.758  0.00  0.00    +0.054 C 
ATOM     30  C   UNL     1     -12.068  15.862  70.367  0.00  0.00    +0.239 C 
ENDBRANCH  28  30
ENDBRANCH  16  28
ENDBRANCH  13  17
ENDBRANCH   1  14
BRANCH   5  31
ATOM     31  S   UNL     1      -3.091  18.771  69.327  0.00  0.00    -0.064 S 
BRANCH  31  32
ATOM     32  C   UNL     1      -3.115  17.006  69.212  0.00  0.00    +0.140 A 
ATOM     33  S   UNL     1      -2.112  15.864  68.405  0.00  0.00    -0.059 S 
ATOM     34  C   UNL     1      -2.989  14.461  68.883  0.00  0.00    +0.056 A 
ATOM     35  C   UNL     1      -4.084  15.013  69.546  0.00  0.00    +0.089 A 
ATOM     36  N   UNL     1      -4.269  16.294  69.134  0.00  0.00    -0.232 NA
BRANCH  35  37
ATOM     37  C   UNL     1      -4.855  14.338  70.614  0.00  0.00    +0.030 A 
ATOM     38  C   UNL     1      -4.826  12.953  70.762  0.00  0.00    +0.077 A 
ATOM     39  C   UNL     1      -4.537  12.377  71.994  0.00  0.00    +0.290 A 
ATOM     40  N   UNL     1      -4.422  13.132  73.113  0.00  0.00    -0.153 N 
ATOM     41  C   UNL     1      -4.208  12.487  74.397  0.00  0.00    +0.408 C 
ATOM     42  C   UNL     1      -5.009  14.353  73.043  0.00  0.00    +0.290 A 
ATOM     43  C   UNL     1      -4.966  15.018  71.823  0.00  0.00    +0.077 A 
ENDBRANCH  35  37
ENDBRANCH  31  32
ENDBRANCH   5  31
TORSDOF 10
ENDMDL
MODEL 2
REMARK VINA RESULT:      -7.3      4.823      8.627
REMARK  Name = 
REMARK  10 active torsions:
REMARK  status: ('A' for Active; 'I' for Inactive)
REMARK    1  A    between atoms: C_2  and  O_3
REMARK    2  A    between atoms: O_3  and  N_4
REMARK    3  A    between atoms: C_5  and  C_6
REMARK    4  A    between atoms: C_5  and  C_34
REMARK    5  A    between atoms: N_8  and  CA_9
REMARK    6  A    between atoms: CA_13  and  C_14
REMARK    7  A    between atoms: C_17  and  S_18
REMARK    8  A    between atoms: S_18  and  C_19
REMARK    9  A    between atoms: C_21  and  C_22
REMARK   10  A    between atoms: N_38  and  P_39
REMARK                            x       y       z     vdW  Elec       q    Type
REMARK                         _______ _______ _______ _____ _____    ______ ____
ROOT
ATOM      1  CA  UNL     1     -11.164  16.133  67.978  0.00  0.00    +0.201 C 
ATOM      2  C   UNL     1     -11.651  14.882  66.974  0.00  0.00    +0.157 C 
ATOM      3  N   UNL     1     -11.036  14.014  68.062  0.00  0.00    -0.241 N 
ATOM      4  CA  UNL     1     -11.097  12.631  67.795  0.00  0.00    +0.138 C 
ATOM      5  C   UNL     1     -10.837  12.039  66.639  0.00  0.00    +0.040 C 
ATOM      6  C   UNL     1     -10.496  12.816  65.402  0.00  0.00    +0.093 C 
ATOM      7  S   UNL     1     -10.182  14.575  65.802  0.00  0.00    -0.113 S 
ATOM      8  C   UNL     1     -10.141  15.039  68.553  0.00  0.00    +0.253 C 
ATOM      9  O   UNL     1      -9.713  15.149  69.744  0.00  0.00    -0.273 OA
ENDROOT
BRANCH   4  10
ATOM     10  C   UNL     1     -11.531  11.828  68.945  0.00  0.00    +0.401 C 
ATOM     11  OXT UNL     1     -11.771  12.398  70.201  0.00  0.00    -0.239 OA
ATOM     12  O   UNL     1     -12.394  10.946  68.633  0.00  0.00    -0.239 OA
ENDBRANCH   4  10
BRANCH   1  14
ATOM     13  C   UNL     1      -9.727  18.075  67.509  0.00  0.00    +0.289 C 
ATOM     14  N   UNL     1     -10.135  16.801  66.995  0.00  0.00    -0.190 NA
ATOM     15  O   UNL     1     -10.546  18.779  68.137  0.00  0.00    -0.266 OA
BRANCH  13  17
ATOM     16  N   UNL     1      -8.073  19.199  66.251  0.00  0.00    -0.075 NA
ATOM     17  C   UNL     1      -8.346  18.542  67.341  0.00  0.00    +0.210 C 
BRANCH  17  18
ATOM     18  C   UNL     1      -7.239  17.885  68.058  0.00  0.00    +0.197 A 
ATOM     19  N   UNL     1      -6.476  18.592  68.891  0.00  0.00    -0.200 NA
ATOM     20  C   UNL     1      -5.780  17.796  69.740  0.00  0.00    +0.207 A 
ATOM     21  N   UNL     1      -5.186  18.171  70.990  0.00  0.00    -0.114 NA
ATOM     22  S   UNL     1      -5.390  16.528  68.649  0.00  0.00    +0.051 S 
ATOM     23  N   UNL     1      -6.540  16.890  67.457  0.00  0.00    -0.185 NA
BRANCH  21  24
ATOM     24  P   UNL     1      -4.958  19.884  71.254  0.00  0.00    +0.502 P 
ATOM     25  O   UNL     1      -4.469  20.587  69.812  0.00  0.00    -0.121 OA
ATOM     26  O   UNL     1      -3.818  20.104  72.466  0.00  0.00    -0.121 OA
ATOM     27  O   UNL     1      -6.253  20.502  71.690  0.00  0.00    -0.230 OA
ENDBRANCH  21  24
ENDBRANCH  17  18
BRANCH  16  28
ATOM     28  O   UNL     1      -6.974  20.033  66.330  0.00  0.00    -0.377 OA
BRANCH  28  30
ATOM     29  C   UNL     1      -5.670  19.673  64.983  0.00  0.00    +0.054 C 
ATOM     30  C   UNL     1      -6.244  20.182  65.112  0.00  0.00    +0.239 C 
ENDBRANCH  28  30
ENDBRANCH  16  28
ENDBRANCH  13  17
ENDBRANCH   1  14
BRANCH   5  31
ATOM     31  S   UNL     1     -10.124  10.417  66.645  0.00  0.00    -0.064 S 
BRANCH  31  32
ATOM     32  C   UNL     1      -9.367   9.941  68.171  0.00  0.00    +0.140 A 
ATOM     33  S   UNL     1      -7.828  10.255  68.871  0.00  0.00    -0.059 S 
ATOM     34  C   UNL     1      -8.072   9.333  70.305  0.00  0.00    +0.056 A 
ATOM     35  C   UNL     1      -9.312   8.744  70.065  0.00  0.00    +0.089 A 
ATOM     36  N   UNL     1      -9.553   8.716  68.729  0.00  0.00    -0.232 NA
BRANCH  35  37
ATOM     37  C   UNL     1     -10.263   8.315  71.115  0.00  0.00    +0.030 A 
ATOM     38  C   UNL     1     -11.157   9.213  71.692  0.00  0.00    +0.077 A 
ATOM     39  C   UNL     1     -12.515   8.923  71.755  0.00  0.00    +0.290 A 
ATOM     40  N   UNL     1     -12.990   7.706  71.395  0.00  0.00    -0.153 N 
ATOM     41  C   UNL     1     -14.403   7.409  71.558  0.00  0.00    +0.408 C 
ATOM     42  C   UNL     1     -12.071   6.709  71.395  0.00  0.00    +0.290 A 
ATOM     43  C   UNL     1     -10.778   7.028  70.997  0.00  0.00    +0.077 A 
ENDBRANCH  35  37
ENDBRANCH  31  32
ENDBRANCH   5  31
TORSDOF 10
ENDMDL
MODEL 3
REMARK VINA RESULT:      -7.2      4.713      7.946
REMARK  Name = 
REMARK  10 active torsions:
REMARK  status: ('A' for Active; 'I' for Inactive)
REMARK    1  A    between atoms: C_2  and  O_3
REMARK    2  A    between atoms: O_3  and  N_4
REMARK    3  A    between atoms: C_5  and  C_6
REMARK    4  A    between atoms: C_5  and  C_34
REMARK    5  A    between atoms: N_8  and  CA_9
REMARK    6  A    between atoms: CA_13  and  C_14
REMARK    7  A    between atoms: C_17  and  S_18
REMARK    8  A    between atoms: S_18  and  C_19
REMARK    9  A    between atoms: C_21  and  C_22
REMARK   10  A    between atoms: N_38  and  P_39
REMARK                            x       y       z     vdW  Elec       q    Type
REMARK                         _______ _______ _______ _____ _____    ______ ____
ROOT
ATOM      1  CA  UNL     1     -12.019  15.074  69.171  0.00  0.00    +0.201 C 
ATOM      2  C   UNL     1     -10.657  16.034  69.365  0.00  0.00    +0.157 C 
ATOM      3  N   UNL     1     -10.712  16.098  67.845  0.00  0.00    -0.241 N 
ATOM      4  CA  UNL     1      -9.670  16.852  67.266  0.00  0.00    +0.138 C 
ATOM      5  C   UNL     1      -8.390  16.817  67.603  0.00  0.00    +0.040 C 
ATOM      6  C   UNL     1      -7.885  15.979  68.740  0.00  0.00    +0.093 C 
ATOM      7  S   UNL     1      -9.183  14.829  69.329  0.00  0.00    -0.113 S 
ATOM      8  C   UNL     1     -11.441  14.859  67.690  0.00  0.00    +0.253 C 
ATOM      9  O   UNL     1     -12.239  14.575  66.744  0.00  0.00    -0.273 OA
ENDROOT
BRANCH   4  10
ATOM     10  C   UNL     1     -10.124  17.772  66.215  0.00  0.00    +0.401 C 
ATOM     11  OXT UNL     1     -10.753  17.317  65.050  0.00  0.00    -0.239 OA
ATOM     12  O   UNL     1     -10.659  18.829  66.681  0.00  0.00    -0.239 OA
ENDBRANCH   4  10
BRANCH   1  14
ATOM     13  C   UNL     1     -12.419  13.069  70.540  0.00  0.00    +0.289 C 
ATOM     14  N   UNL     1     -11.423  13.745  69.762  0.00  0.00    -0.190 NA
ATOM     15  O   UNL     1     -13.247  13.735  71.198  0.00  0.00    -0.266 OA
BRANCH  13  17
ATOM     16  N   UNL     1     -12.887  11.032  71.642  0.00  0.00    -0.075 NA
ATOM     17  C   UNL     1     -12.501  11.604  70.538  0.00  0.00    +0.210 C 
BRANCH  17  18
ATOM     18  C   UNL     1     -11.719  10.809  69.575  0.00  0.00    +0.197 A 
ATOM     19  N   UNL     1     -10.500  10.384  69.902  0.00  0.00    -0.200 NA
ATOM     20  C   UNL     1     -10.083   9.373  69.099  0.00  0.00    +0.207 A 
ATOM     21  N   UNL     1      -9.044   8.423  69.369  0.00  0.00    -0.114 NA
ATOM     22  S   UNL     1     -10.722   9.943  67.610  0.00  0.00    +0.051 S 
ATOM     23  N   UNL     1     -11.826  11.060  68.247  0.00  0.00    -0.185 NA
BRANCH  21  24
ATOM     24  P   UNL     1      -7.922   8.844  70.641  0.00  0.00    +0.502 P 
ATOM     25  O   UNL     1      -7.293  10.364  70.317  0.00  0.00    -0.121 OA
ATOM     26  O   UNL     1      -6.716   7.679  70.716  0.00  0.00    -0.121 OA
ATOM     27  O   UNL     1      -8.643   8.879  71.956  0.00  0.00    -0.230 OA
ENDBRANCH  21  24
ENDBRANCH  17  18
BRANCH  16  28
ATOM     28  O   UNL     1     -13.430   9.771  71.490  0.00  0.00    -0.377 OA
BRANCH  28  30
ATOM     29  C   UNL     1     -12.380   8.366  72.246  0.00  0.00    +0.054 C 
ATOM     30  C   UNL     1     -12.989   8.808  72.447  0.00  0.00    +0.239 C 
ENDBRANCH  28  30
ENDBRANCH  16  28
ENDBRANCH  13  17
ENDBRANCH   1  14
BRANCH   5  31
ATOM     31  S   UNL     1      -7.164  17.076  66.350  0.00  0.00    -0.064 S 
BRANCH  31  32
ATOM     32  C   UNL     1      -6.588  18.743  66.205  0.00  0.00    +0.140 A 
ATOM     33  S   UNL     1      -6.213  19.964  67.356  0.00  0.00    -0.059 S 
ATOM     34  C   UNL     1      -5.792  21.185  66.217  0.00  0.00    +0.056 A 
ATOM     35  C   UNL     1      -6.099  20.571  65.004  0.00  0.00    +0.089 A 
ATOM     36  N   UNL     1      -6.998  19.574  65.212  0.00  0.00    -0.232 NA
BRANCH  35  37
ATOM     37  C   UNL     1      -5.458  20.889  63.708  0.00  0.00    +0.030 A 
ATOM     38  C   UNL     1      -4.317  20.215  63.281  0.00  0.00    +0.077 A 
ATOM     39  C   UNL     1      -4.265  19.632  62.021  0.00  0.00    +0.290 A 
ATOM     40  N   UNL     1      -5.257  19.825  61.117  0.00  0.00    -0.153 N 
ATOM     41  C   UNL     1      -5.128  19.274  59.779  0.00  0.00    +0.408 C 
ATOM     42  C   UNL     1      -6.035  20.912  61.344  0.00  0.00    +0.290 A 
ATOM     43  C   UNL     1      -6.310  21.242  62.666  0.00  0.00    +0.077 A 
ENDBRANCH  35  37
ENDBRANCH  31  32
ENDBRANCH   5  31
TORSDOF 10
ENDMDL
MODEL 4
REMARK VINA RESULT:      -7.2      3.614      7.669
REMARK  Name = 
REMARK  10 active torsions:
REMARK  status: ('A' for Active; 'I' for Inactive)
REMARK    1  A    between atoms: C_2  and  O_3
REMARK    2  A    between atoms: O_3  and  N_4
REMARK    3  A    between atoms: C_5  and  C_6
REMARK    4  A    between atoms: C_5  and  C_34
REMARK    5  A    between atoms: N_8  and  CA_9
REMARK    6  A    between atoms: CA_13  and  C_14
REMARK    7  A    between atoms: C_17  and  S_18
REMARK    8  A    between atoms: S_18  and  C_19
REMARK    9  A    between atoms: C_21  and  C_22
REMARK   10  A    between atoms: N_38  and  P_39
REMARK                            x       y       z     vdW  Elec       q    Type
REMARK                         _______ _______ _______ _____ _____    ______ ____
ROOT
ATOM      1  CA  UNL     1     -11.138  15.776  67.997  0.00  0.00    +0.201 C 
ATOM      2  C   UNL     1     -11.680  14.752  66.786  0.00  0.00    +0.157 C 
ATOM      3  N   UNL     1     -10.837  13.726  67.530  0.00  0.00    -0.241 N 
ATOM      4  CA  UNL     1     -10.833  12.447  66.934  0.00  0.00    +0.138 C 
ATOM      5  C   UNL     1     -10.713  12.179  65.643  0.00  0.00    +0.040 C 
ATOM      6  C   UNL     1     -10.631  13.260  64.606  0.00  0.00    +0.093 C 
ATOM      7  S   UNL     1     -10.394  14.898  65.389  0.00  0.00    -0.113 S 
ATOM      8  C   UNL     1      -9.958  14.699  68.138  0.00  0.00    +0.253 C 
ATOM      9  O   UNL     1      -9.357  14.573  69.250  0.00  0.00    -0.273 OA
ENDROOT
BRANCH   4  10
ATOM     10  C   UNL     1     -11.019  11.351  67.894  0.00  0.00    +0.401 C 
ATOM     11  OXT UNL     1     -10.133  11.136  68.956  0.00  0.00    -0.239 OA
ATOM     12  O   UNL     1     -12.236  11.190  68.229  0.00  0.00    -0.239 OA
ENDBRANCH   4  10
BRANCH   1  14
ATOM     13  C   UNL     1      -9.741  17.799  67.890  0.00  0.00    +0.289 C 
ATOM     14  N   UNL     1     -10.331  16.769  67.085  0.00  0.00    -0.190 NA
ATOM     15  O   UNL     1     -10.348  18.221  68.896  0.00  0.00    -0.266 OA
BRANCH  13  17
ATOM     16  N   UNL     1      -8.290  18.964  66.434  0.00  0.00    -0.075 NA
ATOM     17  C   UNL     1      -8.412  18.332  67.565  0.00  0.00    +0.210 C 
BRANCH  17  18
ATOM     18  C   UNL     1      -7.203  17.760  68.182  0.00  0.00    +0.197 A 
ATOM     19  N   UNL     1      -6.436  18.518  68.964  0.00  0.00    -0.200 NA
ATOM     20  C   UNL     1      -5.612  17.772  69.743  0.00  0.00    +0.207 A 
ATOM     21  N   UNL     1      -4.953  18.182  70.948  0.00  0.00    -0.114 NA
ATOM     22  S   UNL     1      -5.210  16.552  68.604  0.00  0.00    +0.051 S 
ATOM     23  N   UNL     1      -6.476  16.831  67.512  0.00  0.00    -0.185 NA
BRANCH  21  24
ATOM     24  P   UNL     1      -4.844  19.904  71.223  0.00  0.00    +0.502 P 
ATOM     25  O   UNL     1      -3.768  20.179  72.478  0.00  0.00    -0.121 OA
ATOM     26  O   UNL     1      -6.372  20.501  71.578  0.00  0.00    -0.121 OA
ATOM     27  O   UNL     1      -4.338  20.579  69.983  0.00  0.00    -0.230 OA
ENDBRANCH  21  24
ENDBRANCH  17  18
BRANCH  16  28
ATOM     28  O   UNL     1      -7.237  19.858  66.374  0.00  0.00    -0.377 OA
BRANCH  28  30
ATOM     29  C   UNL     1      -6.392  20.267  64.712  0.00  0.00    +0.054 C 
ATOM     30  C   UNL     1      -6.379  19.700  65.244  0.00  0.00    +0.239 C 
ENDBRANCH  28  30
ENDBRANCH  16  28
ENDBRANCH  13  17
ENDBRANCH   1  14
BRANCH   5  31
ATOM     31  S   UNL     1      -9.886  10.693  65.147  0.00  0.00    -0.064 S 
BRANCH  31  32
ATOM     32  C   UNL     1      -8.134  10.697  65.395  0.00  0.00    +0.140 A 
ATOM     33  S   UNL     1      -6.826   9.944  64.570  0.00  0.00    -0.059 S 
ATOM     34  C   UNL     1      -5.578  10.536  65.599  0.00  0.00    +0.056 A 
ATOM     35  C   UNL     1      -6.305  11.187  66.594  0.00  0.00    +0.089 A 
ATOM     36  N   UNL     1      -7.571  10.695  66.631  0.00  0.00    -0.232 NA
BRANCH  35  37
ATOM     37  C   UNL     1      -5.802  12.316  67.408  0.00  0.00    +0.030 A 
ATOM     38  C   UNL     1      -6.577  12.882  68.417  0.00  0.00    +0.077 A 
ATOM     39  C   UNL     1      -6.068  13.041  69.701  0.00  0.00    +0.290 A 
ATOM     40  N   UNL     1      -4.764  12.791  69.975  0.00  0.00    -0.153 N 
ATOM     41  C   UNL     1      -4.246  13.053  71.306  0.00  0.00    +0.408 C 
ATOM     42  C   UNL     1      -3.940  12.804  68.898  0.00  0.00    +0.290 A 
ATOM     43  C   UNL     1      -4.441  12.312  67.698  0.00  0.00    +0.077 A 
ENDBRANCH  35  37
ENDBRANCH  31  32
ENDBRANCH   5  31
TORSDOF 10
ENDMDL
MODEL 5
REMARK VINA RESULT:      -7.0      4.385      8.743
REMARK  Name = 
REMARK  10 active torsions:
REMARK  status: ('A' for Active; 'I' for Inactive)
REMARK    1  A    between atoms: C_2  and  O_3
REMARK    2  A    between atoms: O_3  and  N_4
REMARK    3  A    between atoms: C_5  and  C_6
REMARK    4  A    between atoms: C_5  and  C_34
REMARK    5  A    between atoms: N_8  and  CA_9
REMARK    6  A    between atoms: CA_13  and  C_14
REMARK    7  A    between atoms: C_17  and  S_18
REMARK    8  A    between atoms: S_18  and  C_19
REMARK    9  A    between atoms: C_21  and  C_22
REMARK   10  A    between atoms: N_38  and  P_39
REMARK                            x       y       z     vdW  Elec       q    Type
REMARK                         _______ _______ _______ _____ _____    ______ ____
ROOT
ATOM      1  CA  UNL     1      -8.306  17.368  68.153  0.00  0.00    +0.201 C 
ATOM      2  C   UNL     1      -9.667  17.160  67.196  0.00  0.00    +0.157 C 
ATOM      3  N   UNL     1      -9.917  15.983  68.128  0.00  0.00    -0.241 N 
ATOM      4  CA  UNL     1     -11.078  15.243  67.819  0.00  0.00    +0.138 C 
ATOM      5  C   UNL     1     -11.476  14.869  66.614  0.00  0.00    +0.040 C 
ATOM      6  C   UNL     1     -10.738  15.265  65.369  0.00  0.00    +0.093 C 
ATOM      7  S   UNL     1      -9.117  16.010  65.781  0.00  0.00    -0.113 S 
ATOM      8  C   UNL     1      -8.530  15.818  68.502  0.00  0.00    +0.253 C 
ATOM      9  O   UNL     1      -8.102  15.359  69.606  0.00  0.00    -0.273 OA
ENDROOT
BRANCH   4  10
ATOM     10  C   UNL     1     -11.898  14.919  68.993  0.00  0.00    +0.401 C 
ATOM     11  OXT UNL     1     -11.540  13.909  69.894  0.00  0.00    -0.239 OA
ATOM     12  O   UNL     1     -12.360  15.953  69.574  0.00  0.00    -0.239 OA
ENDBRANCH   4  10
BRANCH   1  14
ATOM     13  C   UNL     1      -6.465  18.314  66.822  0.00  0.00    +0.289 C 
ATOM     14  N   UNL     1      -7.227  17.119  67.038  0.00  0.00    -0.190 NA
ATOM     15  O   UNL     1      -7.021  19.428  66.922  0.00  0.00    -0.266 OA
BRANCH  13  17
ATOM     16  N   UNL     1      -4.512  17.054  66.399  0.00  0.00    -0.075 NA
ATOM     17  C   UNL     1      -5.029  18.241  66.525  0.00  0.00    +0.210 C 
BRANCH  17  18
ATOM     18  C   UNL     1      -4.135  19.362  66.862  0.00  0.00    +0.197 A 
ATOM     19  N   UNL     1      -4.120  19.848  68.102  0.00  0.00    -0.200 NA
ATOM     20  C   UNL     1      -3.007  20.584  68.345  0.00  0.00    +0.207 A 
ATOM     21  N   UNL     1      -2.454  20.924  69.623  0.00  0.00    -0.114 NA
ATOM     22  S   UNL     1      -2.873  21.365  66.821  0.00  0.00    +0.051 S 
ATOM     23  N   UNL     1      -3.880  20.324  65.941  0.00  0.00    -0.185 NA
BRANCH  21  24
ATOM     24  P   UNL     1      -3.520  20.752  70.997  0.00  0.00    +0.502 P 
ATOM     25  O   UNL     1      -3.792  19.120  71.262  0.00  0.00    -0.121 OA
ATOM     26  O   UNL     1      -4.951  21.574  70.687  0.00  0.00    -0.121 OA
ATOM     27  O   UNL     1      -2.874  21.348  72.212  0.00  0.00    -0.230 OA
ENDBRANCH  21  24
ENDBRANCH  17  18
BRANCH  16  28
ATOM     28  O   UNL     1      -3.350  16.997  65.653  0.00  0.00    -0.377 OA
BRANCH  28  30
ATOM     29  C   UNL     1      -2.441  15.876  66.902  0.00  0.00    +0.054 C 
ATOM     30  C   UNL     1      -2.344  16.128  66.173  0.00  0.00    +0.239 C 
ENDBRANCH  28  30
ENDBRANCH  16  28
ENDBRANCH  13  17
ENDBRANCH   1  14
BRANCH   5  31
ATOM     31  S   UNL     1     -12.345  13.336  66.433  0.00  0.00    -0.064 S 
BRANCH  31  32
ATOM     32  C   UNL     1     -11.454  11.905  66.971  0.00  0.00    +0.140 A 
ATOM     33  S   UNL     1     -10.407  10.800  66.172  0.00  0.00    -0.059 S 
ATOM     34  C   UNL     1     -10.114   9.787  67.533  0.00  0.00    +0.056 A 
ATOM     35  C   UNL     1     -10.968  10.331  68.490  0.00  0.00    +0.089 A 
ATOM     36  N   UNL     1     -11.960  11.027  67.876  0.00  0.00    -0.232 NA
BRANCH  35  37
ATOM     37  C   UNL     1     -10.760  10.251  69.954  0.00  0.00    +0.030 A 
ATOM     38  C   UNL     1     -11.835  10.176  70.835  0.00  0.00    +0.077 A 
ATOM     39  C   UNL     1     -11.894   9.179  71.801  0.00  0.00    +0.290 A 
ATOM     40  N   UNL     1     -10.847   8.345  72.014  0.00  0.00    -0.153 N 
ATOM     41  C   UNL     1     -10.910   7.373  73.092  0.00  0.00    +0.408 C 
ATOM     42  C   UNL     1      -9.652   8.799  71.563  0.00  0.00    +0.290 A 
ATOM     43  C   UNL     1      -9.647   9.534  70.383  0.00  0.00    +0.077 A 
ENDBRANCH  35  37
ENDBRANCH  31  32
ENDBRANCH   5  31
TORSDOF 10
ENDMDL
MODEL 6
REMARK VINA RESULT:      -7.0      3.686      7.909
REMARK  Name = 
REMARK  10 active torsions:
REMARK  status: ('A' for Active; 'I' for Inactive)
REMARK    1  A    between atoms: C_2  and  O_3
REMARK    2  A    between atoms: O_3  and  N_4
REMARK    3  A    between atoms: C_5  and  C_6
REMARK    4  A    between atoms: C_5  and  C_34
REMARK    5  A    between atoms: N_8  and  CA_9
REMARK    6  A    between atoms: CA_13  and  C_14
REMARK    7  A    between atoms: C_17  and  S_18
REMARK    8  A    between atoms: S_18  and  C_19
REMARK    9  A    between atoms: C_21  and  C_22
REMARK   10  A    between atoms: N_38  and  P_39
REMARK                            x       y       z     vdW  Elec       q    Type
REMARK                         _______ _______ _______ _____ _____    ______ ____
ROOT
ATOM      1  CA  UNL     1     -11.611  11.277  68.461  0.00  0.00    +0.201 C 
ATOM      2  C   UNL     1     -11.857  12.934  68.553  0.00  0.00    +0.157 C 
ATOM      3  N   UNL     1     -11.562  12.876  67.061  0.00  0.00    -0.241 N 
ATOM      4  CA  UNL     1     -11.588  14.133  66.423  0.00  0.00    +0.138 C 
ATOM      5  C   UNL     1     -11.057  15.258  66.876  0.00  0.00    +0.040 C 
ATOM      6  C   UNL     1     -10.391  15.344  68.218  0.00  0.00    +0.093 C 
ATOM      7  S   UNL     1     -10.145  13.677  68.932  0.00  0.00    -0.113 S 
ATOM      8  C   UNL     1     -10.797  11.650  67.129  0.00  0.00    +0.253 C 
ATOM      9  O   UNL     1     -10.684  10.787  66.204  0.00  0.00    -0.273 OA
ENDROOT
BRANCH   4  10
ATOM     10  C   UNL     1     -12.322  14.132  65.151  0.00  0.00    +0.401 C 
ATOM     11  OXT UNL     1     -11.861  13.434  64.028  0.00  0.00    -0.239 OA
ATOM     12  O   UNL     1     -13.581  14.033  65.308  0.00  0.00    -0.239 OA
ENDBRANCH   4  10
BRANCH   1  14
ATOM     13  C   UNL     1      -9.730   9.914  69.273  0.00  0.00    +0.289 C 
ATOM     14  N   UNL     1     -10.348  11.202  69.394  0.00  0.00    -0.190 NA
ATOM     15  O   UNL     1     -10.440   8.902  69.090  0.00  0.00    -0.266 OA
BRANCH  13  17
ATOM     16  N   UNL     1      -7.717   9.743  70.498  0.00  0.00    -0.075 NA
ATOM     17  C   UNL     1      -8.269   9.779  69.320  0.00  0.00    +0.210 C 
BRANCH  17  18
ATOM     18  C   UNL     1      -7.440  10.183  68.171  0.00  0.00    +0.197 A 
ATOM     19  N   UNL     1      -7.068  11.454  68.035  0.00  0.00    -0.200 NA
ATOM     20  C   UNL     1      -6.024  11.589  67.180  0.00  0.00    +0.207 A 
ATOM     21  N   UNL     1      -5.119  12.697  67.084  0.00  0.00    -0.114 NA
ATOM     22  S   UNL     1      -6.487  10.415  66.015  0.00  0.00    +0.051 S 
ATOM     23  N   UNL     1      -7.610   9.577  66.969  0.00  0.00    -0.185 NA
BRANCH  21  24
ATOM     24  P   UNL     1      -5.645  14.191  67.824  0.00  0.00    +0.502 P 
ATOM     25  O   UNL     1      -5.772  13.953  69.478  0.00  0.00    -0.121 OA
ATOM     26  O   UNL     1      -7.113  14.648  67.150  0.00  0.00    -0.121 OA
ATOM     27  O   UNL     1      -4.635  15.266  67.556  0.00  0.00    -0.230 OA
ENDBRANCH  21  24
ENDBRANCH  17  18
BRANCH  16  28
ATOM     28  O   UNL     1      -6.479   9.132  70.546  0.00  0.00    -0.377 OA
BRANCH  28  30
ATOM     29  C   UNL     1      -5.107  10.345  71.087  0.00  0.00    +0.054 C 
ATOM     30  C   UNL     1      -5.527   9.768  71.398  0.00  0.00    +0.239 C 
ENDBRANCH  28  30
ENDBRANCH  16  28
ENDBRANCH  13  17
ENDBRANCH   1  14
BRANCH   5  31
ATOM     31  S   UNL     1     -10.409  16.431  65.716  0.00  0.00    -0.064 S 
BRANCH  31  32
ATOM     32  C   UNL     1      -9.858  17.955  66.426  0.00  0.00    +0.140 A 
ATOM     33  S   UNL     1     -10.670  19.392  66.909  0.00  0.00    -0.059 S 
ATOM     34  C   UNL     1      -9.267  20.249  67.420  0.00  0.00    +0.056 A 
ATOM     35  C   UNL     1      -8.243  19.376  67.055  0.00  0.00    +0.089 A 
ATOM     36  N   UNL     1      -8.682  18.540  66.079  0.00  0.00    -0.232 NA
BRANCH  35  37
ATOM     37  C   UNL     1      -6.918  19.304  67.710  0.00  0.00    +0.030 A 
ATOM     38  C   UNL     1      -6.248  20.456  68.116  0.00  0.00    +0.077 A 
ATOM     39  C   UNL     1      -5.766  20.578  69.414  0.00  0.00    +0.290 A 
ATOM     40  N   UNL     1      -5.799  19.533  70.276  0.00  0.00    -0.153 N 
ATOM     41  C   UNL     1      -5.205  19.670  71.595  0.00  0.00    +0.408 C 
ATOM     42  C   UNL     1      -5.914  18.314  69.694  0.00  0.00    +0.290 A 
ATOM     43  C   UNL     1      -6.701  18.218  68.552  0.00  0.00    +0.077 A 
ENDBRANCH  35  37
ENDBRANCH  31  32
ENDBRANCH   5  31
TORSDOF 10
ENDMDL
MODEL 7
REMARK VINA RESULT:      -7.0      4.777      8.261
REMARK  Name = 
REMARK  10 active torsions:
REMARK  status: ('A' for Active; 'I' for Inactive)
REMARK    1  A    between atoms: C_2  and  O_3
REMARK    2  A    between atoms: O_3  and  N_4
REMARK    3  A    between atoms: C_5  and  C_6
REMARK    4  A    between atoms: C_5  and  C_34
REMARK    5  A    between atoms: N_8  and  CA_9
REMARK    6  A    between atoms: CA_13  and  C_14
REMARK    7  A    between atoms: C_17  and  S_18
REMARK    8  A    between atoms: S_18  and  C_19
REMARK    9  A    between atoms: C_21  and  C_22
REMARK   10  A    between atoms: N_38  and  P_39
REMARK                            x       y       z     vdW  Elec       q    Type
REMARK                         _______ _______ _______ _____ _____    ______ ____
ROOT
ATOM      1  CA  UNL     1     -11.120  12.227  66.039  0.00  0.00    +0.201 C 
ATOM      2  C   UNL     1      -9.764  11.395  65.507  0.00  0.00    +0.157 C 
ATOM      3  N   UNL     1     -10.231  10.356  66.517  0.00  0.00    -0.241 N 
ATOM      4  CA  UNL     1      -9.392   9.226  66.606  0.00  0.00    +0.138 C 
ATOM      5  C   UNL     1      -8.069   9.227  66.641  0.00  0.00    +0.040 C 
ATOM      6  C   UNL     1      -7.267  10.490  66.516  0.00  0.00    +0.093 C 
ATOM      7  S   UNL     1      -8.346  11.963  66.644  0.00  0.00    -0.113 S 
ATOM      8  C   UNL     1     -10.965  11.295  67.336  0.00  0.00    +0.253 C 
ATOM      9  O   UNL     1     -11.988  11.031  68.041  0.00  0.00    -0.273 OA
ENDROOT
BRANCH   4  10
ATOM     10  C   UNL     1     -10.122   7.952  66.623  0.00  0.00    +0.401 C 
ATOM     11  OXT UNL     1      -9.583   6.780  66.079  0.00  0.00    -0.239 OA
ATOM     12  O   UNL     1     -10.733   7.747  67.720  0.00  0.00    -0.239 OA
ENDBRANCH   4  10
BRANCH   1  14
ATOM     13  C   UNL     1     -11.332  14.446  67.081  0.00  0.00    +0.289 C 
ATOM     14  N   UNL     1     -10.375  13.467  66.654  0.00  0.00    -0.190 NA
ATOM     15  O   UNL     1     -12.388  14.603  66.432  0.00  0.00    -0.266 OA
BRANCH  13  17
ATOM     16  N   UNL     1     -12.133  15.828  68.821  0.00  0.00    -0.075 NA
ATOM     17  C   UNL     1     -11.101  15.235  68.296  0.00  0.00    +0.210 C 
BRANCH  17  18
ATOM     18  C   UNL     1      -9.760  15.761  68.606  0.00  0.00    +0.197 A 
ATOM     19  N   UNL     1      -9.323  16.864  68.001  0.00  0.00    -0.200 NA
ATOM     20  C   UNL     1      -8.275  17.422  68.656  0.00  0.00    +0.207 A 
ATOM     21  N   UNL     1      -7.805  18.772  68.550  0.00  0.00    -0.114 NA
ATOM     22  S   UNL     1      -7.456  15.982  69.111  0.00  0.00    +0.051 S 
ATOM     23  N   UNL     1      -8.745  14.904  68.884  0.00  0.00    -0.185 NA
BRANCH  21  24
ATOM     24  P   UNL     1      -8.343  19.671  67.151  0.00  0.00    +0.502 P 
ATOM     25  O   UNL     1      -7.470  21.099  67.065  0.00  0.00    -0.121 OA
ATOM     26  O   UNL     1      -9.991  19.961  67.287  0.00  0.00    -0.121 OA
ATOM     27  O   UNL     1      -8.095  18.865  65.911  0.00  0.00    -0.230 OA
ENDBRANCH  21  24
ENDBRANCH  17  18
BRANCH  16  28
ATOM     28  O   UNL     1     -12.019  16.122  70.167  0.00  0.00    -0.377 OA
BRANCH  28  30
ATOM     29  C   UNL     1     -13.231  15.533  71.520  0.00  0.00    +0.054 C 
ATOM     30  C   UNL     1     -12.704  15.222  71.038  0.00  0.00    +0.239 C 
ENDBRANCH  28  30
ENDBRANCH  16  28
ENDBRANCH  13  17
ENDBRANCH   1  14
BRANCH   5  31
ATOM     31  S   UNL     1      -7.232   7.977  67.576  0.00  0.00    -0.064 S 
BRANCH  31  32
ATOM     32  C   UNL     1      -7.279   8.202  69.331  0.00  0.00    +0.140 A 
ATOM     33  S   UNL     1      -6.059   8.412  70.524  0.00  0.00    -0.059 S 
ATOM     34  C   UNL     1      -7.121   8.499  71.877  0.00  0.00    +0.056 A 
ATOM     35  C   UNL     1      -8.358   8.231  71.295  0.00  0.00    +0.089 A 
ATOM     36  N   UNL     1      -8.178   7.564  70.126  0.00  0.00    -0.232 NA
BRANCH  35  37
ATOM     37  C   UNL     1      -9.660   8.701  71.820  0.00  0.00    +0.030 A 
ATOM     38  C   UNL     1     -10.548   9.416  71.020  0.00  0.00    +0.077 A 
ATOM     39  C   UNL     1     -11.875   9.020  70.902  0.00  0.00    +0.290 A 
ATOM     40  N   UNL     1     -12.382   8.025  71.670  0.00  0.00    -0.153 N 
ATOM     41  C   UNL     1     -13.795   7.699  71.584  0.00  0.00    +0.408 C 
ATOM     42  C   UNL     1     -11.680   7.759  72.799  0.00  0.00    +0.290 A 
ATOM     43  C   UNL     1     -10.295   7.868  72.735  0.00  0.00    +0.077 A 
ENDBRANCH  35  37
ENDBRANCH  31  32
ENDBRANCH   5  31
TORSDOF 10
ENDMDL
MODEL 8
REMARK VINA RESULT:      -7.0      4.951      8.400
REMARK  Name = 
REMARK  10 active torsions:
REMARK  status: ('A' for Active; 'I' for Inactive)
REMARK    1  A    between atoms: C_2  and  O_3
REMARK    2  A    between atoms: O_3  and  N_4
REMARK    3  A    between atoms: C_5  and  C_6
REMARK    4  A    between atoms: C_5  and  C_34
REMARK    5  A    between atoms: N_8  and  CA_9
REMARK    6  A    between atoms: CA_13  and  C_14
REMARK    7  A    between atoms: C_17  and  S_18
REMARK    8  A    between atoms: S_18  and  C_19
REMARK    9  A    between atoms: C_21  and  C_22
REMARK   10  A    between atoms: N_38  and  P_39
REMARK                            x       y       z     vdW  Elec       q    Type
REMARK                         _______ _______ _______ _____ _____    ______ ____
ROOT
ATOM      1  CA  UNL     1     -11.590  11.105  68.255  0.00  0.00    +0.201 C 
ATOM      2  C   UNL     1     -11.767  12.763  68.434  0.00  0.00    +0.157 C 
ATOM      3  N   UNL     1     -11.545  12.764  66.928  0.00  0.00    -0.241 N 
ATOM      4  CA  UNL     1     -11.552  14.050  66.349  0.00  0.00    +0.138 C 
ATOM      5  C   UNL     1     -10.957  15.132  66.825  0.00  0.00    +0.040 C 
ATOM      6  C   UNL     1     -10.225  15.132  68.136  0.00  0.00    +0.093 C 
ATOM      7  S   UNL     1     -10.011  13.425  68.762  0.00  0.00    -0.113 S 
ATOM      8  C   UNL     1     -10.826  11.510  66.903  0.00  0.00    +0.253 C 
ATOM      9  O   UNL     1     -10.791  10.687  65.936  0.00  0.00    -0.273 OA
ENDROOT
BRANCH   4  10
ATOM     10  C   UNL     1     -12.344  14.136  65.116  0.00  0.00    +0.401 C 
ATOM     11  OXT UNL     1     -11.944  13.507  63.930  0.00  0.00    -0.239 OA
ATOM     12  O   UNL     1     -13.596  14.036  65.325  0.00  0.00    -0.239 OA
ENDBRANCH   4  10
BRANCH   1  14
ATOM     13  C   UNL     1     -10.550  10.069  70.229  0.00  0.00    +0.289 C 
ATOM     14  N   UNL     1     -10.289  10.939  69.121  0.00  0.00    -0.190 NA
ATOM     15  O   UNL     1     -11.672  10.084  70.777  0.00  0.00    -0.266 OA
BRANCH  13  17
ATOM     16  N   UNL     1      -8.301   9.575  70.763  0.00  0.00    -0.075 NA
ATOM     17  C   UNL     1      -9.523   9.131  70.701  0.00  0.00    +0.210 C 
BRANCH  17  18
ATOM     18  C   UNL     1      -9.736   7.676  70.607  0.00  0.00    +0.197 A 
ATOM     19  N   UNL     1      -9.967   7.115  69.421  0.00  0.00    -0.200 NA
ATOM     20  C   UNL     1      -9.757   5.775  69.445  0.00  0.00    +0.207 A 
ATOM     21  N   UNL     1      -9.522   4.915  68.322  0.00  0.00    -0.114 NA
ATOM     22  S   UNL     1     -10.399   5.438  71.001  0.00  0.00    +0.051 S 
ATOM     23  N   UNL     1     -10.373   7.020  71.608  0.00  0.00    -0.185 NA
BRANCH  21  24
ATOM     24  P   UNL     1      -9.963   5.550  66.755  0.00  0.00    +0.502 P 
ATOM     25  O   UNL     1      -8.687   6.464  66.169  0.00  0.00    -0.121 OA
ATOM     26  O   UNL     1     -11.360   6.468  66.910  0.00  0.00    -0.121 OA
ATOM     27  O   UNL     1     -10.232   4.416  65.812  0.00  0.00    -0.230 OA
ENDBRANCH  21  24
ENDBRANCH  17  18
BRANCH  16  28
ATOM     28  O   UNL     1      -7.477   8.900  71.642  0.00  0.00    -0.377 OA
BRANCH  28  30
ATOM     29  C   UNL     1      -5.863   8.686  70.644  0.00  0.00    +0.054 C 
ATOM     30  C   UNL     1      -6.085   8.969  71.334  0.00  0.00    +0.239 C 
ENDBRANCH  28  30
ENDBRANCH  16  28
ENDBRANCH  13  17
ENDBRANCH   1  14
BRANCH   5  31
ATOM     31  S   UNL     1     -10.320  16.334  65.689  0.00  0.00    -0.064 S 
BRANCH  31  32
ATOM     32  C   UNL     1      -9.809  17.859  66.426  0.00  0.00    +0.140 A 
ATOM     33  S   UNL     1     -10.659  19.267  66.929  0.00  0.00    -0.059 S 
ATOM     34  C   UNL     1      -9.279  20.151  67.459  0.00  0.00    +0.056 A 
ATOM     35  C   UNL     1      -8.233  19.310  67.083  0.00  0.00    +0.089 A 
ATOM     36  N   UNL     1      -8.647  18.480  66.092  0.00  0.00    -0.232 NA
BRANCH  35  37
ATOM     37  C   UNL     1      -6.908  19.262  67.743  0.00  0.00    +0.030 A 
ATOM     38  C   UNL     1      -6.214  20.427  68.059  0.00  0.00    +0.077 A 
ATOM     39  C   UNL     1      -5.728  20.638  69.344  0.00  0.00    +0.290 A 
ATOM     40  N   UNL     1      -5.781  19.662  70.283  0.00  0.00    -0.153 N 
ATOM     41  C   UNL     1      -5.182  19.888  71.588  0.00  0.00    +0.408 C 
ATOM     42  C   UNL     1      -5.922  18.405  69.796  0.00  0.00    +0.290 A 
ATOM     43  C   UNL     1      -6.712  18.239  68.665  0.00  0.00    +0.077 A 
ENDBRANCH  35  37
ENDBRANCH  31  32
ENDBRANCH   5  31
TORSDOF 10
ENDMDL
MODEL 9
REMARK VINA RESULT:      -7.0      4.460      8.402
REMARK  Name = 
REMARK  10 active torsions:
REMARK  status: ('A' for Active; 'I' for Inactive)
REMARK    1  A    between atoms: C_2  and  O_3
REMARK    2  A    between atoms: O_3  and  N_4
REMARK    3  A    between atoms: C_5  and  C_6
REMARK    4  A    between atoms: C_5  and  C_34
REMARK    5  A    between atoms: N_8  and  CA_9
REMARK    6  A    between atoms: CA_13  and  C_14
REMARK    7  A    between atoms: C_17  and  S_18
REMARK    8  A    between atoms: S_18  and  C_19
REMARK    9  A    between atoms: C_21  and  C_22
REMARK   10  A    between atoms: N_38  and  P_39
REMARK                            x       y       z     vdW  Elec       q    Type
REMARK                         _______ _______ _______ _____ _____    ______ ____
ROOT
ATOM      1  CA  UNL     1     -10.449  15.848  68.133  0.00  0.00    +0.201 C 
ATOM      2  C   UNL     1     -11.321  15.000  66.979  0.00  0.00    +0.157 C 
ATOM      3  N   UNL     1     -10.472  13.832  67.462  0.00  0.00    -0.241 N 
ATOM      4  CA  UNL     1     -10.724  12.622  66.784  0.00  0.00    +0.138 C 
ATOM      5  C   UNL     1     -10.882  12.468  65.478  0.00  0.00    +0.040 C 
ATOM      6  C   UNL     1     -10.877  13.630  64.530  0.00  0.00    +0.093 C 
ATOM      7  S   UNL     1     -10.314  15.156  65.371  0.00  0.00    -0.113 S 
ATOM      8  C   UNL     1      -9.391  14.655  67.956  0.00  0.00    +0.253 C 
ATOM      9  O   UNL     1      -8.609  14.366  68.914  0.00  0.00    -0.273 OA
ENDROOT
BRANCH   4  10
ATOM     10  C   UNL     1     -10.846  11.462  67.676  0.00  0.00    +0.401 C 
ATOM     11  OXT UNL     1     -10.008  11.284  68.783  0.00  0.00    -0.239 OA
ATOM     12  O   UNL     1     -12.056  11.154  67.923  0.00  0.00    -0.239 OA
ENDBRANCH   4  10
BRANCH   1  14
ATOM     13  C   UNL     1      -9.323  18.020  67.869  0.00  0.00    +0.289 C 
ATOM     14  N   UNL     1      -9.722  16.842  67.156  0.00  0.00    -0.190 NA
ATOM     15  O   UNL     1     -10.041  18.457  68.792  0.00  0.00    -0.266 OA
BRANCH  13  17
ATOM     16  N   UNL     1      -8.037  19.438  66.484  0.00  0.00    -0.075 NA
ATOM     17  C   UNL     1      -8.057  18.693  67.551  0.00  0.00    +0.210 C 
BRANCH  17  18
ATOM     18  C   UNL     1      -6.779  18.170  68.064  0.00  0.00    +0.197 A 
ATOM     19  N   UNL     1      -6.072  18.886  68.936  0.00  0.00    -0.200 NA
ATOM     20  C   UNL     1      -5.156  18.129  69.590  0.00  0.00    +0.207 A 
ATOM     21  N   UNL     1      -4.508  18.432  70.833  0.00  0.00    -0.114 NA
ATOM     22  S   UNL     1      -4.663  17.129  68.283  0.00  0.00    +0.051 S 
ATOM     23  N   UNL     1      -5.981  17.425  67.259  0.00  0.00    -0.185 NA
BRANCH  21  24
ATOM     24  P   UNL     1      -4.567  20.101  71.348  0.00  0.00    +0.502 P 
ATOM     25  O   UNL     1      -6.146  20.477  71.765  0.00  0.00    -0.121 OA
ATOM     26  O   UNL     1      -4.008  21.079  70.102  0.00  0.00    -0.121 OA
ATOM     27  O   UNL     1      -3.682  20.289  72.543  0.00  0.00    -0.230 OA
ENDBRANCH  21  24
ENDBRANCH  17  18
BRANCH  16  28
ATOM     28  O   UNL     1      -7.064  20.420  66.475  0.00  0.00    -0.377 OA
BRANCH  28  30
ATOM     29  C   UNL     1      -6.546  20.241  64.646  0.00  0.00    +0.054 C 
ATOM     30  C   UNL     1      -6.213  20.411  65.328  0.00  0.00    +0.239 C 
ENDBRANCH  28  30
ENDBRANCH  16  28
ENDBRANCH  13  17
ENDBRANCH   1  14
BRANCH   5  31
ATOM     31  S   UNL     1     -10.335  10.964  64.717  0.00  0.00    -0.064 S 
BRANCH  31  32
ATOM     32  C   UNL     1      -9.051  10.112  65.588  0.00  0.00    +0.140 A 
ATOM     33  S   UNL     1      -7.335  10.198  65.535  0.00  0.00    -0.059 S 
ATOM     34  C   UNL     1      -7.040   8.970  66.706  0.00  0.00    +0.056 A 
ATOM     35  C   UNL     1      -8.326   8.496  66.961  0.00  0.00    +0.089 A 
ATOM     36  N   UNL     1      -9.139   8.797  65.916  0.00  0.00    -0.232 NA
BRANCH  35  37
ATOM     37  C   UNL     1      -8.758   7.861  68.227  0.00  0.00    +0.030 A 
ATOM     38  C   UNL     1      -8.090   8.105  69.424  0.00  0.00    +0.077 A 
ATOM     39  C   UNL     1      -8.786   8.506  70.558  0.00  0.00    +0.290 A 
ATOM     40  N   UNL     1     -10.141   8.530  70.578  0.00  0.00    -0.153 N 
ATOM     41  C   UNL     1     -10.836   8.868  71.808  0.00  0.00    +0.408 C 
ATOM     42  C   UNL     1     -10.741   7.762  69.635  0.00  0.00    +0.290 A 
ATOM     43  C   UNL     1     -10.127   7.676  68.391  0.00  0.00    +0.077 A 
ENDBRANCH  35  37
ENDBRANCH  31  32
ENDBRANCH   5  31
TORSDOF 10
ENDMDL
