MODEL 1
REMARK VINA RESULT:      -7.2      0.000      0.000
REMARK  Name = 
REMARK  15 active torsions:
REMARK  status: ('A' for Active; 'I' for Inactive)
REMARK    1  A    between atoms: C_14  and  C_15
REMARK    2  A    between atoms: C_15  and  C_16
REMARK    3  A    between atoms: C_16  and  C_17
REMARK    4  A    between atoms: C_17  and  C_18
REMARK    5  A    between atoms: C_18  and  C_19
REMARK    6  A    between atoms: C_19  and  C_20
REMARK    7  A    between atoms: C_20  and  C_21
REMARK    8  A    between atoms: C_21  and  C_22
REMARK    9  A    between atoms: C_22  and  C_23
REMARK   10  A    between atoms: C_23  and  S_24
REMARK   11  A    between atoms: S_24  and  C_26
REMARK   12  A    between atoms: C_26  and  C_27
REMARK   13  A    between atoms: C_27  and  C_28
REMARK   14  A    between atoms: C_28  and  C_29
REMARK   15  A    between atoms: C_29  and  C_32
REMARK                            x       y       z     vdW  Elec       q    Type
REMARK                         _______ _______ _______ _____ _____    ______ ____
ROOT
ATOM      1  C   UNL     1     -11.129  15.866  69.875  0.00  0.00    +0.000 C 
ENDROOT
BRANCH   1  20
ATOM      2  C   UNL     1      -8.596  18.088  66.567  0.00  0.00    +0.003 C 
ATOM      3  C   UNL     1      -8.545  17.673  67.860  0.00  0.00    +0.028 C 
ATOM      4  C   UNL     1      -8.480  18.959  68.886  0.00  0.00    +0.152 C 
ATOM      5  O   UNL     1      -7.268  19.552  68.177  0.00  0.00    -0.223 OA
ATOM      6  C   UNL     1      -9.539  19.773  67.912  0.00  0.00    +0.033 C 
ATOM      7  C   UNL     1     -10.561  18.677  67.621  0.00  0.00    +0.003 C 
ATOM      8  C   UNL     1     -10.011  17.451  68.529  0.00  0.00    +0.003 C 
ATOM      9  C   UNL     1     -10.556  16.247  67.492  0.00  0.00    +0.004 C 
ATOM     10  C   UNL     1      -9.630  14.990  68.100  0.00  0.00    +0.022 C 
ATOM     11  C   UNL     1     -10.071  14.021  66.901  0.00  0.00    -0.026 A 
ATOM     12  C   UNL     1     -11.455  13.922  67.045  0.00  0.00    -0.023 A 
ATOM     13  C   UNL     1     -12.014  14.353  68.291  0.00  0.00    +0.026 C 
ATOM     14  C   UNL     1     -12.269  13.479  66.013  0.00  0.00    +0.037 A 
ATOM     15  C   UNL     1     -11.770  13.570  64.720  0.00  0.00    +0.195 A 
ATOM     16  O   UNL     1     -12.629  13.873  63.659  0.00  0.00    -0.287 OA
ATOM     17  C   UNL     1     -10.388  13.653  64.597  0.00  0.00    +0.042 A 
ATOM     18  C   UNL     1      -9.663  14.241  65.630  0.00  0.00    -0.001 A 
ATOM     19  C   UNL     1      -8.258  15.481  67.369  0.00  0.00    +0.004 C 
ATOM     20  C   UNL     1     -11.920  15.969  68.452  0.00  0.00    +0.005 C 
ATOM     21  C   UNL     1      -7.773  16.560  68.343  0.00  0.00    +0.003 C 
ENDBRANCH   1  20
BRANCH   1  22
ATOM     22  C   UNL     1     -12.045  16.012  71.011  0.00  0.00    +0.000 C 
BRANCH  22  23
ATOM     23  C   UNL     1     -11.677  15.154  72.214  0.00  0.00    +0.000 C 
BRANCH  23  24
ATOM     24  C   UNL     1     -12.878  14.542  72.845  0.00  0.00    +0.000 C 
BRANCH  24  25
ATOM     25  C   UNL     1     -13.646  13.567  72.085  0.00  0.00    +0.000 C 
BRANCH  25  26
ATOM     26  C   UNL     1     -13.248  12.155  72.051  0.00  0.00    +0.000 C 
BRANCH  26  27
ATOM     27  C   UNL     1     -12.639  11.651  70.786  0.00  0.00    +0.001 C 
BRANCH  27  28
ATOM     28  C   UNL     1     -12.940  10.158  70.723  0.00  0.00    +0.014 C 
BRANCH  28  29
ATOM     29  C   UNL     1     -12.407   9.595  72.019  0.00  0.00    +0.092 C 
BRANCH  29  30
ATOM     30  S   UNL     1     -11.814   7.874  71.760  0.00  0.00    +0.042 S 
ATOM     31  O   UNL     1     -13.132   7.189  71.299  0.00  0.00    -0.256 OA
BRANCH  30  32
ATOM     32  C   UNL     1     -10.925   8.024  70.158  0.00  0.00    +0.092 C 
BRANCH  32  33
ATOM     33  C   UNL     1      -9.909   9.133  70.242  0.00  0.00    +0.020 C 
BRANCH  33  34
ATOM     34  C   UNL     1      -9.121   9.340  68.990  0.00  0.00    +0.077 C 
BRANCH  34  35
ATOM     35  C   UNL     1      -9.513  10.565  68.212  0.00  0.00    +0.349 C 
ATOM     36  F   UNL     1      -8.470  11.046  67.438  0.00  0.00    -0.195 F 
ATOM     37  F   UNL     1      -9.893  11.563  69.063  0.00  0.00    -0.195 F 
BRANCH  35  38
ATOM     38  C   UNL     1     -10.598  10.193  67.225  0.00  0.00    +0.454 C 
ATOM     39  F   UNL     1     -11.841  10.623  67.594  0.00  0.00    -0.165 F 
ATOM     40  F   UNL     1     -10.231  10.793  66.026  0.00  0.00    -0.165 F 
ATOM     41  F   UNL     1     -10.534   8.826  66.996  0.00  0.00    -0.165 F 
ENDBRANCH  35  38
ENDBRANCH  34  35
ENDBRANCH  33  34
ENDBRANCH  32  33
ENDBRANCH  30  32
ENDBRANCH  29  30
ENDBRANCH  28  29
ENDBRANCH  27  28
ENDBRANCH  26  27
ENDBRANCH  25  26
ENDBRANCH  24  25
ENDBRANCH  23  24
ENDBRANCH  22  23
ENDBRANCH   1  22
TORSDOF 15
ENDMDL
MODEL 2
REMARK VINA RESULT:      -7.1      2.628      6.169
REMARK  Name = 
REMARK  15 active torsions:
REMARK  status: ('A' for Active; 'I' for Inactive)
REMARK    1  A    between atoms: C_14  and  C_15
REMARK    2  A    between atoms: C_15  and  C_16
REMARK    3  A    between atoms: C_16  and  C_17
REMARK    4  A    between atoms: C_17  and  C_18
REMARK    5  A    between atoms: C_18  and  C_19
REMARK    6  A    between atoms: C_19  and  C_20
REMARK    7  A    between atoms: C_20  and  C_21
REMARK    8  A    between atoms: C_21  and  C_22
REMARK    9  A    between atoms: C_22  and  C_23
REMARK   10  A    between atoms: C_23  and  S_24
REMARK   11  A    between atoms: S_24  and  C_26
REMARK   12  A    between atoms: C_26  and  C_27
REMARK   13  A    between atoms: C_27  and  C_28
REMARK   14  A    between atoms: C_28  and  C_29
REMARK   15  A    between atoms: C_29  and  C_32
REMARK                            x       y       z     vdW  Elec       q    Type
REMARK                         _______ _______ _______ _____ _____    ______ ____
ROOT
ATOM      1  C   UNL     1      -8.482  12.905  68.102  0.00  0.00    +0.000 C 
ENDROOT
BRANCH   1  20
ATOM      2  C   UNL     1     -11.912  14.723  65.413  0.00  0.00    +0.003 C 
ATOM      3  C   UNL     1     -11.643  13.697  66.263  0.00  0.00    +0.028 C 
ATOM      4  C   UNL     1     -11.678  12.255  65.471  0.00  0.00    +0.152 C 
ATOM      5  O   UNL     1     -13.078  12.509  64.924  0.00  0.00    -0.223 OA
ATOM      6  C   UNL     1     -10.960  12.970  64.164  0.00  0.00    +0.033 C 
ATOM      7  C   UNL     1      -9.876  13.797  64.851  0.00  0.00    +0.003 C 
ATOM      8  C   UNL     1     -10.057  13.370  66.405  0.00  0.00    +0.003 C 
ATOM      9  C   UNL     1      -9.570  14.855  67.022  0.00  0.00    +0.004 C 
ATOM     10  C   UNL     1     -10.171  14.662  68.573  0.00  0.00    +0.022 C 
ATOM     11  C   UNL     1      -9.852  16.190  68.938  0.00  0.00    -0.026 A 
ATOM     12  C   UNL     1      -8.467  16.283  68.797  0.00  0.00    -0.023 A 
ATOM     13  C   UNL     1      -7.733  15.054  68.735  0.00  0.00    +0.026 C 
ATOM     14  C   UNL     1      -7.824  17.505  68.668  0.00  0.00    +0.037 A 
ATOM     15  C   UNL     1      -8.580  18.583  68.225  0.00  0.00    +0.195 A 
ATOM     16  O   UNL     1      -8.003  19.548  67.394  0.00  0.00    -0.287 OA
ATOM     17  C   UNL     1      -9.957  18.477  68.388  0.00  0.00    +0.042 A 
ATOM     18  C   UNL     1     -10.533  17.210  68.368  0.00  0.00    -0.001 A 
ATOM     19  C   UNL     1     -11.717  14.955  68.145  0.00  0.00    +0.004 C 
ATOM     20  C   UNL     1      -8.016  14.270  67.339  0.00  0.00    +0.005 C 
ATOM     21  C   UNL     1     -12.141  13.584  67.608  0.00  0.00    +0.003 C 
ENDBRANCH   1  20
BRANCH   1  22
ATOM     22  C   UNL     1      -7.369  11.960  68.241  0.00  0.00    +0.000 C 
BRANCH  22  23
ATOM     23  C   UNL     1      -7.166  11.065  67.026  0.00  0.00    +0.000 C 
BRANCH  23  24
ATOM     24  C   UNL     1      -7.288   9.623  67.375  0.00  0.00    +0.000 C 
BRANCH  24  25
ATOM     25  C   UNL     1      -8.579   9.118  67.817  0.00  0.00    +0.000 C 
BRANCH  25  26
ATOM     26  C   UNL     1      -9.822   9.569  67.182  0.00  0.00    +0.000 C 
BRANCH  26  27
ATOM     27  C   UNL     1     -10.955   9.927  68.084  0.00  0.00    +0.001 C 
BRANCH  27  28
ATOM     28  C   UNL     1     -10.805   9.067  69.334  0.00  0.00    +0.014 C 
BRANCH  28  29
ATOM     29  C   UNL     1     -10.934  10.029  70.491  0.00  0.00    +0.092 C 
BRANCH  29  30
ATOM     30  S   UNL     1     -12.675  10.597  70.644  0.00  0.00    +0.042 S 
ATOM     31  O   UNL     1     -13.022  10.062  72.063  0.00  0.00    -0.256 OA
BRANCH  30  32
ATOM     32  C   UNL     1     -12.452  12.387  70.997  0.00  0.00    +0.092 C 
BRANCH  32  33
ATOM     33  C   UNL     1     -13.439  12.825  72.047  0.00  0.00    +0.020 C 
BRANCH  33  34
ATOM     34  C   UNL     1     -13.887  14.244  71.915  0.00  0.00    +0.077 C 
BRANCH  34  35
ATOM     35  C   UNL     1     -13.174  15.202  72.829  0.00  0.00    +0.349 C 
ATOM     36  F   UNL     1     -12.562  14.551  73.888  0.00  0.00    -0.195 F 
ATOM     37  F   UNL     1     -14.058  16.103  73.351  0.00  0.00    -0.195 F 
BRANCH  35  38
ATOM     38  C   UNL     1     -12.046  15.861  72.065  0.00  0.00    +0.454 C 
ATOM     39  F   UNL     1     -10.962  15.049  71.887  0.00  0.00    -0.165 F 
ATOM     40  F   UNL     1     -12.584  16.202  70.830  0.00  0.00    -0.165 F 
ATOM     41  F   UNL     1     -11.738  17.062  72.686  0.00  0.00    -0.165 F 
ENDBRANCH  35  38
ENDBRANCH  34  35
ENDBRANCH  33  34
ENDBRANCH  32  33
ENDBRANCH  30  32
ENDBRANCH  29  30
ENDBRANCH  28  29
ENDBRANCH  27  28
ENDBRANCH  26  27
ENDBRANCH  25  26
ENDBRANCH  24  25
ENDBRANCH  23  24
ENDBRANCH  22  23
ENDBRANCH   1  22
TORSDOF 15
ENDMDL
MODEL 3
REMARK VINA RESULT:      -7.0      3.814      6.794
REMARK  Name = 
REMARK  15 active torsions:
REMARK  status: ('A' for Active; 'I' for Inactive)
REMARK    1  A    between atoms: C_14  and  C_15
REMARK    2  A    between atoms: C_15  and  C_16
REMARK    3  A    between atoms: C_16  and  C_17
REMARK    4  A    between atoms: C_17  and  C_18
REMARK    5  A    between atoms: C_18  and  C_19
REMARK    6  A    between atoms: C_19  and  C_20
REMARK    7  A    between atoms: C_20  and  C_21
REMARK    8  A    between atoms: C_21  and  C_22
REMARK    9  A    between atoms: C_22  and  C_23
REMARK   10  A    between atoms: C_23  and  S_24
REMARK   11  A    between atoms: S_24  and  C_26
REMARK   12  A    between atoms: C_26  and  C_27
REMARK   13  A    between atoms: C_27  and  C_28
REMARK   14  A    between atoms: C_28  and  C_29
REMARK   15  A    between atoms: C_29  and  C_32
REMARK                            x       y       z     vdW  Elec       q    Type
REMARK                         _______ _______ _______ _____ _____    ______ ____
ROOT
ATOM      1  C   UNL     1      -8.141  20.130  67.803  0.00  0.00    +0.000 C 
ENDROOT
BRANCH   1  20
ATOM      2  C   UNL     1      -3.913  19.107  69.640  0.00  0.00    +0.003 C 
ATOM      3  C   UNL     1      -5.245  18.949  69.857  0.00  0.00    +0.028 C 
ATOM      4  C   UNL     1      -5.721  19.766  71.205  0.00  0.00    +0.152 C 
ATOM      5  O   UNL     1      -4.670  19.084  72.074  0.00  0.00    -0.223 OA
ATOM      6  C   UNL     1      -4.693  20.998  70.804  0.00  0.00    +0.033 C 
ATOM      7  C   UNL     1      -4.972  21.129  69.309  0.00  0.00    +0.003 C 
ATOM      8  C   UNL     1      -6.164  20.050  69.091  0.00  0.00    +0.003 C 
ATOM      9  C   UNL     1      -5.722  19.662  67.517  0.00  0.00    +0.004 C 
ATOM     10  C   UNL     1      -6.591  18.236  67.385  0.00  0.00    +0.022 C 
ATOM     11  C   UNL     1      -5.900  17.889  65.981  0.00  0.00    -0.026 A 
ATOM     12  C   UNL     1      -6.278  18.947  65.153  0.00  0.00    -0.023 A 
ATOM     13  C   UNL     1      -7.358  19.774  65.603  0.00  0.00    +0.026 C 
ATOM     14  C   UNL     1      -5.611  19.226  63.971  0.00  0.00    +0.037 A 
ATOM     15  C   UNL     1      -4.310  18.755  63.842  0.00  0.00    +0.195 A 
ATOM     16  O   UNL     1      -3.355  19.514  63.158  0.00  0.00    -0.287 OA
ATOM     17  C   UNL     1      -3.957  17.691  64.665  0.00  0.00    +0.042 A 
ATOM     18  C   UNL     1      -4.588  17.568  65.900  0.00  0.00    -0.001 A 
ATOM     19  C   UNL     1      -5.533  17.363  68.266  0.00  0.00    +0.004 C 
ATOM     20  C   UNL     1      -6.914  20.678  66.880  0.00  0.00    +0.005 C 
ATOM     21  C   UNL     1      -5.971  17.718  69.691  0.00  0.00    +0.003 C 
ENDBRANCH   1  20
BRANCH   1  22
ATOM     22  C   UNL     1      -9.443  20.403  67.185  0.00  0.00    +0.000 C 
BRANCH  22  23
ATOM     23  C   UNL     1     -10.549  19.460  67.637  0.00  0.00    +0.000 C 
BRANCH  23  24
ATOM     24  C   UNL     1     -10.010  18.299  68.397  0.00  0.00    +0.000 C 
BRANCH  24  25
ATOM     25  C   UNL     1      -9.921  17.008  67.731  0.00  0.00    +0.000 C 
BRANCH  25  26
ATOM     26  C   UNL     1      -9.934  16.913  66.267  0.00  0.00    +0.000 C 
BRANCH  26  27
ATOM     27  C   UNL     1      -9.644  15.577  65.670  0.00  0.00    +0.001 C 
BRANCH  27  28
ATOM     28  C   UNL     1      -9.169  14.685  66.811  0.00  0.00    +0.014 C 
BRANCH  28  29
ATOM     29  C   UNL     1      -9.827  13.348  66.564  0.00  0.00    +0.092 C 
BRANCH  29  30
ATOM     30  S   UNL     1     -11.545  13.365  67.217  0.00  0.00    +0.042 S 
ATOM     31  O   UNL     1     -11.966  11.893  66.940  0.00  0.00    -0.256 OA
BRANCH  30  32
ATOM     32  C   UNL     1     -11.254  13.302  69.031  0.00  0.00    +0.092 C 
BRANCH  32  33
ATOM     33  C   UNL     1     -12.278  14.149  69.740  0.00  0.00    +0.020 C 
BRANCH  33  34
ATOM     34  C   UNL     1     -12.405  13.865  71.201  0.00  0.00    +0.077 C 
BRANCH  34  35
ATOM     35  C   UNL     1     -13.576  14.542  71.860  0.00  0.00    +0.349 C 
ATOM     36  F   UNL     1     -14.401  13.639  72.509  0.00  0.00    -0.195 F 
ATOM     37  F   UNL     1     -14.329  15.196  70.927  0.00  0.00    -0.195 F 
BRANCH  35  38
ATOM     38  C   UNL     1     -13.062  15.461  72.947  0.00  0.00    +0.454 C 
ATOM     39  F   UNL     1     -12.548  14.795  74.024  0.00  0.00    -0.165 F 
ATOM     40  F   UNL     1     -12.066  16.224  72.350  0.00  0.00    -0.165 F 
ATOM     41  F   UNL     1     -14.070  16.352  73.282  0.00  0.00    -0.165 F 
ENDBRANCH  35  38
ENDBRANCH  34  35
ENDBRANCH  33  34
ENDBRANCH  32  33
ENDBRANCH  30  32
ENDBRANCH  29  30
ENDBRANCH  28  29
ENDBRANCH  27  28
ENDBRANCH  26  27
ENDBRANCH  25  26
ENDBRANCH  24  25
ENDBRANCH  23  24
ENDBRANCH  22  23
ENDBRANCH   1  22
TORSDOF 15
ENDMDL
MODEL 4
REMARK VINA RESULT:      -6.8      3.734      8.731
REMARK  Name = 
REMARK  15 active torsions:
REMARK  status: ('A' for Active; 'I' for Inactive)
REMARK    1  A    between atoms: C_14  and  C_15
REMARK    2  A    between atoms: C_15  and  C_16
REMARK    3  A    between atoms: C_16  and  C_17
REMARK    4  A    between atoms: C_17  and  C_18
REMARK    5  A    between atoms: C_18  and  C_19
REMARK    6  A    between atoms: C_19  and  C_20
REMARK    7  A    between atoms: C_20  and  C_21
REMARK    8  A    between atoms: C_21  and  C_22
REMARK    9  A    between atoms: C_22  and  C_23
REMARK   10  A    between atoms: C_23  and  S_24
REMARK   11  A    between atoms: S_24  and  C_26
REMARK   12  A    between atoms: C_26  and  C_27
REMARK   13  A    between atoms: C_27  and  C_28
REMARK   14  A    between atoms: C_28  and  C_29
REMARK   15  A    between atoms: C_29  and  C_32
REMARK                            x       y       z     vdW  Elec       q    Type
REMARK                         _______ _______ _______ _____ _____    ______ ____
ROOT
ATOM      1  C   UNL     1      -9.488  10.041  67.589  0.00  0.00    +0.000 C 
ENDROOT
BRANCH   1  20
ATOM      2  C   UNL     1      -9.867   5.474  68.730  0.00  0.00    +0.003 C 
ATOM      3  C   UNL     1      -8.973   6.403  68.301  0.00  0.00    +0.028 C 
ATOM      4  C   UNL     1      -8.459   6.061  66.775  0.00  0.00    +0.152 C 
ATOM      5  O   UNL     1      -8.037   4.647  67.160  0.00  0.00    -0.223 OA
ATOM      6  C   UNL     1      -9.989   5.575  66.382  0.00  0.00    +0.033 C 
ATOM      7  C   UNL     1     -10.815   6.691  67.016  0.00  0.00    +0.003 C 
ATOM      8  C   UNL     1      -9.665   7.686  67.580  0.00  0.00    +0.003 C 
ATOM      9  C   UNL     1     -10.569   8.226  68.889  0.00  0.00    +0.004 C 
ATOM     10  C   UNL     1      -9.309   8.881  69.777  0.00  0.00    +0.022 C 
ATOM     11  C   UNL     1     -10.262   9.124  71.043  0.00  0.00    -0.026 A 
ATOM     12  C   UNL     1     -11.233  10.005  70.564  0.00  0.00    -0.023 A 
ATOM     13  C   UNL     1     -10.952  10.677  69.330  0.00  0.00    +0.026 C 
ATOM     14  C   UNL     1     -12.442  10.189  71.217  0.00  0.00    +0.037 A 
ATOM     15  C   UNL     1     -12.868   9.180  72.072  0.00  0.00    +0.195 A 
ATOM     16  O   UNL     1     -14.230   8.879  72.174  0.00  0.00    -0.287 OA
ATOM     17  C   UNL     1     -11.884   8.321  72.549  0.00  0.00    +0.042 A 
ATOM     18  C   UNL     1     -10.762   8.090  71.758  0.00  0.00    -0.001 A 
ATOM     19  C   UNL     1      -8.763   7.438  70.305  0.00  0.00    +0.004 C 
ATOM     20  C   UNL     1     -10.994   9.645  68.074  0.00  0.00    +0.005 C 
ATOM     21  C   UNL     1      -7.928   6.980  69.104  0.00  0.00    +0.003 C 
ENDBRANCH   1  20
BRANCH   1  22
ATOM     22  C   UNL     1      -9.493  11.242  66.749  0.00  0.00    +0.000 C 
BRANCH  22  23
ATOM     23  C   UNL     1      -9.031  10.995  65.319  0.00  0.00    +0.000 C 
BRANCH  23  24
ATOM     24  C   UNL     1     -10.162  10.606  64.432  0.00  0.00    +0.000 C 
BRANCH  24  25
ATOM     25  C   UNL     1     -10.722  11.604  63.535  0.00  0.00    +0.000 C 
BRANCH  25  26
ATOM     26  C   UNL     1     -12.141  11.972  63.608  0.00  0.00    +0.000 C 
BRANCH  26  27
ATOM     27  C   UNL     1     -12.614  12.602  64.874  0.00  0.00    +0.001 C 
BRANCH  27  28
ATOM     28  C   UNL     1     -11.849  13.912  65.021  0.00  0.00    +0.014 C 
BRANCH  28  29
ATOM     29  C   UNL     1     -12.034  14.315  66.465  0.00  0.00    +0.092 C 
BRANCH  29  30
ATOM     30  S   UNL     1     -10.431  14.865  67.174  0.00  0.00    +0.042 S 
ATOM     31  O   UNL     1     -10.720  16.380  67.382  0.00  0.00    -0.256 OA
BRANCH  30  32
ATOM     32  C   UNL     1     -10.559  14.252  68.903  0.00  0.00    +0.092 C 
BRANCH  32  33
ATOM     33  C   UNL     1     -12.008  14.138  69.296  0.00  0.00    +0.020 C 
BRANCH  33  34
ATOM     34  C   UNL     1     -12.231  13.871  70.748  0.00  0.00    +0.077 C 
BRANCH  34  35
ATOM     35  C   UNL     1     -12.413  15.110  71.581  0.00  0.00    +0.349 C 
ATOM     36  F   UNL     1     -12.369  16.263  70.813  0.00  0.00    -0.195 F 
ATOM     37  F   UNL     1     -11.425  15.198  72.519  0.00  0.00    -0.195 F 
BRANCH  35  38
ATOM     38  C   UNL     1     -13.799  15.094  72.188  0.00  0.00    +0.454 C 
ATOM     39  F   UNL     1     -13.940  15.947  73.245  0.00  0.00    -0.165 F 
ATOM     40  F   UNL     1     -14.659  15.471  71.163  0.00  0.00    -0.165 F 
ATOM     41  F   UNL     1     -14.130  13.781  72.492  0.00  0.00    -0.165 F 
ENDBRANCH  35  38
ENDBRANCH  34  35
ENDBRANCH  33  34
ENDBRANCH  32  33
ENDBRANCH  30  32
ENDBRANCH  29  30
ENDBRANCH  28  29
ENDBRANCH  27  28
ENDBRANCH  26  27
ENDBRANCH  25  26
ENDBRANCH  24  25
ENDBRANCH  23  24
ENDBRANCH  22  23
ENDBRANCH   1  22
TORSDOF 15
ENDMDL
MODEL 5
REMARK VINA RESULT:      -6.8      3.589      6.675
REMARK  Name = 
REMARK  15 active torsions:
REMARK  status: ('A' for Active; 'I' for Inactive)
REMARK    1  A    between atoms: C_14  and  C_15
REMARK    2  A    between atoms: C_15  and  C_16
REMARK    3  A    between atoms: C_16  and  C_17
REMARK    4  A    between atoms: C_17  and  C_18
REMARK    5  A    between atoms: C_18  and  C_19
REMARK    6  A    between atoms: C_19  and  C_20
REMARK    7  A    between atoms: C_20  and  C_21
REMARK    8  A    between atoms: C_21  and  C_22
REMARK    9  A    between atoms: C_22  and  C_23
REMARK   10  A    between atoms: C_23  and  S_24
REMARK   11  A    between atoms: S_24  and  C_26
REMARK   12  A    between atoms: C_26  and  C_27
REMARK   13  A    between atoms: C_27  and  C_28
REMARK   14  A    between atoms: C_28  and  C_29
REMARK   15  A    between atoms: C_29  and  C_32
REMARK                            x       y       z     vdW  Elec       q    Type
REMARK                         _______ _______ _______ _____ _____    ______ ____
ROOT
ATOM      1  C   UNL     1     -10.277   9.382  66.658  0.00  0.00    +0.000 C 
ENDROOT
BRANCH   1  20
ATOM      2  C   UNL     1     -10.480  13.836  65.103  0.00  0.00    +0.003 C 
ATOM      3  C   UNL     1     -11.197  12.902  65.781  0.00  0.00    +0.028 C 
ATOM      4  C   UNL     1     -12.536  12.461  64.932  0.00  0.00    +0.152 C 
ATOM      5  O   UNL     1     -13.010  13.904  64.795  0.00  0.00    -0.223 OA
ATOM      6  C   UNL     1     -11.660  12.539  63.533  0.00  0.00    +0.033 C 
ATOM      7  C   UNL     1     -10.374  11.836  63.960  0.00  0.00    +0.003 C 
ATOM      8  C   UNL     1     -10.728  11.375  65.475  0.00  0.00    +0.003 C 
ATOM      9  C   UNL     1      -9.150  11.502  66.037  0.00  0.00    +0.004 C 
ATOM     10  C   UNL     1      -9.495  11.507  67.676  0.00  0.00    +0.022 C 
ATOM     11  C   UNL     1      -7.975  11.861  68.044  0.00  0.00    -0.026 A 
ATOM     12  C   UNL     1      -7.251  10.777  67.547  0.00  0.00    -0.023 A 
ATOM     13  C   UNL     1      -7.991   9.597  67.211  0.00  0.00    +0.026 C 
ATOM     14  C   UNL     1      -5.883  10.847  67.333  0.00  0.00    +0.037 A 
ATOM     15  C   UNL     1      -5.322  12.108  67.179  0.00  0.00    +0.195 A 
ATOM     16  O   UNL     1      -4.258  12.297  66.291  0.00  0.00    -0.287 OA
ATOM     17  C   UNL     1      -6.052  13.174  67.694  0.00  0.00    +0.042 A 
ATOM     18  C   UNL     1      -7.439  13.067  67.744  0.00  0.00    -0.001 A 
ATOM     19  C   UNL     1      -9.995  13.059  67.694  0.00  0.00    +0.004 C 
ATOM     20  C   UNL     1      -8.911   9.835  65.891  0.00  0.00    +0.005 C 
ATOM     21  C   UNL     1     -11.438  12.911  67.199  0.00  0.00    +0.003 C 
ENDBRANCH   1  20
BRANCH   1  22
ATOM     22  C   UNL     1     -10.101   8.109  67.364  0.00  0.00    +0.000 C 
BRANCH  22  23
ATOM     23  C   UNL     1     -10.841   8.033  68.693  0.00  0.00    +0.000 C 
BRANCH  23  24
ATOM     24  C   UNL     1     -10.065   8.665  69.794  0.00  0.00    +0.000 C 
BRANCH  24  25
ATOM     25  C   UNL     1     -10.723   9.657  70.632  0.00  0.00    +0.000 C 
BRANCH  25  26
ATOM     26  C   UNL     1     -12.012  10.238  70.242  0.00  0.00    +0.000 C 
BRANCH  26  27
ATOM     27  C   UNL     1     -12.647  11.188  71.201  0.00  0.00    +0.001 C 
BRANCH  27  28
ATOM     28  C   UNL     1     -12.421  12.588  70.642  0.00  0.00    +0.014 C 
BRANCH  28  29
ATOM     29  C   UNL     1     -12.984  13.523  71.686  0.00  0.00    +0.092 C 
BRANCH  29  30
ATOM     30  S   UNL     1     -13.276  15.182  70.952  0.00  0.00    +0.042 S 
ATOM     31  O   UNL     1     -14.138  15.837  72.068  0.00  0.00    -0.256 OA
BRANCH  30  32
ATOM     32  C   UNL     1     -11.658  16.006  71.241  0.00  0.00    +0.092 C 
BRANCH  32  33
ATOM     33  C   UNL     1     -10.763  15.802  70.047  0.00  0.00    +0.020 C 
BRANCH  33  34
ATOM     34  C   UNL     1     -11.310  16.350  68.769  0.00  0.00    +0.077 C 
BRANCH  34  35
ATOM     35  C   UNL     1     -10.259  16.838  67.810  0.00  0.00    +0.349 C 
ATOM     36  F   UNL     1     -10.627  16.637  66.490  0.00  0.00    -0.195 F 
ATOM     37  F   UNL     1      -9.084  16.175  68.020  0.00  0.00    -0.195 F 
BRANCH  35  38
ATOM     38  C   UNL     1     -10.121  18.338  67.957  0.00  0.00    +0.454 C 
ATOM     39  F   UNL     1      -9.955  18.745  69.250  0.00  0.00    -0.165 F 
ATOM     40  F   UNL     1      -9.000  18.683  67.211  0.00  0.00    -0.165 F 
ATOM     41  F   UNL     1     -11.196  18.943  67.322  0.00  0.00    -0.165 F 
ENDBRANCH  35  38
ENDBRANCH  34  35
ENDBRANCH  33  34
ENDBRANCH  32  33
ENDBRANCH  30  32
ENDBRANCH  29  30
ENDBRANCH  28  29
ENDBRANCH  27  28
ENDBRANCH  26  27
ENDBRANCH  25  26
ENDBRANCH  24  25
ENDBRANCH  23  24
ENDBRANCH  22  23
ENDBRANCH   1  22
TORSDOF 15
ENDMDL
MODEL 6
REMARK VINA RESULT:      -6.6      2.426      2.988
REMARK  Name = 
REMARK  15 active torsions:
REMARK  status: ('A' for Active; 'I' for Inactive)
REMARK    1  A    between atoms: C_14  and  C_15
REMARK    2  A    between atoms: C_15  and  C_16
REMARK    3  A    between atoms: C_16  and  C_17
REMARK    4  A    between atoms: C_17  and  C_18
REMARK    5  A    between atoms: C_18  and  C_19
REMARK    6  A    between atoms: C_19  and  C_20
REMARK    7  A    between atoms: C_20  and  C_21
REMARK    8  A    between atoms: C_21  and  C_22
REMARK    9  A    between atoms: C_22  and  C_23
REMARK   10  A    between atoms: C_23  and  S_24
REMARK   11  A    between atoms: S_24  and  C_26
REMARK   12  A    between atoms: C_26  and  C_27
REMARK   13  A    between atoms: C_27  and  C_28
REMARK   14  A    between atoms: C_28  and  C_29
REMARK   15  A    between atoms: C_29  and  C_32
REMARK                            x       y       z     vdW  Elec       q    Type
REMARK                         _______ _______ _______ _____ _____    ______ ____
ROOT
ATOM      1  C   UNL     1     -10.746  15.962  69.978  0.00  0.00    +0.000 C 
ENDROOT
BRANCH   1  20
ATOM      2  C   UNL     1      -8.771  18.373  66.431  0.00  0.00    +0.003 C 
ATOM      3  C   UNL     1      -8.543  17.956  67.704  0.00  0.00    +0.028 C 
ATOM      4  C   UNL     1      -8.449  19.238  68.732  0.00  0.00    +0.152 C 
ATOM      5  O   UNL     1      -7.371  19.919  67.896  0.00  0.00    -0.223 OA
ATOM      6  C   UNL     1      -9.667  19.981  67.897  0.00  0.00    +0.033 C 
ATOM      7  C   UNL     1     -10.637  18.817  67.710  0.00  0.00    +0.003 C 
ATOM      8  C   UNL     1      -9.903  17.628  68.533  0.00  0.00    +0.003 C 
ATOM      9  C   UNL     1     -10.480  16.394  67.551  0.00  0.00    +0.004 C 
ATOM     10  C   UNL     1      -9.405  15.202  68.032  0.00  0.00    +0.022 C 
ATOM     11  C   UNL     1      -9.913  14.211  66.879  0.00  0.00    -0.026 A 
ATOM     12  C   UNL     1     -11.262  14.014  67.179  0.00  0.00    -0.023 A 
ATOM     13  C   UNL     1     -11.701  14.399  68.487  0.00  0.00    +0.026 C 
ATOM     14  C   UNL     1     -12.156  13.520  66.242  0.00  0.00    +0.037 A 
ATOM     15  C   UNL     1     -11.818  13.652  64.901  0.00  0.00    +0.195 A 
ATOM     16  O   UNL     1     -12.812  13.900  63.950  0.00  0.00    -0.287 OA
ATOM     17  C   UNL     1     -10.468  13.833  64.622  0.00  0.00    +0.042 A 
ATOM     18  C   UNL     1      -9.671  14.465  65.572  0.00  0.00    -0.001 A 
ATOM     19  C   UNL     1      -8.164  15.792  67.154  0.00  0.00    +0.004 C 
ATOM     20  C   UNL     1     -11.701  16.016  68.657  0.00  0.00    +0.005 C 
ATOM     21  C   UNL     1      -7.645  16.897  68.080  0.00  0.00    +0.003 C 
ENDBRANCH   1  20
BRANCH   1  22
ATOM     22  C   UNL     1     -11.385  15.226  71.074  0.00  0.00    +0.000 C 
BRANCH  22  23
ATOM     23  C   UNL     1     -12.659  15.879  71.594  0.00  0.00    +0.000 C 
BRANCH  23  24
ATOM     24  C   UNL     1     -13.778  14.903  71.696  0.00  0.00    +0.000 C 
BRANCH  24  25
ATOM     25  C   UNL     1     -13.500  13.572  72.213  0.00  0.00    +0.000 C 
BRANCH  25  26
ATOM     26  C   UNL     1     -13.024  12.504  71.326  0.00  0.00    +0.000 C 
BRANCH  26  27
ATOM     27  C   UNL     1     -13.186  11.101  71.806  0.00  0.00    +0.001 C 
BRANCH  27  28
ATOM     28  C   UNL     1     -12.901  10.197  70.612  0.00  0.00    +0.014 C 
BRANCH  28  29
ATOM     29  C   UNL     1     -11.407  10.273  70.409  0.00  0.00    +0.092 C 
BRANCH  29  30
ATOM     30  S   UNL     1     -11.026  10.531  68.630  0.00  0.00    +0.042 S 
ATOM     31  O   UNL     1      -9.626  11.201  68.735  0.00  0.00    -0.256 OA
BRANCH  30  32
ATOM     32  C   UNL     1     -10.555   8.834  68.100  0.00  0.00    +0.092 C 
BRANCH  32  33
ATOM     33  C   UNL     1     -10.110   8.034  69.296  0.00  0.00    +0.020 C 
BRANCH  33  34
ATOM     34  C   UNL     1     -10.901   6.789  69.532  0.00  0.00    +0.077 C 
BRANCH  34  35
ATOM     35  C   UNL     1     -10.771   6.232  70.923  0.00  0.00    +0.349 C 
ATOM     36  F   UNL     1      -9.708   6.794  71.610  0.00  0.00    -0.195 F 
ATOM     37  F   UNL     1     -10.568   4.883  70.873  0.00  0.00    -0.195 F 
BRANCH  35  38
ATOM     38  C   UNL     1     -12.001   6.611  71.719  0.00  0.00    +0.454 C 
ATOM     39  F   UNL     1     -13.076   6.932  70.940  0.00  0.00    -0.165 F 
ATOM     40  F   UNL     1     -12.301   5.496  72.493  0.00  0.00    -0.165 F 
ATOM     41  F   UNL     1     -11.653   7.610  72.616  0.00  0.00    -0.165 F 
ENDBRANCH  35  38
ENDBRANCH  34  35
ENDBRANCH  33  34
ENDBRANCH  32  33
ENDBRANCH  30  32
ENDBRANCH  29  30
ENDBRANCH  28  29
ENDBRANCH  27  28
ENDBRANCH  26  27
ENDBRANCH  25  26
ENDBRANCH  24  25
ENDBRANCH  23  24
ENDBRANCH  22  23
ENDBRANCH   1  22
TORSDOF 15
ENDMDL
MODEL 7
REMARK VINA RESULT:      -6.5      3.520      6.173
REMARK  Name = 
REMARK  15 active torsions:
REMARK  status: ('A' for Active; 'I' for Inactive)
REMARK    1  A    between atoms: C_14  and  C_15
REMARK    2  A    between atoms: C_15  and  C_16
REMARK    3  A    between atoms: C_16  and  C_17
REMARK    4  A    between atoms: C_17  and  C_18
REMARK    5  A    between atoms: C_18  and  C_19
REMARK    6  A    between atoms: C_19  and  C_20
REMARK    7  A    between atoms: C_20  and  C_21
REMARK    8  A    between atoms: C_21  and  C_22
REMARK    9  A    between atoms: C_22  and  C_23
REMARK   10  A    between atoms: C_23  and  S_24
REMARK   11  A    between atoms: S_24  and  C_26
REMARK   12  A    between atoms: C_26  and  C_27
REMARK   13  A    between atoms: C_27  and  C_28
REMARK   14  A    between atoms: C_28  and  C_29
REMARK   15  A    between atoms: C_29  and  C_32
REMARK                            x       y       z     vdW  Elec       q    Type
REMARK                         _______ _______ _______ _____ _____    ______ ____
ROOT
ATOM      1  C   UNL     1      -8.168  19.996  67.705  0.00  0.00    +0.000 C 
ENDROOT
BRANCH   1  20
ATOM      2  C   UNL     1      -3.944  19.107  69.618  0.00  0.00    +0.003 C 
ATOM      3  C   UNL     1      -5.273  18.900  69.808  0.00  0.00    +0.028 C 
ATOM      4  C   UNL     1      -5.804  19.690  71.151  0.00  0.00    +0.152 C 
ATOM      5  O   UNL     1      -4.748  19.038  72.037  0.00  0.00    -0.223 OA
ATOM      6  C   UNL     1      -4.812  20.960  70.780  0.00  0.00    +0.033 C 
ATOM      7  C   UNL     1      -5.066  21.093  69.281  0.00  0.00    +0.003 C 
ATOM      8  C   UNL     1      -6.214  19.975  69.031  0.00  0.00    +0.003 C 
ATOM      9  C   UNL     1      -5.729  19.615  67.463  0.00  0.00    +0.004 C 
ATOM     10  C   UNL     1      -6.545  18.161  67.304  0.00  0.00    +0.022 C 
ATOM     11  C   UNL     1      -5.814  17.849  65.911  0.00  0.00    -0.026 A 
ATOM     12  C   UNL     1      -6.213  18.900  65.083  0.00  0.00    -0.023 A 
ATOM     13  C   UNL     1      -7.329  19.685  65.518  0.00  0.00    +0.026 C 
ATOM     14  C   UNL     1      -5.532  19.212  63.917  0.00  0.00    +0.037 A 
ATOM     15  C   UNL     1      -4.214  18.787  63.811  0.00  0.00    +0.195 A 
ATOM     16  O   UNL     1      -3.272  19.584  63.152  0.00  0.00    -0.287 OA
ATOM     17  C   UNL     1      -3.840  17.729  64.633  0.00  0.00    +0.042 A 
ATOM     18  C   UNL     1      -4.490  17.575  65.854  0.00  0.00    -0.001 A 
ATOM     19  C   UNL     1      -5.474  17.318  68.200  0.00  0.00    +0.004 C 
ATOM     20  C   UNL     1      -6.942  20.595  66.810  0.00  0.00    +0.005 C 
ATOM     21  C   UNL     1      -5.952  17.646  69.618  0.00  0.00    +0.003 C 
ENDBRANCH   1  20
BRANCH   1  22
ATOM     22  C   UNL     1      -9.468  20.465  67.216  0.00  0.00    +0.000 C 
BRANCH  22  23
ATOM     23  C   UNL     1     -10.599  19.464  67.416  0.00  0.00    +0.000 C 
BRANCH  23  24
ATOM     24  C   UNL     1     -10.196  18.088  67.017  0.00  0.00    +0.000 C 
BRANCH  24  25
ATOM     25  C   UNL     1     -10.434  16.993  67.945  0.00  0.00    +0.000 C 
BRANCH  25  26
ATOM     26  C   UNL     1      -9.319  16.206  68.485  0.00  0.00    +0.000 C 
BRANCH  26  27
ATOM     27  C   UNL     1      -8.672  15.227  67.565  0.00  0.00    +0.001 C 
BRANCH  27  28
ATOM     28  C   UNL     1      -8.463  13.948  68.368  0.00  0.00    +0.014 C 
BRANCH  28  29
ATOM     29  C   UNL     1      -9.059  12.850  67.519  0.00  0.00    +0.092 C 
BRANCH  29  30
ATOM     30  S   UNL     1     -10.277  11.886  68.503  0.00  0.00    +0.042 S 
ATOM     31  O   UNL     1     -11.373  12.966  68.730  0.00  0.00    -0.256 OA
BRANCH  30  32
ATOM     32  C   UNL     1     -11.073  10.857  67.203  0.00  0.00    +0.092 C 
BRANCH  32  33
ATOM     33  C   UNL     1     -10.790  11.445  65.846  0.00  0.00    +0.020 C 
BRANCH  33  34
ATOM     34  C   UNL     1     -11.909  12.261  65.285  0.00  0.00    +0.077 C 
BRANCH  34  35
ATOM     35  C   UNL     1     -11.477  13.281  64.268  0.00  0.00    +0.349 C 
ATOM     36  F   UNL     1     -12.324  13.315  63.173  0.00  0.00    -0.195 F 
ATOM     37  F   UNL     1     -10.222  12.992  63.814  0.00  0.00    -0.195 F 
BRANCH  35  38
ATOM     38  C   UNL     1     -11.573  14.660  64.885  0.00  0.00    +0.454 C 
ATOM     39  F   UNL     1     -11.968  14.645  66.193  0.00  0.00    -0.165 F 
ATOM     40  F   UNL     1     -10.296  15.201  64.788  0.00  0.00    -0.165 F 
ATOM     41  F   UNL     1     -12.378  15.448  64.076  0.00  0.00    -0.165 F 
ENDBRANCH  35  38
ENDBRANCH  34  35
ENDBRANCH  33  34
ENDBRANCH  32  33
ENDBRANCH  30  32
ENDBRANCH  29  30
ENDBRANCH  28  29
ENDBRANCH  27  28
ENDBRANCH  26  27
ENDBRANCH  25  26
ENDBRANCH  24  25
ENDBRANCH  23  24
ENDBRANCH  22  23
ENDBRANCH   1  22
TORSDOF 15
ENDMDL
MODEL 8
REMARK VINA RESULT:      -6.5      4.628      8.765
REMARK  Name = 
REMARK  15 active torsions:
REMARK  status: ('A' for Active; 'I' for Inactive)
REMARK    1  A    between atoms: C_14  and  C_15
REMARK    2  A    between atoms: C_15  and  C_16
REMARK    3  A    between atoms: C_16  and  C_17
REMARK    4  A    between atoms: C_17  and  C_18
REMARK    5  A    between atoms: C_18  and  C_19
REMARK    6  A    between atoms: C_19  and  C_20
REMARK    7  A    between atoms: C_20  and  C_21
REMARK    8  A    between atoms: C_21  and  C_22
REMARK    9  A    between atoms: C_22  and  C_23
REMARK   10  A    between atoms: C_23  and  S_24
REMARK   11  A    between atoms: S_24  and  C_26
REMARK   12  A    between atoms: C_26  and  C_27
REMARK   13  A    between atoms: C_27  and  C_28
REMARK   14  A    between atoms: C_28  and  C_29
REMARK   15  A    between atoms: C_29  and  C_32
REMARK                            x       y       z     vdW  Elec       q    Type
REMARK                         _______ _______ _______ _____ _____    ______ ____
ROOT
ATOM      1  C   UNL     1      -8.897  15.580  66.433  0.00  0.00    +0.000 C 
ENDROOT
BRANCH   1  20
ATOM      2  C   UNL     1     -12.209  12.293  65.711  0.00  0.00    +0.003 C 
ATOM      3  C   UNL     1     -10.888  12.546  65.520  0.00  0.00    +0.028 C 
ATOM      4  C   UNL     1     -10.538  12.659  63.916  0.00  0.00    +0.152 C 
ATOM      5  O   UNL     1     -11.155  11.298  63.614  0.00  0.00    -0.223 OA
ATOM      6  C   UNL     1     -11.973  13.444  63.672  0.00  0.00    +0.033 C 
ATOM      7  C   UNL     1     -11.970  14.418  64.847  0.00  0.00    +0.003 C 
ATOM      8  C   UNL     1     -10.523  14.131  65.522  0.00  0.00    +0.003 C 
ATOM      9  C   UNL     1     -11.021  14.480  67.088  0.00  0.00    +0.004 C 
ATOM     10  C   UNL     1      -9.742  13.761  67.896  0.00  0.00    +0.022 C 
ATOM     11  C   UNL     1     -10.462  13.962  69.314  0.00  0.00    -0.026 A 
ATOM     12  C   UNL     1     -10.592  15.347  69.428  0.00  0.00    -0.023 A 
ATOM     13  C   UNL     1      -9.811  16.151  68.535  0.00  0.00    +0.026 C 
ATOM     14  C   UNL     1     -11.474  15.929  70.324  0.00  0.00    +0.037 A 
ATOM     15  C   UNL     1     -12.537  15.154  70.772  0.00  0.00    +0.195 A 
ATOM     16  O   UNL     1     -13.781  15.744  71.013  0.00  0.00    -0.287 OA
ATOM     17  C   UNL     1     -12.382  13.776  70.664  0.00  0.00    +0.042 A 
ATOM     18  C   UNL     1     -11.580  13.275  69.642  0.00  0.00    -0.001 A 
ATOM     19  C   UNL     1     -10.299  12.242  67.686  0.00  0.00    +0.004 C 
ATOM     20  C   UNL     1     -10.355  16.031  67.007  0.00  0.00    +0.005 C 
ATOM     21  C   UNL     1      -9.814  11.943  66.263  0.00  0.00    +0.003 C 
ENDBRANCH   1  20
BRANCH   1  22
ATOM     22  C   UNL     1      -7.829  16.453  66.931  0.00  0.00    +0.000 C 
BRANCH  22  23
ATOM     23  C   UNL     1      -6.555  15.712  67.314  0.00  0.00    +0.000 C 
BRANCH  23  24
ATOM     24  C   UNL     1      -6.105  16.061  68.689  0.00  0.00    +0.000 C 
BRANCH  24  25
ATOM     25  C   UNL     1      -4.885  16.839  68.848  0.00  0.00    +0.000 C 
BRANCH  25  26
ATOM     26  C   UNL     1      -4.319  17.591  67.723  0.00  0.00    +0.000 C 
BRANCH  26  27
ATOM     27  C   UNL     1      -3.226  18.558  68.035  0.00  0.00    +0.001 C 
BRANCH  27  28
ATOM     28  C   UNL     1      -3.183  18.692  69.553  0.00  0.00    +0.014 C 
BRANCH  28  29
ATOM     29  C   UNL     1      -3.375  20.166  69.822  0.00  0.00    +0.092 C 
BRANCH  29  30
ATOM     30  S   UNL     1      -4.253  20.404  71.419  0.00  0.00    +0.042 S 
ATOM     31  O   UNL     1      -4.322  21.957  71.474  0.00  0.00    -0.256 OA
BRANCH  30  32
ATOM     32  C   UNL     1      -5.986  20.000  70.955  0.00  0.00    +0.092 C 
BRANCH  32  33
ATOM     33  C   UNL     1      -6.233  20.396  69.522  0.00  0.00    +0.020 C 
BRANCH  33  34
ATOM     34  C   UNL     1      -7.286  19.589  68.836  0.00  0.00    +0.077 C 
BRANCH  34  35
ATOM     35  C   UNL     1      -7.688  20.121  67.488  0.00  0.00    +0.349 C 
ATOM     36  F   UNL     1      -7.126  19.393  66.452  0.00  0.00    -0.195 F 
ATOM     37  F   UNL     1      -7.281  21.418  67.352  0.00  0.00    -0.195 F 
BRANCH  35  38
ATOM     38  C   UNL     1      -9.183  19.956  67.321  0.00  0.00    +0.454 C 
ATOM     39  F   UNL     1      -9.530  19.234  66.215  0.00  0.00    -0.165 F 
ATOM     40  F   UNL     1      -9.613  19.294  68.465  0.00  0.00    -0.165 F 
ATOM     41  F   UNL     1      -9.772  21.210  67.368  0.00  0.00    -0.165 F 
ENDBRANCH  35  38
ENDBRANCH  34  35
ENDBRANCH  33  34
ENDBRANCH  32  33
ENDBRANCH  30  32
ENDBRANCH  29  30
ENDBRANCH  28  29
ENDBRANCH  27  28
ENDBRANCH  26  27
ENDBRANCH  25  26
ENDBRANCH  24  25
ENDBRANCH  23  24
ENDBRANCH  22  23
ENDBRANCH   1  22
TORSDOF 15
ENDMDL
MODEL 9
REMARK VINA RESULT:      -6.5      3.145      7.186
REMARK  Name = 
REMARK  15 active torsions:
REMARK  status: ('A' for Active; 'I' for Inactive)
REMARK    1  A    between atoms: C_14  and  C_15
REMARK    2  A    between atoms: C_15  and  C_16
REMARK    3  A    between atoms: C_16  and  C_17
REMARK    4  A    between atoms: C_17  and  C_18
REMARK    5  A    between atoms: C_18  and  C_19
REMARK    6  A    between atoms: C_19  and  C_20
REMARK    7  A    between atoms: C_20  and  C_21
REMARK    8  A    between atoms: C_21  and  C_22
REMARK    9  A    between atoms: C_22  and  C_23
REMARK   10  A    between atoms: C_23  and  S_24
REMARK   11  A    between atoms: S_24  and  C_26
REMARK   12  A    between atoms: C_26  and  C_27
REMARK   13  A    between atoms: C_27  and  C_28
REMARK   14  A    between atoms: C_28  and  C_29
REMARK   15  A    between atoms: C_29  and  C_32
REMARK                            x       y       z     vdW  Elec       q    Type
REMARK                         _______ _______ _______ _____ _____    ______ ____
ROOT
ATOM      1  C   UNL     1      -8.419  13.375  67.186  0.00  0.00    +0.000 C 
ENDROOT
BRANCH   1  20
ATOM      2  C   UNL     1     -12.397  12.074  65.001  0.00  0.00    +0.003 C 
ATOM      3  C   UNL     1     -11.246  12.768  64.810  0.00  0.00    +0.028 C 
ATOM      4  C   UNL     1     -11.556  14.370  64.592  0.00  0.00    +0.152 C 
ATOM      5  O   UNL     1     -12.536  14.097  63.456  0.00  0.00    -0.223 OA
ATOM      6  C   UNL     1     -12.746  14.282  65.736  0.00  0.00    +0.033 C 
ATOM      7  C   UNL     1     -12.047  13.457  66.813  0.00  0.00    +0.003 C 
ATOM      8  C   UNL     1     -10.559  13.280  66.192  0.00  0.00    +0.003 C 
ATOM      9  C   UNL     1     -10.290  11.774  66.887  0.00  0.00    +0.004 C 
ATOM     10  C   UNL     1      -8.995  11.313  65.929  0.00  0.00    +0.022 C 
ATOM     11  C   UNL     1      -9.016   9.828  66.532  0.00  0.00    -0.026 A 
ATOM     12  C   UNL     1      -8.769  10.017  67.892  0.00  0.00    -0.023 A 
ATOM     13  C   UNL     1      -8.253  11.293  68.290  0.00  0.00    +0.026 C 
ATOM     14  C   UNL     1      -9.057   9.040  68.832  0.00  0.00    +0.037 A 
ATOM     15  C   UNL     1      -9.995   8.076  68.487  0.00  0.00    +0.195 A 
ATOM     16  O   UNL     1     -10.866   7.568  69.456  0.00  0.00    -0.287 OA
ATOM     17  C   UNL     1     -10.217   7.892  67.126  0.00  0.00    +0.042 A 
ATOM     18  C   UNL     1     -10.032   8.974  66.270  0.00  0.00    -0.001 A 
ATOM     19  C   UNL     1      -9.921  10.940  64.639  0.00  0.00    +0.004 C 
ATOM     20  C   UNL     1      -9.377  12.458  68.135  0.00  0.00    +0.005 C 
ATOM     21  C   UNL     1     -10.132  12.323  64.015  0.00  0.00    +0.003 C 
ENDBRANCH   1  20
BRANCH   1  22
ATOM     22  C   UNL     1      -7.240  13.853  67.915  0.00  0.00    +0.000 C 
BRANCH  22  23
ATOM     23  C   UNL     1      -7.570  14.743  69.105  0.00  0.00    +0.000 C 
BRANCH  23  24
ATOM     24  C   UNL     1      -6.361  15.438  69.627  0.00  0.00    +0.000 C 
BRANCH  24  25
ATOM     25  C   UNL     1      -6.274  16.884  69.492  0.00  0.00    +0.000 C 
BRANCH  25  26
ATOM     26  C   UNL     1      -6.306  17.522  68.171  0.00  0.00    +0.000 C 
BRANCH  26  27
ATOM     27  C   UNL     1      -7.606  18.105  67.731  0.00  0.00    +0.001 C 
BRANCH  27  28
ATOM     28  C   UNL     1      -7.972  17.415  66.421  0.00  0.00    +0.014 C 
BRANCH  28  29
ATOM     29  C   UNL     1      -9.397  16.952  66.606  0.00  0.00    +0.092 C 
BRANCH  29  30
ATOM     30  S   UNL     1     -10.096  17.669  68.148  0.00  0.00    +0.042 S 
ATOM     31  O   UNL     1     -11.001  18.786  67.553  0.00  0.00    -0.256 OA
BRANCH  30  32
ATOM     32  C   UNL     1     -11.358  16.412  68.604  0.00  0.00    +0.092 C 
BRANCH  32  33
ATOM     33  C   UNL     1     -10.934  15.700  69.862  0.00  0.00    +0.020 C 
BRANCH  33  34
ATOM     34  C   UNL     1     -11.721  16.076  71.075  0.00  0.00    +0.077 C 
BRANCH  34  35
ATOM     35  C   UNL     1     -12.206  14.903  71.881  0.00  0.00    +0.349 C 
ATOM     36  F   UNL     1     -11.593  14.835  73.121  0.00  0.00    -0.195 F 
ATOM     37  F   UNL     1     -11.941  13.736  71.222  0.00  0.00    -0.195 F 
BRANCH  35  38
ATOM     38  C   UNL     1     -13.678  15.087  72.178  0.00  0.00    +0.454 C 
ATOM     39  F   UNL     1     -13.954  16.231  72.872  0.00  0.00    -0.165 F 
ATOM     40  F   UNL     1     -14.305  15.129  70.938  0.00  0.00    -0.165 F 
ATOM     41  F   UNL     1     -14.149  13.940  72.799  0.00  0.00    -0.165 F 
ENDBRANCH  35  38
ENDBRANCH  34  35
ENDBRANCH  33  34
ENDBRANCH  32  33
ENDBRANCH  30  32
ENDBRANCH  29  30
ENDBRANCH  28  29
ENDBRANCH  27  28
ENDBRANCH  26  27
ENDBRANCH  25  26
ENDBRANCH  24  25
ENDBRANCH  23  24
ENDBRANCH  22  23
ENDBRANCH   1  22
TORSDOF 15
ENDMDL
