MODEL 1
REMARK VINA RESULT:      -8.2      0.000      0.000
REMARK  Name = 
REMARK  12 active torsions:
REMARK  status: ('A' for Active; 'I' for Inactive)
REMARK    1  A    between atoms: C_2  and  C_3
REMARK    2  A    between atoms: C_3  and  C_4
REMARK    3  A    between atoms: C_4  and  C_5
REMARK    4  A    between atoms: C_5  and  O_7
REMARK    5  A    between atoms: O_7  and  C_8
REMARK    6  A    between atoms: C_8  and  C_9
REMARK    7  A    between atoms: C_9  and  C_11
REMARK    8  A    between atoms: C_22  and  O_23
REMARK    9  A    between atoms: O_23  and  C_24
REMARK   10  A    between atoms: C_26  and  N_27
REMARK   11  A    between atoms: C_28  and  C_30
REMARK   12  A    between atoms: C_43  and  O_44
REMARK                            x       y       z     vdW  Elec       q    Type
REMARK                         _______ _______ _______ _____ _____    ______ ____
ROOT
ATOM      1  C   UNL     1     -10.583  15.527  66.111  0.00  0.00    +0.188 C 
ATOM      2  C   UNL     1      -9.358  14.827  65.852  0.00  0.00    +0.072 C 
ATOM      3  C   UNL     1      -8.588  14.359  67.241  0.00  0.00    +0.146 C 
ATOM      4  C   UNL     1      -8.675  15.843  67.937  0.00  0.00    +0.043 A 
ATOM      5  C   UNL     1      -8.994  16.888  67.120  0.00  0.00    +0.021 A 
ATOM      6  C   UNL     1      -8.278  18.039  66.938  0.00  0.00    +0.195 A 
ATOM      7  C   UNL     1      -7.005  18.082  67.428  0.00  0.00    +0.084 A 
ATOM      8  C   UNL     1      -6.008  18.995  66.878  0.00  0.00    +0.199 C 
ATOM      9  O   UNL     1      -6.318  19.800  65.979  0.00  0.00    -0.286 OA
ATOM     10  C   UNL     1      -4.778  19.216  67.627  0.00  0.00    +0.045 A 
ATOM     11  C   UNL     1      -4.623  18.617  68.873  0.00  0.00    +0.076 A 
ATOM     12  C   UNL     1      -3.824  19.191  69.859  0.00  0.00    +0.142 A 
ATOM     13  C   UNL     1      -3.044  20.272  69.492  0.00  0.00    +0.037 A 
ATOM     14  C   UNL     1      -2.926  20.652  68.183  0.00  0.00    +0.003 A 
ATOM     15  C   UNL     1      -5.477  17.467  69.193  0.00  0.00    +0.202 C 
ATOM     16  O   UNL     1      -5.344  16.927  70.311  0.00  0.00    -0.286 OA
ATOM     17  C   UNL     1      -3.795  20.098  67.252  0.00  0.00    +0.003 A 
ATOM     18  C   UNL     1      -6.689  17.192  68.424  0.00  0.00    +0.084 A 
ATOM     19  O   UNL     1      -8.759  19.159  66.252  0.00  0.00    -0.287 OA
ATOM     20  C   UNL     1      -7.489  16.092  68.632  0.00  0.00    +0.197 A 
ATOM     21  O   UNL     1      -7.019  15.181  69.541  0.00  0.00    -0.287 OA
ATOM     22  C   UNL     1     -10.377  16.977  66.547  0.00  0.00    +0.067 C 
ATOM     23  O   UNL     1     -11.547  15.087  66.966  0.00  0.00    -0.218 OA
ENDROOT
BRANCH   1  24
ATOM     24  C   UNL     1     -11.294  15.620  64.790  0.00  0.00    +0.222 C 
ATOM     25  O   UNL     1     -11.291  16.703  64.203  0.00  0.00    -0.290 OA
BRANCH  24  26
ATOM     26  C   UNL     1     -12.569  14.863  64.527  0.00  0.00    +0.275 C 
BRANCH  26  27
ATOM     27  O   UNL     1     -12.370  14.094  63.342  0.00  0.00    -0.440 OA
BRANCH  27  28
ATOM     28  C   UNL     1     -12.052  12.734  63.406  0.00  0.00    +0.317 C 
ATOM     29  O   UNL     1     -12.986  11.918  63.527  0.00  0.00    -0.250 OA
BRANCH  28  30
ATOM     30  C   UNL     1     -10.645  12.266  63.519  0.00  0.00    +0.110 C 
BRANCH  30  31
ATOM     31  C   UNL     1     -10.560  10.851  64.070  0.00  0.00    +0.012 C 
BRANCH  31  33
ATOM     32  C   UNL     1      -8.855  10.999  62.340  0.00  0.00    +0.000 C 
ATOM     33  C   UNL     1      -9.547  10.064  63.252  0.00  0.00    +0.001 C 
ENDBRANCH  31  33
ENDBRANCH  30  31
ENDBRANCH  28  30
ENDBRANCH  27  28
ENDBRANCH  26  27
ENDBRANCH  24  26
ENDBRANCH   1  24
BRANCH  12  34
ATOM     34  O   UNL     1      -4.235  19.042  71.190  0.00  0.00    -0.471 OA
ATOM     35  C   UNL     1      -4.931  20.161  71.735  0.00  0.00    +0.252 C 
ENDBRANCH  12  34
BRANCH   3  36
ATOM     36  O   UNL     1      -9.895  13.800  67.782  0.00  0.00    -0.328 OA
BRANCH  36  37
ATOM     37  C   UNL     1      -9.773  12.305  67.472  0.00  0.00    +0.237 C 
ATOM     38  O   UNL     1      -8.260  12.344  67.793  0.00  0.00    -0.330 OA
ATOM     39  C   UNL     1      -8.171  11.457  69.010  0.00  0.00    +0.150 C 
ATOM     40  C   UNL     1      -6.572  11.146  68.796  0.00  0.00    +0.035 C 
ATOM     41  C   UNL     1      -8.573   9.965  68.243  0.00  0.00    +0.199 C 
ATOM     42  O   UNL     1      -8.445  10.395  66.814  0.00  0.00    -0.219 OA
ATOM     43  C   UNL     1     -10.269  10.232  68.346  0.00  0.00    +0.133 C 
ATOM     44  C   UNL     1     -10.206  11.739  69.000  0.00  0.00    +0.086 C 
BRANCH  43  45
ATOM     45  N   UNL     1     -10.306   9.447  69.706  0.00  0.00    -0.197 NA
ATOM     46  C   UNL     1     -11.515   9.702  70.434  0.00  0.00    +0.337 C 
ATOM     47  O   UNL     1     -12.469  10.280  69.828  0.00  0.00    -0.264 OA
BRANCH  46  48
ATOM     48  C   UNL     1     -11.943   8.938  71.637  0.00  0.00    +0.471 C 
ATOM     49  F   UNL     1     -10.875   8.603  72.430  0.00  0.00    -0.162 F 
ATOM     50  F   UNL     1     -12.493   7.738  71.191  0.00  0.00    -0.162 F 
ATOM     51  F   UNL     1     -12.905   9.680  72.305  0.00  0.00    -0.162 F 
ENDBRANCH  46  48
ENDBRANCH  43  45
ENDBRANCH  36  37
ENDBRANCH   3  36
TORSDOF 12
ENDMDL
MODEL 2
REMARK VINA RESULT:      -8.0      4.399      9.330
REMARK  Name = 
REMARK  12 active torsions:
REMARK  status: ('A' for Active; 'I' for Inactive)
REMARK    1  A    between atoms: C_2  and  C_3
REMARK    2  A    between atoms: C_3  and  C_4
REMARK    3  A    between atoms: C_4  and  C_5
REMARK    4  A    between atoms: C_5  and  O_7
REMARK    5  A    between atoms: O_7  and  C_8
REMARK    6  A    between atoms: C_8  and  C_9
REMARK    7  A    between atoms: C_9  and  C_11
REMARK    8  A    between atoms: C_22  and  O_23
REMARK    9  A    between atoms: O_23  and  C_24
REMARK   10  A    between atoms: C_26  and  N_27
REMARK   11  A    between atoms: C_28  and  C_30
REMARK   12  A    between atoms: C_43  and  O_44
REMARK                            x       y       z     vdW  Elec       q    Type
REMARK                         _______ _______ _______ _____ _____    ______ ____
ROOT
ATOM      1  C   UNL     1      -9.193  15.296  67.265  0.00  0.00    +0.188 C 
ATOM      2  C   UNL     1      -8.770  15.117  68.624  0.00  0.00    +0.072 C 
ATOM      3  C   UNL     1      -7.486  14.080  68.758  0.00  0.00    +0.146 C 
ATOM      4  C   UNL     1      -8.181  12.906  67.843  0.00  0.00    +0.043 A 
ATOM      5  C   UNL     1      -9.518  13.022  67.606  0.00  0.00    +0.021 A 
ATOM      6  C   UNL     1     -10.486  12.092  67.871  0.00  0.00    +0.195 A 
ATOM      7  C   UNL     1     -10.148  11.030  68.658  0.00  0.00    +0.084 A 
ATOM      8  C   UNL     1     -11.158  10.288  69.408  0.00  0.00    +0.199 C 
ATOM      9  O   UNL     1     -12.364  10.578  69.299  0.00  0.00    -0.286 OA
ATOM     10  C   UNL     1     -10.793   8.997  69.976  0.00  0.00    +0.045 A 
ATOM     11  C   UNL     1      -9.528   8.475  69.725  0.00  0.00    +0.076 A 
ATOM     12  C   UNL     1      -9.300   7.101  69.710  0.00  0.00    +0.142 A 
ATOM     13  C   UNL     1     -10.329   6.284  70.139  0.00  0.00    +0.037 A 
ATOM     14  C   UNL     1     -11.456   6.803  70.718  0.00  0.00    +0.003 A 
ATOM     15  C   UNL     1      -8.479   9.401  69.283  0.00  0.00    +0.202 C 
ATOM     16  O   UNL     1      -7.343   8.938  69.052  0.00  0.00    -0.286 OA
ATOM     17  C   UNL     1     -11.666   8.174  70.643  0.00  0.00    +0.003 A 
ATOM     18  C   UNL     1      -8.814  10.723  68.756  0.00  0.00    +0.084 A 
ATOM     19  O   UNL     1     -11.804  12.183  67.414  0.00  0.00    -0.287 OA
ATOM     20  C   UNL     1      -7.874  11.658  68.392  0.00  0.00    +0.197 A 
ATOM     21  O   UNL     1      -6.572  11.326  68.664  0.00  0.00    -0.287 OA
ATOM     22  C   UNL     1     -10.015  14.128  66.723  0.00  0.00    +0.067 C 
ATOM     23  O   UNL     1      -8.349  15.579  66.234  0.00  0.00    -0.218 OA
ENDROOT
BRANCH   1  24
ATOM     24  C   UNL     1     -10.143  16.461  67.276  0.00  0.00    +0.222 C 
ATOM     25  O   UNL     1     -10.059  17.289  66.368  0.00  0.00    -0.290 OA
BRANCH  24  26
ATOM     26  C   UNL     1     -10.578  17.109  68.564  0.00  0.00    +0.275 C 
BRANCH  26  27
ATOM     27  O   UNL     1     -11.866  16.588  68.889  0.00  0.00    -0.440 OA
BRANCH  27  28
ATOM     28  C   UNL     1     -12.023  15.610  69.875  0.00  0.00    +0.317 C 
ATOM     29  O   UNL     1     -12.372  14.467  69.518  0.00  0.00    -0.250 OA
BRANCH  28  30
ATOM     30  C   UNL     1     -11.969  15.944  71.324  0.00  0.00    +0.110 C 
BRANCH  30  31
ATOM     31  C   UNL     1     -13.290  15.664  72.020  0.00  0.00    +0.012 C 
BRANCH  31  33
ATOM     32  C   UNL     1     -13.687  13.290  72.375  0.00  0.00    +0.000 C 
ATOM     33  C   UNL     1     -13.102  14.502  72.984  0.00  0.00    +0.001 C 
ENDBRANCH  31  33
ENDBRANCH  30  31
ENDBRANCH  28  30
ENDBRANCH  27  28
ENDBRANCH  26  27
ENDBRANCH  24  26
ENDBRANCH   1  24
BRANCH  12  34
ATOM     34  O   UNL     1      -8.350   6.615  68.803  0.00  0.00    -0.471 OA
ATOM     35  C   UNL     1      -8.890   6.024  67.623  0.00  0.00    +0.252 C 
ENDBRANCH  12  34
BRANCH   3  36
ATOM     36  O   UNL     1      -6.768  14.817  67.638  0.00  0.00    -0.328 OA
BRANCH  36  37
ATOM     37  C   UNL     1      -5.461  15.252  68.308  0.00  0.00    +0.237 C 
ATOM     38  O   UNL     1      -4.854  15.611  66.931  0.00  0.00    -0.330 OA
ATOM     39  C   UNL     1      -4.674  17.104  67.044  0.00  0.00    +0.150 C 
ATOM     40  C   UNL     1      -3.532  17.161  65.864  0.00  0.00    +0.035 C 
ATOM     41  C   UNL     1      -3.441  17.101  68.250  0.00  0.00    +0.199 C 
ATOM     42  O   UNL     1      -3.078  15.649  68.211  0.00  0.00    -0.219 OA
ATOM     43  C   UNL     1      -4.552  16.962  69.555  0.00  0.00    +0.133 C 
ATOM     44  C   UNL     1      -5.922  16.836  68.654  0.00  0.00    +0.086 C 
BRANCH  43  45
ATOM     45  N   UNL     1      -4.574  18.526  69.699  0.00  0.00    -0.197 NA
ATOM     46  C   UNL     1      -5.086  18.935  70.975  0.00  0.00    +0.337 C 
ATOM     47  O   UNL     1      -5.207  18.056  71.882  0.00  0.00    -0.264 OA
BRANCH  46  48
ATOM     48  C   UNL     1      -5.020  20.328  71.494  0.00  0.00    +0.471 C 
ATOM     49  F   UNL     1      -4.863  21.238  70.481  0.00  0.00    -0.162 F 
ATOM     50  F   UNL     1      -3.877  20.421  72.286  0.00  0.00    -0.162 F 
ATOM     51  F   UNL     1      -6.149  20.560  72.264  0.00  0.00    -0.162 F 
ENDBRANCH  46  48
ENDBRANCH  43  45
ENDBRANCH  36  37
ENDBRANCH   3  36
TORSDOF 12
ENDMDL
MODEL 3
REMARK VINA RESULT:      -8.0      4.459      9.394
REMARK  Name = 
REMARK  12 active torsions:
REMARK  status: ('A' for Active; 'I' for Inactive)
REMARK    1  A    between atoms: C_2  and  C_3
REMARK    2  A    between atoms: C_3  and  C_4
REMARK    3  A    between atoms: C_4  and  C_5
REMARK    4  A    between atoms: C_5  and  O_7
REMARK    5  A    between atoms: O_7  and  C_8
REMARK    6  A    between atoms: C_8  and  C_9
REMARK    7  A    between atoms: C_9  and  C_11
REMARK    8  A    between atoms: C_22  and  O_23
REMARK    9  A    between atoms: O_23  and  C_24
REMARK   10  A    between atoms: C_26  and  N_27
REMARK   11  A    between atoms: C_28  and  C_30
REMARK   12  A    between atoms: C_43  and  O_44
REMARK                            x       y       z     vdW  Elec       q    Type
REMARK                         _______ _______ _______ _____ _____    ______ ____
ROOT
ATOM      1  C   UNL     1     -10.249  15.146  68.080  0.00  0.00    +0.188 C 
ATOM      2  C   UNL     1      -9.233  14.792  69.028  0.00  0.00    +0.072 C 
ATOM      3  C   UNL     1      -7.859  14.220  68.302  0.00  0.00    +0.146 C 
ATOM      4  C   UNL     1      -8.659  13.140  67.358  0.00  0.00    +0.043 A 
ATOM      5  C   UNL     1      -9.955  12.875  67.690  0.00  0.00    +0.021 A 
ATOM      6  C   UNL     1     -10.505  11.650  67.947  0.00  0.00    +0.195 A 
ATOM      7  C   UNL     1      -9.657  10.595  68.124  0.00  0.00    +0.084 A 
ATOM      8  C   UNL     1     -10.061   9.413  68.880  0.00  0.00    +0.199 C 
ATOM      9  O   UNL     1     -11.216   9.320  69.334  0.00  0.00    -0.286 OA
ATOM     10  C   UNL     1      -9.244   8.211  68.777  0.00  0.00    +0.045 A 
ATOM     11  C   UNL     1      -8.158   8.196  67.909  0.00  0.00    +0.076 A 
ATOM     12  C   UNL     1      -7.709   7.014  67.326  0.00  0.00    +0.142 A 
ATOM     13  C   UNL     1      -8.261   5.833  67.787  0.00  0.00    +0.037 A 
ATOM     14  C   UNL     1      -9.078   5.809  68.885  0.00  0.00    +0.003 A 
ATOM     15  C   UNL     1      -7.615   9.487  67.468  0.00  0.00    +0.202 C 
ATOM     16  O   UNL     1      -6.642   9.481  66.686  0.00  0.00    -0.286 OA
ATOM     17  C   UNL     1      -9.551   7.017  69.382  0.00  0.00    +0.003 A 
ATOM     18  C   UNL     1      -8.392  10.718  67.606  0.00  0.00    +0.084 A 
ATOM     19  O   UNL     1     -11.879  11.421  68.074  0.00  0.00    -0.287 OA
ATOM     20  C   UNL     1      -7.911  11.963  67.275  0.00  0.00    +0.197 A 
ATOM     21  O   UNL     1      -6.590  12.010  66.910  0.00  0.00    -0.287 OA
ATOM     22  C   UNL     1     -10.993  13.942  67.505  0.00  0.00    +0.067 C 
ATOM     23  O   UNL     1     -10.032  15.921  66.982  0.00  0.00    -0.218 OA
ENDROOT
BRANCH   1  24
ATOM     24  C   UNL     1     -11.289  15.907  68.852  0.00  0.00    +0.222 C 
ATOM     25  O   UNL     1     -11.405  17.115  68.638  0.00  0.00    -0.290 OA
BRANCH  24  26
ATOM     26  C   UNL     1     -11.602  15.577  70.288  0.00  0.00    +0.275 C 
BRANCH  26  27
ATOM     27  O   UNL     1     -12.968  15.917  70.515  0.00  0.00    -0.440 OA
BRANCH  27  28
ATOM     28  C   UNL     1     -13.688  15.354  71.573  0.00  0.00    +0.317 C 
ATOM     29  O   UNL     1     -14.816  15.818  71.828  0.00  0.00    -0.250 OA
BRANCH  28  30
ATOM     30  C   UNL     1     -13.072  14.365  72.498  0.00  0.00    +0.110 C 
BRANCH  30  31
ATOM     31  C   UNL     1     -13.688  12.984  72.343  0.00  0.00    +0.012 C 
BRANCH  31  33
ATOM     32  C   UNL     1     -13.062  10.731  71.668  0.00  0.00    +0.000 C 
ATOM     33  C   UNL     1     -12.825  12.164  71.395  0.00  0.00    +0.001 C 
ENDBRANCH  31  33
ENDBRANCH  30  31
ENDBRANCH  28  30
ENDBRANCH  27  28
ENDBRANCH  26  27
ENDBRANCH  24  26
ENDBRANCH   1  24
BRANCH  12  34
ATOM     34  O   UNL     1      -7.200   7.089  66.024  0.00  0.00    -0.471 OA
ATOM     35  C   UNL     1      -6.792   5.843  65.463  0.00  0.00    +0.252 C 
ENDBRANCH  12  34
BRANCH   3  36
ATOM     36  O   UNL     1      -7.876  15.393  67.334  0.00  0.00    -0.328 OA
BRANCH  36  37
ATOM     37  C   UNL     1      -6.450  15.940  67.447  0.00  0.00    +0.237 C 
ATOM     38  O   UNL     1      -6.614  16.694  66.106  0.00  0.00    -0.330 OA
ATOM     39  C   UNL     1      -6.529  18.136  66.540  0.00  0.00    +0.150 C 
ATOM     40  C   UNL     1      -6.106  18.670  65.045  0.00  0.00    +0.035 C 
ATOM     41  C   UNL     1      -4.872  18.139  67.020  0.00  0.00    +0.199 C 
ATOM     42  O   UNL     1      -4.452  16.833  66.420  0.00  0.00    -0.219 OA
ATOM     43  C   UNL     1      -5.201  17.506  68.585  0.00  0.00    +0.133 C 
ATOM     44  C   UNL     1      -6.819  17.289  68.389  0.00  0.00    +0.086 C 
BRANCH  43  45
ATOM     45  N   UNL     1      -5.283  18.968  69.155  0.00  0.00    -0.197 NA
ATOM     46  C   UNL     1      -5.247  18.982  70.589  0.00  0.00    +0.337 C 
ATOM     47  O   UNL     1      -4.910  17.916  71.190  0.00  0.00    -0.264 OA
BRANCH  46  48
ATOM     48  C   UNL     1      -5.080  20.213  71.408  0.00  0.00    +0.471 C 
ATOM     49  F   UNL     1      -6.179  20.451  72.192  0.00  0.00    -0.162 F 
ATOM     50  F   UNL     1      -4.986  21.287  70.526  0.00  0.00    -0.162 F 
ATOM     51  F   UNL     1      -3.907  20.094  72.137  0.00  0.00    -0.162 F 
ENDBRANCH  46  48
ENDBRANCH  43  45
ENDBRANCH  36  37
ENDBRANCH   3  36
TORSDOF 12
ENDMDL
MODEL 4
REMARK VINA RESULT:      -7.9      1.706      2.212
REMARK  Name = 
REMARK  12 active torsions:
REMARK  status: ('A' for Active; 'I' for Inactive)
REMARK    1  A    between atoms: C_2  and  C_3
REMARK    2  A    between atoms: C_3  and  C_4
REMARK    3  A    between atoms: C_4  and  C_5
REMARK    4  A    between atoms: C_5  and  O_7
REMARK    5  A    between atoms: O_7  and  C_8
REMARK    6  A    between atoms: C_8  and  C_9
REMARK    7  A    between atoms: C_9  and  C_11
REMARK    8  A    between atoms: C_22  and  O_23
REMARK    9  A    between atoms: O_23  and  C_24
REMARK   10  A    between atoms: C_26  and  N_27
REMARK   11  A    between atoms: C_28  and  C_30
REMARK   12  A    between atoms: C_43  and  O_44
REMARK                            x       y       z     vdW  Elec       q    Type
REMARK                         _______ _______ _______ _____ _____    ______ ____
ROOT
ATOM      1  C   UNL     1     -11.130  13.831  66.180  0.00  0.00    +0.188 C 
ATOM      2  C   UNL     1      -9.774  13.580  65.787  0.00  0.00    +0.072 C 
ATOM      3  C   UNL     1      -8.760  13.398  67.084  0.00  0.00    +0.146 C 
ATOM      4  C   UNL     1      -9.268  14.770  67.830  0.00  0.00    +0.043 A 
ATOM      5  C   UNL     1      -9.994  15.646  67.078  0.00  0.00    +0.021 A 
ATOM      6  C   UNL     1      -9.724  16.970  66.866  0.00  0.00    +0.195 A 
ATOM      7  C   UNL     1      -8.496  17.437  67.237  0.00  0.00    +0.084 A 
ATOM      8  C   UNL     1      -7.919  18.630  66.624  0.00  0.00    +0.199 C 
ATOM      9  O   UNL     1      -8.565  19.282  65.783  0.00  0.00    -0.286 OA
ATOM     10  C   UNL     1      -6.765  19.250  67.263  0.00  0.00    +0.045 A 
ATOM     11  C   UNL     1      -6.299  18.741  68.470  0.00  0.00    +0.076 A 
ATOM     12  C   UNL     1      -5.644  19.550  69.394  0.00  0.00    +0.142 A 
ATOM     13  C   UNL     1      -5.308  20.829  68.990  0.00  0.00    +0.037 A 
ATOM     14  C   UNL     1      -5.451  21.224  67.687  0.00  0.00    +0.003 A 
ATOM     15  C   UNL     1      -6.685  17.372  68.832  0.00  0.00    +0.202 C 
ATOM     16  O   UNL     1      -6.272  16.910  69.916  0.00  0.00    -0.286 OA
ATOM     17  C   UNL     1      -6.173  20.409  66.825  0.00  0.00    +0.003 A 
ATOM     18  C   UNL     1      -7.806  16.706  68.171  0.00  0.00    +0.084 A 
ATOM     19  O   UNL     1     -10.615  17.863  66.261  0.00  0.00    -0.287 OA
ATOM     20  C   UNL     1      -8.171  15.403  68.419  0.00  0.00    +0.197 A 
ATOM     21  O   UNL     1      -7.337  14.703  69.252  0.00  0.00    -0.287 OA
ATOM     22  C   UNL     1     -11.377  15.267  66.638  0.00  0.00    +0.067 C 
ATOM     23  O   UNL     1     -11.805  13.096  67.106  0.00  0.00    -0.218 OA
ENDROOT
BRANCH   1  24
ATOM     24  C   UNL     1     -11.958  13.678  64.934  0.00  0.00    +0.222 C 
ATOM     25  O   UNL     1     -12.805  14.538  64.690  0.00  0.00    -0.290 OA
BRANCH  24  26
ATOM     26  C   UNL     1     -12.399  12.325  64.443  0.00  0.00    +0.275 C 
BRANCH  26  27
ATOM     27  O   UNL     1     -11.565  11.980  63.338  0.00  0.00    -0.440 OA
BRANCH  27  28
ATOM     28  C   UNL     1     -10.493  11.095  63.488  0.00  0.00    +0.317 C 
ATOM     29  O   UNL     1     -10.482  10.352  64.489  0.00  0.00    -0.250 OA
BRANCH  28  30
ATOM     30  C   UNL     1      -9.302  11.152  62.599  0.00  0.00    +0.110 C 
BRANCH  30  31
ATOM     31  C   UNL     1      -8.885   9.771  62.119  0.00  0.00    +0.012 C 
BRANCH  31  33
ATOM     32  C   UNL     1      -7.119  11.214  61.270  0.00  0.00    +0.000 C 
ATOM     33  C   UNL     1      -7.807   9.924  61.056  0.00  0.00    +0.001 C 
ENDBRANCH  31  33
ENDBRANCH  30  31
ENDBRANCH  28  30
ENDBRANCH  27  28
ENDBRANCH  26  27
ENDBRANCH  24  26
ENDBRANCH   1  24
BRANCH  12  34
ATOM     34  O   UNL     1      -5.850  19.276  70.752  0.00  0.00    -0.471 OA
ATOM     35  C   UNL     1      -5.064  20.056  71.651  0.00  0.00    +0.252 C 
ENDBRANCH  12  34
BRANCH   3  36
ATOM     36  O   UNL     1      -9.748  12.437  67.726  0.00  0.00    -0.328 OA
BRANCH  36  37
ATOM     37  C   UNL     1      -9.087  11.075  67.494  0.00  0.00    +0.237 C 
ATOM     38  O   UNL     1      -7.827  11.536  68.265  0.00  0.00    -0.330 OA
ATOM     39  C   UNL     1      -7.836  10.622  69.464  0.00  0.00    +0.150 C 
ATOM     40  C   UNL     1      -6.232  10.817  69.758  0.00  0.00    +0.035 C 
ATOM     41  C   UNL     1      -7.513   9.143  68.636  0.00  0.00    +0.199 C 
ATOM     42  O   UNL     1      -7.103   9.703  67.309  0.00  0.00    -0.219 OA
ATOM     43  C   UNL     1      -9.159   8.885  68.208  0.00  0.00    +0.133 C 
ATOM     44  C   UNL     1      -9.759  10.287  68.824  0.00  0.00    +0.086 C 
BRANCH  43  45
ATOM     45  N   UNL     1      -9.357   8.020  69.503  0.00  0.00    -0.197 NA
ATOM     46  C   UNL     1     -10.461   7.114  69.374  0.00  0.00    +0.337 C 
ATOM     47  O   UNL     1     -10.957   6.934  68.220  0.00  0.00    -0.264 OA
BRANCH  46  48
ATOM     48  C   UNL     1     -10.758   6.015  70.333  0.00  0.00    +0.471 C 
ATOM     49  F   UNL     1     -12.017   6.131  70.861  0.00  0.00    -0.162 F 
ATOM     50  F   UNL     1      -9.870   6.146  71.399  0.00  0.00    -0.162 F 
ATOM     51  F   UNL     1     -10.546   4.806  69.688  0.00  0.00    -0.162 F 
ENDBRANCH  46  48
ENDBRANCH  43  45
ENDBRANCH  36  37
ENDBRANCH   3  36
TORSDOF 12
ENDMDL
MODEL 5
REMARK VINA RESULT:      -7.9      1.722      2.101
REMARK  Name = 
REMARK  12 active torsions:
REMARK  status: ('A' for Active; 'I' for Inactive)
REMARK    1  A    between atoms: C_2  and  C_3
REMARK    2  A    between atoms: C_3  and  C_4
REMARK    3  A    between atoms: C_4  and  C_5
REMARK    4  A    between atoms: C_5  and  O_7
REMARK    5  A    between atoms: O_7  and  C_8
REMARK    6  A    between atoms: C_8  and  C_9
REMARK    7  A    between atoms: C_9  and  C_11
REMARK    8  A    between atoms: C_22  and  O_23
REMARK    9  A    between atoms: O_23  and  C_24
REMARK   10  A    between atoms: C_26  and  N_27
REMARK   11  A    between atoms: C_28  and  C_30
REMARK   12  A    between atoms: C_43  and  O_44
REMARK                            x       y       z     vdW  Elec       q    Type
REMARK                         _______ _______ _______ _____ _____    ______ ____
ROOT
ATOM      1  C   UNL     1     -10.909  14.082  67.221  0.00  0.00    +0.188 C 
ATOM      2  C   UNL     1      -9.685  13.901  66.496  0.00  0.00    +0.072 C 
ATOM      3  C   UNL     1      -8.388  13.645  67.493  0.00  0.00    +0.146 C 
ATOM      4  C   UNL     1      -8.713  14.938  68.452  0.00  0.00    +0.043 A 
ATOM      5  C   UNL     1      -9.605  15.851  67.971  0.00  0.00    +0.021 A 
ATOM      6  C   UNL     1      -9.404  17.194  67.813  0.00  0.00    +0.195 A 
ATOM      7  C   UNL     1      -8.126  17.664  67.918  0.00  0.00    +0.084 A 
ATOM      8  C   UNL     1      -7.723  18.917  67.287  0.00  0.00    +0.199 C 
ATOM      9  O   UNL     1      -8.557  19.617  66.683  0.00  0.00    -0.286 OA
ATOM     10  C   UNL     1      -6.454  19.517  67.682  0.00  0.00    +0.045 A 
ATOM     11  C   UNL     1      -5.707  18.926  68.696  0.00  0.00    +0.076 A 
ATOM     12  C   UNL     1      -4.856  19.677  69.502  0.00  0.00    +0.142 A 
ATOM     13  C   UNL     1      -4.637  20.993  69.137  0.00  0.00    +0.037 A 
ATOM     14  C   UNL     1      -5.092  21.486  67.945  0.00  0.00    +0.003 A 
ATOM     15  C   UNL     1      -5.985  17.522  69.023  0.00  0.00    +0.202 C 
ATOM     16  O   UNL     1      -5.320  16.987  69.934  0.00  0.00    -0.286 OA
ATOM     17  C   UNL     1      -5.994  20.723  67.214  0.00  0.00    +0.003 A 
ATOM     18  C   UNL     1      -7.226  16.880  68.596  0.00  0.00    +0.084 A 
ATOM     19  O   UNL     1     -10.421  18.108  67.516  0.00  0.00    -0.287 OA
ATOM     20  C   UNL     1      -7.511  15.552  68.813  0.00  0.00    +0.197 A 
ATOM     21  O   UNL     1      -6.496  14.811  69.361  0.00  0.00    -0.287 OA
ATOM     22  C   UNL     1     -11.050  15.469  67.844  0.00  0.00    +0.067 C 
ATOM     23  O   UNL     1     -11.335  13.257  68.217  0.00  0.00    -0.218 OA
ENDROOT
BRANCH   1  24
ATOM     24  C   UNL     1     -12.010  14.006  66.201  0.00  0.00    +0.222 C 
ATOM     25  O   UNL     1     -12.794  13.057  66.259  0.00  0.00    -0.290 OA
BRANCH  24  26
ATOM     26  C   UNL     1     -11.796  14.446  64.777  0.00  0.00    +0.275 C 
BRANCH  26  27
ATOM     27  O   UNL     1     -12.651  13.656  63.953  0.00  0.00    -0.440 OA
BRANCH  27  28
ATOM     28  C   UNL     1     -12.212  12.447  63.405  0.00  0.00    +0.317 C 
ATOM     29  O   UNL     1     -13.072  11.632  63.017  0.00  0.00    -0.250 OA
BRANCH  28  30
ATOM     30  C   UNL     1     -10.781  12.043  63.447  0.00  0.00    +0.110 C 
BRANCH  30  31
ATOM     31  C   UNL     1     -10.533  10.941  64.465  0.00  0.00    +0.012 C 
BRANCH  31  33
ATOM     32  C   UNL     1      -9.390  10.084  62.495  0.00  0.00    +0.000 C 
ATOM     33  C   UNL     1      -9.390  10.064  63.972  0.00  0.00    +0.001 C 
ENDBRANCH  31  33
ENDBRANCH  30  31
ENDBRANCH  28  30
ENDBRANCH  27  28
ENDBRANCH  26  27
ENDBRANCH  24  26
ENDBRANCH   1  24
BRANCH  12  34
ATOM     34  O   UNL     1      -4.727  19.290  70.841  0.00  0.00    -0.471 OA
ATOM     35  C   UNL     1      -5.566  19.993  71.756  0.00  0.00    +0.252 C 
ENDBRANCH  12  34
BRANCH   3  36
ATOM     36  O   UNL     1      -9.185  12.608  68.270  0.00  0.00    -0.328 OA
BRANCH  36  37
ATOM     37  C   UNL     1      -8.529  11.292  67.839  0.00  0.00    +0.237 C 
ATOM     38  O   UNL     1      -7.345  11.547  68.801  0.00  0.00    -0.330 OA
ATOM     39  C   UNL     1      -7.492  10.419  69.792  0.00  0.00    +0.150 C 
ATOM     40  C   UNL     1      -5.922  10.492  70.269  0.00  0.00    +0.035 C 
ATOM     41  C   UNL     1      -7.116   9.118  68.724  0.00  0.00    +0.199 C 
ATOM     42  O   UNL     1      -6.564   9.908  67.577  0.00  0.00    -0.219 OA
ATOM     43  C   UNL     1      -8.714   9.010  68.099  0.00  0.00    +0.133 C 
ATOM     44  C   UNL     1      -9.347  10.288  68.918  0.00  0.00    +0.086 C 
BRANCH  43  45
ATOM     45  N   UNL     1      -9.058   7.919  69.175  0.00  0.00    -0.197 NA
ATOM     46  C   UNL     1     -10.260   7.209  68.847  0.00  0.00    +0.337 C 
ATOM     47  O   UNL     1     -10.736   7.345  67.678  0.00  0.00    -0.264 OA
BRANCH  46  48
ATOM     48  C   UNL     1     -10.719   5.976  69.542  0.00  0.00    +0.471 C 
ATOM     49  F   UNL     1     -12.007   6.100  69.994  0.00  0.00    -0.162 F 
ATOM     50  F   UNL     1      -9.919   5.817  70.672  0.00  0.00    -0.162 F 
ATOM     51  F   UNL     1     -10.544   4.901  68.684  0.00  0.00    -0.162 F 
ENDBRANCH  46  48
ENDBRANCH  43  45
ENDBRANCH  36  37
ENDBRANCH   3  36
TORSDOF 12
ENDMDL
MODEL 6
REMARK VINA RESULT:      -7.9      4.380      9.349
REMARK  Name = 
REMARK  12 active torsions:
REMARK  status: ('A' for Active; 'I' for Inactive)
REMARK    1  A    between atoms: C_2  and  C_3
REMARK    2  A    between atoms: C_3  and  C_4
REMARK    3  A    between atoms: C_4  and  C_5
REMARK    4  A    between atoms: C_5  and  O_7
REMARK    5  A    between atoms: O_7  and  C_8
REMARK    6  A    between atoms: C_8  and  C_9
REMARK    7  A    between atoms: C_9  and  C_11
REMARK    8  A    between atoms: C_22  and  O_23
REMARK    9  A    between atoms: O_23  and  C_24
REMARK   10  A    between atoms: C_26  and  N_27
REMARK   11  A    between atoms: C_28  and  C_30
REMARK   12  A    between atoms: C_43  and  O_44
REMARK                            x       y       z     vdW  Elec       q    Type
REMARK                         _______ _______ _______ _____ _____    ______ ____
ROOT
ATOM      1  C   UNL     1      -9.305  15.959  66.720  0.00  0.00    +0.188 C 
ATOM      2  C   UNL     1      -9.026  15.909  68.126  0.00  0.00    +0.072 C 
ATOM      3  C   UNL     1      -7.676  15.015  68.474  0.00  0.00    +0.146 C 
ATOM      4  C   UNL     1      -8.149  13.723  67.578  0.00  0.00    +0.043 A 
ATOM      5  C   UNL     1      -9.456  13.690  67.189  0.00  0.00    +0.021 A 
ATOM      6  C   UNL     1     -10.357  12.686  67.415  0.00  0.00    +0.195 A 
ATOM      7  C   UNL     1     -10.015  11.714  68.310  0.00  0.00    +0.084 A 
ATOM      8  C   UNL     1     -11.031  10.923  68.999  0.00  0.00    +0.199 C 
ATOM      9  O   UNL     1     -12.239  11.083  68.739  0.00  0.00    -0.286 OA
ATOM     10  C   UNL     1     -10.616   9.713  69.696  0.00  0.00    +0.045 A 
ATOM     11  C   UNL     1      -9.288   9.305  69.621  0.00  0.00    +0.076 A 
ATOM     12  C   UNL     1      -8.934   7.963  69.732  0.00  0.00    +0.142 A 
ATOM     13  C   UNL     1      -9.925   7.075  70.105  0.00  0.00    +0.037 A 
ATOM     14  C   UNL     1     -11.154   7.514  70.520  0.00  0.00    +0.003 A 
ATOM     15  C   UNL     1      -8.285  10.302  69.229  0.00  0.00    +0.202 C 
ATOM     16  O   UNL     1      -7.092   9.942  69.157  0.00  0.00    -0.286 OA
ATOM     17  C   UNL     1     -11.480   8.850  70.323  0.00  0.00    +0.003 A 
ATOM     18  C   UNL     1      -8.678  11.549  68.574  0.00  0.00    +0.084 A 
ATOM     19  O   UNL     1     -11.617  12.616  66.813  0.00  0.00    -0.287 OA
ATOM     20  C   UNL     1      -7.793  12.549  68.246  0.00  0.00    +0.197 A 
ATOM     21  O   UNL     1      -6.506  12.366  68.680  0.00  0.00    -0.287 OA
ATOM     22  C   UNL     1      -9.948  14.683  66.179  0.00  0.00    +0.067 C 
ATOM     23  O   UNL     1      -8.379  16.260  65.769  0.00  0.00    -0.218 OA
ENDROOT
BRANCH   1  24
ATOM     24  C   UNL     1     -10.353  17.022  66.544  0.00  0.00    +0.222 C 
ATOM     25  O   UNL     1     -10.498  17.516  65.425  0.00  0.00    -0.290 OA
BRANCH  24  26
ATOM     26  C   UNL     1     -10.643  18.029  67.625  0.00  0.00    +0.275 C 
BRANCH  26  27
ATOM     27  O   UNL     1      -9.997  19.247  67.256  0.00  0.00    -0.440 OA
BRANCH  27  28
ATOM     28  C   UNL     1      -8.727  19.569  67.746  0.00  0.00    +0.317 C 
ATOM     29  O   UNL     1      -8.555  19.559  68.980  0.00  0.00    -0.250 OA
BRANCH  28  30
ATOM     30  C   UNL     1      -7.657  20.096  66.856  0.00  0.00    +0.110 C 
BRANCH  30  31
ATOM     31  C   UNL     1      -6.649  20.940  67.620  0.00  0.00    +0.012 C 
BRANCH  31  33
ATOM     32  C   UNL     1      -5.831  20.820  65.331  0.00  0.00    +0.000 C 
ATOM     33  C   UNL     1      -5.490  21.279  66.694  0.00  0.00    +0.001 C 
ENDBRANCH  31  33
ENDBRANCH  30  31
ENDBRANCH  28  30
ENDBRANCH  27  28
ENDBRANCH  26  27
ENDBRANCH  24  26
ENDBRANCH   1  24
BRANCH  12  34
ATOM     34  O   UNL     1      -7.845   7.519  68.971  0.00  0.00    -0.471 OA
ATOM     35  C   UNL     1      -8.099   6.366  68.170  0.00  0.00    +0.252 C 
ENDBRANCH  12  34
BRANCH   3  36
ATOM     36  O   UNL     1      -6.905  15.749  67.387  0.00  0.00    -0.328 OA
BRANCH  36  37
ATOM     37  C   UNL     1      -5.520  15.920  68.017  0.00  0.00    +0.237 C 
ATOM     38  O   UNL     1      -4.915  16.269  66.637  0.00  0.00    -0.330 OA
ATOM     39  C   UNL     1      -4.488  17.702  66.830  0.00  0.00    +0.150 C 
ATOM     40  C   UNL     1      -3.398  17.654  65.602  0.00  0.00    +0.035 C 
ATOM     41  C   UNL     1      -3.226  17.419  67.972  0.00  0.00    +0.199 C 
ATOM     42  O   UNL     1      -3.109  15.933  67.828  0.00  0.00    -0.219 OA
ATOM     43  C   UNL     1      -4.294  17.372  69.319  0.00  0.00    +0.133 C 
ATOM     44  C   UNL     1      -5.699  17.531  68.480  0.00  0.00    +0.086 C 
BRANCH  43  45
ATOM     45  N   UNL     1      -4.054  18.906  69.559  0.00  0.00    -0.197 NA
ATOM     46  C   UNL     1      -4.572  19.335  70.826  0.00  0.00    +0.337 C 
ATOM     47  O   UNL     1      -4.907  18.446  71.668  0.00  0.00    -0.264 OA
BRANCH  46  48
ATOM     48  C   UNL     1      -4.300  20.665  71.433  0.00  0.00    +0.471 C 
ATOM     49  F   UNL     1      -5.247  20.998  72.367  0.00  0.00    -0.162 F 
ATOM     50  F   UNL     1      -4.401  21.613  70.416  0.00  0.00    -0.162 F 
ATOM     51  F   UNL     1      -3.012  20.655  71.944  0.00  0.00    -0.162 F 
ENDBRANCH  46  48
ENDBRANCH  43  45
ENDBRANCH  36  37
ENDBRANCH   3  36
TORSDOF 12
ENDMDL
MODEL 7
REMARK VINA RESULT:      -7.8      2.620      3.376
REMARK  Name = 
REMARK  12 active torsions:
REMARK  status: ('A' for Active; 'I' for Inactive)
REMARK    1  A    between atoms: C_2  and  C_3
REMARK    2  A    between atoms: C_3  and  C_4
REMARK    3  A    between atoms: C_4  and  C_5
REMARK    4  A    between atoms: C_5  and  O_7
REMARK    5  A    between atoms: O_7  and  C_8
REMARK    6  A    between atoms: C_8  and  C_9
REMARK    7  A    between atoms: C_9  and  C_11
REMARK    8  A    between atoms: C_22  and  O_23
REMARK    9  A    between atoms: O_23  and  C_24
REMARK   10  A    between atoms: C_26  and  N_27
REMARK   11  A    between atoms: C_28  and  C_30
REMARK   12  A    between atoms: C_43  and  O_44
REMARK                            x       y       z     vdW  Elec       q    Type
REMARK                         _______ _______ _______ _____ _____    ______ ____
ROOT
ATOM      1  C   UNL     1     -10.542  15.559  66.119  0.00  0.00    +0.188 C 
ATOM      2  C   UNL     1      -9.300  14.905  65.821  0.00  0.00    +0.072 C 
ATOM      3  C   UNL     1      -8.493  14.425  67.185  0.00  0.00    +0.146 C 
ATOM      4  C   UNL     1      -8.614  15.888  67.921  0.00  0.00    +0.043 A 
ATOM      5  C   UNL     1      -8.978  16.942  67.137  0.00  0.00    +0.021 A 
ATOM      6  C   UNL     1      -8.303  18.120  66.974  0.00  0.00    +0.195 A 
ATOM      7  C   UNL     1      -7.023  18.190  67.444  0.00  0.00    +0.084 A 
ATOM      8  C   UNL     1      -6.064  19.148  66.901  0.00  0.00    +0.199 C 
ATOM      9  O   UNL     1      -6.415  19.965  66.030  0.00  0.00    -0.286 OA
ATOM     10  C   UNL     1      -4.829  19.388  67.636  0.00  0.00    +0.045 A 
ATOM     11  C   UNL     1      -4.634  18.763  68.863  0.00  0.00    +0.076 A 
ATOM     12  C   UNL     1      -3.836  19.335  69.851  0.00  0.00    +0.142 A 
ATOM     13  C   UNL     1      -3.096  20.449  69.500  0.00  0.00    +0.037 A 
ATOM     14  C   UNL     1      -3.012  20.867  68.199  0.00  0.00    +0.003 A 
ATOM     15  C   UNL     1      -5.446  17.578  69.167  0.00  0.00    +0.202 C 
ATOM     16  O   UNL     1      -5.277  17.014  70.267  0.00  0.00    -0.286 OA
ATOM     17  C   UNL     1      -3.881  20.310  67.268  0.00  0.00    +0.003 A 
ATOM     18  C   UNL     1      -6.662  17.285  68.411  0.00  0.00    +0.084 A 
ATOM     19  O   UNL     1      -8.830  19.241  66.325  0.00  0.00    -0.287 OA
ATOM     20  C   UNL     1      -7.424  16.156  68.603  0.00  0.00    +0.197 A 
ATOM     21  O   UNL     1      -6.910  15.237  69.480  0.00  0.00    -0.287 OA
ATOM     22  C   UNL     1     -10.373  17.003  66.589  0.00  0.00    +0.067 C 
ATOM     23  O   UNL     1     -11.477  15.067  66.978  0.00  0.00    -0.218 OA
ENDROOT
BRANCH   1  24
ATOM     24  C   UNL     1     -11.278  15.664  64.813  0.00  0.00    +0.222 C 
ATOM     25  O   UNL     1     -11.293  16.754  64.240  0.00  0.00    -0.290 OA
BRANCH  24  26
ATOM     26  C   UNL     1     -12.553  14.901  64.565  0.00  0.00    +0.275 C 
BRANCH  26  27
ATOM     27  O   UNL     1     -12.363  14.130  63.380  0.00  0.00    -0.440 OA
BRANCH  27  28
ATOM     28  C   UNL     1     -12.033  12.772  63.446  0.00  0.00    +0.317 C 
ATOM     29  O   UNL     1     -12.959  11.940  63.383  0.00  0.00    -0.250 OA
BRANCH  28  30
ATOM     30  C   UNL     1     -10.655  12.318  63.771  0.00  0.00    +0.110 C 
BRANCH  30  31
ATOM     31  C   UNL     1     -10.375  10.925  63.232  0.00  0.00    +0.012 C 
BRANCH  31  33
ATOM     32  C   UNL     1      -8.946   9.728  61.667  0.00  0.00    +0.000 C 
ATOM     33  C   UNL     1      -9.032  10.934  62.517  0.00  0.00    +0.001 C 
ENDBRANCH  31  33
ENDBRANCH  30  31
ENDBRANCH  28  30
ENDBRANCH  27  28
ENDBRANCH  26  27
ENDBRANCH  24  26
ENDBRANCH   1  24
BRANCH  12  34
ATOM     34  O   UNL     1      -4.219  19.139  71.183  0.00  0.00    -0.471 OA
ATOM     35  C   UNL     1      -4.918  20.232  71.777  0.00  0.00    +0.252 C 
ENDBRANCH  12  34
BRANCH   3  36
ATOM     36  O   UNL     1      -9.773  13.812  67.733  0.00  0.00    -0.328 OA
BRANCH  36  37
ATOM     37  C   UNL     1      -9.255  12.597  68.508  0.00  0.00    +0.237 C 
ATOM     38  O   UNL     1     -10.162  11.658  67.676  0.00  0.00    -0.330 OA
ATOM     39  C   UNL     1      -9.152  10.822  66.930  0.00  0.00    +0.150 C 
ATOM     40  C   UNL     1     -10.212   9.597  66.656  0.00  0.00    +0.035 C 
ATOM     41  C   UNL     1      -8.506   9.971  68.285  0.00  0.00    +0.199 C 
ATOM     42  O   UNL     1      -9.542  10.331  69.304  0.00  0.00    -0.219 OA
ATOM     43  C   UNL     1      -7.412  11.229  68.705  0.00  0.00    +0.133 C 
ATOM     44  C   UNL     1      -7.888  12.313  67.564  0.00  0.00    +0.086 C 
BRANCH  43  45
ATOM     45  N   UNL     1      -6.294  10.540  67.844  0.00  0.00    -0.197 NA
ATOM     46  C   UNL     1      -4.987  11.026  68.182  0.00  0.00    +0.337 C 
ATOM     47  O   UNL     1      -4.859  11.711  69.243  0.00  0.00    -0.264 OA
BRANCH  46  48
ATOM     48  C   UNL     1      -3.718  10.410  67.707  0.00  0.00    +0.471 C 
ATOM     49  F   UNL     1      -3.769  10.114  66.370  0.00  0.00    -0.162 F 
ATOM     50  F   UNL     1      -3.574   9.195  68.373  0.00  0.00    -0.162 F 
ATOM     51  F   UNL     1      -2.673  11.258  68.038  0.00  0.00    -0.162 F 
ENDBRANCH  46  48
ENDBRANCH  43  45
ENDBRANCH  36  37
ENDBRANCH   3  36
TORSDOF 12
ENDMDL
MODEL 8
REMARK VINA RESULT:      -7.8      2.905      6.799
REMARK  Name = 
REMARK  12 active torsions:
REMARK  status: ('A' for Active; 'I' for Inactive)
REMARK    1  A    between atoms: C_2  and  C_3
REMARK    2  A    between atoms: C_3  and  C_4
REMARK    3  A    between atoms: C_4  and  C_5
REMARK    4  A    between atoms: C_5  and  O_7
REMARK    5  A    between atoms: O_7  and  C_8
REMARK    6  A    between atoms: C_8  and  C_9
REMARK    7  A    between atoms: C_9  and  C_11
REMARK    8  A    between atoms: C_22  and  O_23
REMARK    9  A    between atoms: O_23  and  C_24
REMARK   10  A    between atoms: C_26  and  N_27
REMARK   11  A    between atoms: C_28  and  C_30
REMARK   12  A    between atoms: C_43  and  O_44
REMARK                            x       y       z     vdW  Elec       q    Type
REMARK                         _______ _______ _______ _____ _____    ______ ____
ROOT
ATOM      1  C   UNL     1      -5.829  15.103  69.099  0.00  0.00    +0.188 C 
ATOM      2  C   UNL     1      -6.601  16.289  69.336  0.00  0.00    +0.072 C 
ATOM      3  C   UNL     1      -7.544  16.702  68.038  0.00  0.00    +0.146 C 
ATOM      4  C   UNL     1      -6.313  16.601  66.956  0.00  0.00    +0.043 A 
ATOM      5  C   UNL     1      -5.049  16.557  67.464  0.00  0.00    +0.021 A 
ATOM      6  C   UNL     1      -4.010  17.394  67.163  0.00  0.00    +0.195 A 
ATOM      7  C   UNL     1      -4.292  18.533  66.466  0.00  0.00    +0.084 A 
ATOM      8  C   UNL     1      -3.418  19.701  66.532  0.00  0.00    +0.199 C 
ATOM      9  O   UNL     1      -2.360  19.661  67.187  0.00  0.00    -0.286 OA
ATOM     10  C   UNL     1      -3.596  20.759  65.546  0.00  0.00    +0.045 A 
ATOM     11  C   UNL     1      -4.532  20.594  64.530  0.00  0.00    +0.076 A 
ATOM     12  C   UNL     1      -4.377  21.213  63.293  0.00  0.00    +0.142 A 
ATOM     13  C   UNL     1      -3.363  22.146  63.175  0.00  0.00    +0.037 A 
ATOM     14  C   UNL     1      -2.657  22.572  64.267  0.00  0.00    +0.003 A 
ATOM     15  C   UNL     1      -5.588  19.593  64.727  0.00  0.00    +0.202 C 
ATOM     16  O   UNL     1      -6.429  19.438  63.817  0.00  0.00    -0.286 OA
ATOM     17  C   UNL     1      -2.799  21.873  65.459  0.00  0.00    +0.003 A 
ATOM     18  C   UNL     1      -5.459  18.551  65.744  0.00  0.00    +0.084 A 
ATOM     19  O   UNL     1      -2.686  17.170  67.555  0.00  0.00    -0.287 OA
ATOM     20  C   UNL     1      -6.443  17.631  66.020  0.00  0.00    +0.197 A 
ATOM     21  O   UNL     1      -7.629  17.816  65.358  0.00  0.00    -0.287 OA
ATOM     22  C   UNL     1      -4.603  15.340  68.219  0.00  0.00    +0.067 C 
ATOM     23  O   UNL     1      -6.342  13.945  68.600  0.00  0.00    -0.218 OA
ENDROOT
BRANCH   1  24
ATOM     24  C   UNL     1      -5.271  14.699  70.435  0.00  0.00    +0.222 C 
ATOM     25  O   UNL     1      -5.602  13.606  70.897  0.00  0.00    -0.290 OA
BRANCH  24  26
ATOM     26  C   UNL     1      -5.043  15.706  71.530  0.00  0.00    +0.275 C 
BRANCH  26  27
ATOM     27  O   UNL     1      -4.234  16.749  70.989  0.00  0.00    -0.440 OA
BRANCH  27  28
ATOM     28  C   UNL     1      -4.580  18.093  71.155  0.00  0.00    +0.317 C 
ATOM     29  O   UNL     1      -5.316  18.395  72.114  0.00  0.00    -0.250 OA
BRANCH  28  30
ATOM     30  C   UNL     1      -4.251  19.117  70.127  0.00  0.00    +0.110 C 
BRANCH  30  31
ATOM     31  C   UNL     1      -5.215  20.292  70.168  0.00  0.00    +0.012 C 
BRANCH  31  33
ATOM     32  C   UNL     1      -6.370  20.960  68.134  0.00  0.00    +0.000 C 
ATOM     33  C   UNL     1      -6.393  19.995  69.252  0.00  0.00    +0.001 C 
ENDBRANCH  31  33
ENDBRANCH  30  31
ENDBRANCH  28  30
ENDBRANCH  27  28
ENDBRANCH  26  27
ENDBRANCH  24  26
ENDBRANCH   1  24
BRANCH  12  34
ATOM     34  O   UNL     1      -4.826  20.519  62.163  0.00  0.00    -0.471 OA
ATOM     35  C   UNL     1      -4.229  20.920  60.931  0.00  0.00    +0.252 C 
ENDBRANCH  12  34
BRANCH   3  36
ATOM     36  O   UNL     1      -8.032  15.266  67.930  0.00  0.00    -0.328 OA
BRANCH  36  37
ATOM     37  C   UNL     1      -9.539  15.440  67.718  0.00  0.00    +0.237 C 
ATOM     38  O   UNL     1      -9.560  14.236  66.748  0.00  0.00    -0.330 OA
ATOM     39  C   UNL     1     -10.417  13.243  67.493  0.00  0.00    +0.150 C 
ATOM     40  C   UNL     1     -10.807  12.402  66.137  0.00  0.00    +0.035 C 
ATOM     41  C   UNL     1     -11.909  14.104  67.398  0.00  0.00    +0.199 C 
ATOM     42  O   UNL     1     -11.525  15.127  66.375  0.00  0.00    -0.219 OA
ATOM     43  C   UNL     1     -11.563  15.092  68.762  0.00  0.00    +0.133 C 
ATOM     44  C   UNL     1     -10.043  14.534  69.047  0.00  0.00    +0.086 C 
BRANCH  43  45
ATOM     45  N   UNL     1     -12.308  14.068  69.690  0.00  0.00    -0.197 NA
ATOM     46  C   UNL     1     -12.671  14.655  70.947  0.00  0.00    +0.337 C 
ATOM     47  O   UNL     1     -12.596  15.917  71.063  0.00  0.00    -0.264 OA
BRANCH  46  48
ATOM     48  C   UNL     1     -13.578  14.014  71.938  0.00  0.00    +0.471 C 
ATOM     49  F   UNL     1     -13.209  14.309  73.225  0.00  0.00    -0.162 F 
ATOM     50  F   UNL     1     -13.438  12.635  71.795  0.00  0.00    -0.162 F 
ATOM     51  F   UNL     1     -14.879  14.391  71.644  0.00  0.00    -0.162 F 
ENDBRANCH  46  48
ENDBRANCH  43  45
ENDBRANCH  36  37
ENDBRANCH   3  36
TORSDOF 12
ENDMDL
MODEL 9
REMARK VINA RESULT:      -7.8      4.759      9.853
REMARK  Name = 
REMARK  12 active torsions:
REMARK  status: ('A' for Active; 'I' for Inactive)
REMARK    1  A    between atoms: C_2  and  C_3
REMARK    2  A    between atoms: C_3  and  C_4
REMARK    3  A    between atoms: C_4  and  C_5
REMARK    4  A    between atoms: C_5  and  O_7
REMARK    5  A    between atoms: O_7  and  C_8
REMARK    6  A    between atoms: C_8  and  C_9
REMARK    7  A    between atoms: C_9  and  C_11
REMARK    8  A    between atoms: C_22  and  O_23
REMARK    9  A    between atoms: O_23  and  C_24
REMARK   10  A    between atoms: C_26  and  N_27
REMARK   11  A    between atoms: C_28  and  C_30
REMARK   12  A    between atoms: C_43  and  O_44
REMARK                            x       y       z     vdW  Elec       q    Type
REMARK                         _______ _______ _______ _____ _____    ______ ____
ROOT
ATOM      1  C   UNL     1      -7.317  10.181  66.816  0.00  0.00    +0.188 C 
ATOM      2  C   UNL     1      -8.700   9.858  66.619  0.00  0.00    +0.072 C 
ATOM      3  C   UNL     1      -9.658  10.384  67.863  0.00  0.00    +0.146 C 
ATOM      4  C   UNL     1      -8.712   9.726  69.033  0.00  0.00    +0.043 A 
ATOM      5  C   UNL     1      -7.785   8.810  68.631  0.00  0.00    +0.021 A 
ATOM      6  C   UNL     1      -7.637   7.531  69.092  0.00  0.00    +0.195 A 
ATOM      7  C   UNL     1      -8.639   7.011  69.859  0.00  0.00    +0.084 A 
ATOM      8  C   UNL     1      -8.842   5.569  69.970  0.00  0.00    +0.199 C 
ATOM      9  O   UNL     1      -8.064   4.778  69.405  0.00  0.00    -0.286 OA
ATOM     10  C   UNL     1      -9.712   5.069  71.026  0.00  0.00    +0.045 A 
ATOM     11  C   UNL     1     -10.258   5.964  71.941  0.00  0.00    +0.076 A 
ATOM     12  C   UNL     1     -10.583   5.570  73.236  0.00  0.00    +0.142 A 
ATOM     13  C   UNL     1     -10.521   4.218  73.520  0.00  0.00    +0.037 A 
ATOM     14  C   UNL     1     -10.322   3.291  72.533  0.00  0.00    +0.003 A 
ATOM     15  C   UNL     1     -10.303   7.383  71.569  0.00  0.00    +0.202 C 
ATOM     16  O   UNL     1     -10.788   8.192  72.386  0.00  0.00    -0.286 OA
ATOM     17  C   UNL     1      -9.932   3.737  71.277  0.00  0.00    +0.003 A 
ATOM     18  C   UNL     1      -9.478   7.903  70.479  0.00  0.00    +0.084 A 
ATOM     19  O   UNL     1      -6.541   6.715  68.795  0.00  0.00    -0.287 OA
ATOM     20  C   UNL     1      -9.528   9.206  70.041  0.00  0.00    +0.197 A 
ATOM     21  O   UNL     1     -10.499   9.986  70.614  0.00  0.00    -0.287 OA
ATOM     22  C   UNL     1      -6.612   9.263  67.814  0.00  0.00    +0.067 C 
ATOM     23  O   UNL     1      -6.863  11.416  67.166  0.00  0.00    -0.218 OA
ENDROOT
BRANCH   1  24
ATOM     24  C   UNL     1      -6.638   9.913  65.502  0.00  0.00    +0.222 C 
ATOM     25  O   UNL     1      -5.845  10.753  65.074  0.00  0.00    -0.290 OA
BRANCH  24  26
ATOM     26  C   UNL     1      -7.352   9.216  64.375  0.00  0.00    +0.275 C 
BRANCH  26  27
ATOM     27  O   UNL     1      -7.288  10.073  63.236  0.00  0.00    -0.440 OA
BRANCH  27  28
ATOM     28  C   UNL     1      -8.439  10.406  62.515  0.00  0.00    +0.317 C 
ATOM     29  O   UNL     1      -8.299  10.865  61.365  0.00  0.00    -0.250 OA
BRANCH  28  30
ATOM     30  C   UNL     1      -9.786  10.403  63.148  0.00  0.00    +0.110 C 
BRANCH  30  31
ATOM     31  C   UNL     1     -10.205  11.793  63.597  0.00  0.00    +0.012 C 
BRANCH  31  33
ATOM     32  C   UNL     1     -12.096  13.318  63.739  0.00  0.00    +0.000 C 
ATOM     33  C   UNL     1     -11.718  11.912  63.483  0.00  0.00    +0.001 C 
ENDBRANCH  31  33
ENDBRANCH  30  31
ENDBRANCH  28  30
ENDBRANCH  27  28
ENDBRANCH  26  27
ENDBRANCH  24  26
ENDBRANCH   1  24
BRANCH  12  34
ATOM     34  O   UNL     1     -10.410   6.510  74.259  0.00  0.00    -0.471 OA
ATOM     35  C   UNL     1      -9.291   6.277  75.111  0.00  0.00    +0.252 C 
ENDBRANCH  12  34
BRANCH   3  36
ATOM     36  O   UNL     1      -8.992  11.750  67.804  0.00  0.00    -0.328 OA
BRANCH  36  37
ATOM     37  C   UNL     1     -10.106  12.641  67.245  0.00  0.00    +0.237 C 
ATOM     38  O   UNL     1     -10.877  12.547  68.584  0.00  0.00    -0.330 OA
ATOM     39  C   UNL     1     -10.842  13.974  69.071  0.00  0.00    +0.150 C 
ATOM     40  C   UNL     1     -12.143  13.781  70.055  0.00  0.00    +0.035 C 
ATOM     41  C   UNL     1     -11.854  14.661  67.854  0.00  0.00    +0.199 C 
ATOM     42  O   UNL     1     -12.402  13.399  67.264  0.00  0.00    -0.219 OA
ATOM     43  C   UNL     1     -10.574  14.834  66.719  0.00  0.00    +0.133 C 
ATOM     44  C   UNL     1      -9.396  14.123  67.619  0.00  0.00    +0.086 C 
BRANCH  43  45
ATOM     45  N   UNL     1     -10.327  16.300  67.225  0.00  0.00    -0.197 NA
ATOM     46  C   UNL     1     -10.225  17.229  66.137  0.00  0.00    +0.337 C 
ATOM     47  O   UNL     1     -10.584  16.841  64.983  0.00  0.00    -0.264 OA
BRANCH  46  48
ATOM     48  C   UNL     1     -10.220  18.708  66.299  0.00  0.00    +0.471 C 
ATOM     49  F   UNL     1     -10.963  19.326  65.326  0.00  0.00    -0.162 F 
ATOM     50  F   UNL     1      -8.907  19.139  66.123  0.00  0.00    -0.162 F 
ATOM     51  F   UNL     1     -10.648  19.007  67.583  0.00  0.00    -0.162 F 
ENDBRANCH  46  48
ENDBRANCH  43  45
ENDBRANCH  36  37
ENDBRANCH   3  36
TORSDOF 12
ENDMDL
