MODEL 1
REMARK VINA RESULT:      -3.9      0.000      0.000
REMARK  Name = 
REMARK  4 active torsions:
REMARK  status: ('A' for Active; 'I' for Inactive)
REMARK    1  A    between atoms: O_2  and  C_3
REMARK    2  A    between atoms: C_3  and  C_5
REMARK    3  A    between atoms: C_6  and  C_7
REMARK    4  A    between atoms: C_7  and  O_9
REMARK                            x       y       z     vdW  Elec       q    Type
REMARK                         _______ _______ _______ _____ _____    ______ ____
ROOT
ATOM      1  C   UNL     1      -9.650  15.987  65.851  0.00  0.00    +0.089 C 
ATOM      2  C   UNL     1      -9.682  16.260  67.140  0.00  0.00    +0.089 C 
ENDROOT
BRANCH   1   3
ATOM      3  C   UNL     1     -10.929  15.946  65.130  0.00  0.00    +0.342 C 
ATOM      4  O   UNL     1     -11.226  16.842  64.284  0.00  0.00    -0.245 OA
BRANCH   3   6
ATOM      5  C   UNL     1     -12.478  14.073  65.570  0.00  0.00    +0.256 C 
ATOM      6  O   UNL     1     -11.423  14.670  64.840  0.00  0.00    -0.441 OA
ENDBRANCH   3   6
ENDBRANCH   1   3
BRANCH   2   7
ATOM      7  C   UNL     1     -10.670  17.214  67.668  0.00  0.00    +0.342 C 
ATOM      8  O   UNL     1     -11.380  16.749  68.613  0.00  0.00    -0.245 OA
BRANCH   7   9
ATOM      9  O   UNL     1     -10.255  18.531  67.885  0.00  0.00    -0.441 OA
ATOM     10  C   UNL     1     -10.652  19.457  66.875  0.00  0.00    +0.256 C 
ENDBRANCH   7   9
ENDBRANCH   2   7
TORSDOF 4
ENDMDL
MODEL 2
REMARK VINA RESULT:      -3.9      0.609      4.299
REMARK  Name = 
REMARK  4 active torsions:
REMARK  status: ('A' for Active; 'I' for Inactive)
REMARK    1  A    between atoms: O_2  and  C_3
REMARK    2  A    between atoms: C_3  and  C_5
REMARK    3  A    between atoms: C_6  and  C_7
REMARK    4  A    between atoms: C_7  and  O_9
REMARK                            x       y       z     vdW  Elec       q    Type
REMARK                         _______ _______ _______ _____ _____    ______ ____
ROOT
ATOM      1  C   UNL     1      -9.647  16.526  67.224  0.00  0.00    +0.089 C 
ATOM      2  C   UNL     1      -9.625  16.328  65.921  0.00  0.00    +0.089 C 
ENDROOT
BRANCH   1   3
ATOM      3  C   UNL     1     -10.834  17.175  67.796  0.00  0.00    +0.342 C 
ATOM      4  O   UNL     1     -11.413  16.688  68.812  0.00  0.00    -0.245 OA
BRANCH   3   6
ATOM      5  C   UNL     1      -9.870  19.395  68.289  0.00  0.00    +0.256 C 
ATOM      6  O   UNL     1     -10.864  18.571  67.709  0.00  0.00    -0.441 OA
ENDBRANCH   3   6
ENDBRANCH   1   3
BRANCH   2   7
ATOM      7  C   UNL     1     -10.865  15.993  65.205  0.00  0.00    +0.342 C 
ATOM      8  O   UNL     1     -11.190  16.839  64.315  0.00  0.00    -0.245 OA
BRANCH   7   9
ATOM      9  O   UNL     1     -11.048  14.667  64.800  0.00  0.00    -0.441 OA
ATOM     10  C   UNL     1     -12.330  14.120  65.104  0.00  0.00    +0.256 C 
ENDBRANCH   7   9
ENDBRANCH   2   7
TORSDOF 4
ENDMDL
MODEL 3
REMARK VINA RESULT:      -3.7      4.466      6.214
REMARK  Name = 
REMARK  4 active torsions:
REMARK  status: ('A' for Active; 'I' for Inactive)
REMARK    1  A    between atoms: O_2  and  C_3
REMARK    2  A    between atoms: C_3  and  C_5
REMARK    3  A    between atoms: C_6  and  C_7
REMARK    4  A    between atoms: C_7  and  O_9
REMARK                            x       y       z     vdW  Elec       q    Type
REMARK                         _______ _______ _______ _____ _____    ______ ____
ROOT
ATOM      1  C   UNL     1     -12.195  15.422  72.305  0.00  0.00    +0.089 C 
ATOM      2  C   UNL     1     -11.719  16.047  71.248  0.00  0.00    +0.089 C 
ENDROOT
BRANCH   1   3
ATOM      3  C   UNL     1     -13.491  14.744  72.172  0.00  0.00    +0.342 C 
ATOM      4  O   UNL     1     -13.725  13.664  72.791  0.00  0.00    -0.245 OA
BRANCH   3   6
ATOM      5  C   UNL     1     -15.730  15.206  71.237  0.00  0.00    +0.256 C 
ATOM      6  O   UNL     1     -14.599  15.581  72.001  0.00  0.00    -0.441 OA
ENDBRANCH   3   6
ENDBRANCH   1   3
BRANCH   2   7
ATOM      7  C   UNL     1     -11.945  15.499  69.902  0.00  0.00    +0.342 C 
ATOM      8  O   UNL     1     -11.988  16.379  68.988  0.00  0.00    -0.245 OA
BRANCH   7   9
ATOM      9  O   UNL     1     -11.230  14.354  69.534  0.00  0.00    -0.441 OA
ATOM     10  C   UNL     1     -11.430  13.932  68.186  0.00  0.00    +0.256 C 
ENDBRANCH   7   9
ENDBRANCH   2   7
TORSDOF 4
ENDMDL
MODEL 4
REMARK VINA RESULT:      -3.7      2.437      2.850
REMARK  Name = 
REMARK  4 active torsions:
REMARK  status: ('A' for Active; 'I' for Inactive)
REMARK    1  A    between atoms: O_2  and  C_3
REMARK    2  A    between atoms: C_3  and  C_5
REMARK    3  A    between atoms: C_6  and  C_7
REMARK    4  A    between atoms: C_7  and  O_9
REMARK                            x       y       z     vdW  Elec       q    Type
REMARK                         _______ _______ _______ _____ _____    ______ ____
ROOT
ATOM      1  C   UNL     1     -10.866  14.309  65.154  0.00  0.00    +0.089 C 
ATOM      2  C   UNL     1     -10.664  14.110  66.440  0.00  0.00    +0.089 C 
ENDROOT
BRANCH   1   3
ATOM      3  C   UNL     1     -12.250  14.268  64.664  0.00  0.00    +0.342 C 
ATOM      4  O   UNL     1     -12.683  15.156  63.871  0.00  0.00    -0.245 OA
BRANCH   3   6
ATOM      5  C   UNL     1     -12.332  12.103  63.478  0.00  0.00    +0.256 C 
ATOM      6  O   UNL     1     -12.792  12.992  64.479  0.00  0.00    -0.441 OA
ENDBRANCH   3   6
ENDBRANCH   1   3
BRANCH   2   7
ATOM      7  C   UNL     1     -11.637  14.609  67.425  0.00  0.00    +0.342 C 
ATOM      8  O   UNL     1     -12.101  13.709  68.192  0.00  0.00    -0.245 OA
BRANCH   7   9
ATOM      9  O   UNL     1     -11.339  15.803  68.090  0.00  0.00    -0.441 OA
ATOM     10  C   UNL     1     -11.735  15.838  69.461  0.00  0.00    +0.256 C 
ENDBRANCH   7   9
ENDBRANCH   2   7
TORSDOF 4
ENDMDL
MODEL 5
REMARK VINA RESULT:      -3.5      3.862      5.587
REMARK  Name = 
REMARK  4 active torsions:
REMARK  status: ('A' for Active; 'I' for Inactive)
REMARK    1  A    between atoms: O_2  and  C_3
REMARK    2  A    between atoms: C_3  and  C_5
REMARK    3  A    between atoms: C_6  and  C_7
REMARK    4  A    between atoms: C_7  and  O_9
REMARK                            x       y       z     vdW  Elec       q    Type
REMARK                         _______ _______ _______ _____ _____    ______ ____
ROOT
ATOM      1  C   UNL     1     -10.853  12.555  66.882  0.00  0.00    +0.089 C 
ATOM      2  C   UNL     1     -11.221  13.231  65.813  0.00  0.00    +0.089 C 
ENDROOT
BRANCH   1   3
ATOM      3  C   UNL     1     -11.841  12.380  67.954  0.00  0.00    +0.342 C 
ATOM      4  O   UNL     1     -12.146  11.224  68.374  0.00  0.00    -0.245 OA
BRANCH   3   6
ATOM      5  C   UNL     1     -12.071  13.123  70.298  0.00  0.00    +0.256 C 
ATOM      6  O   UNL     1     -11.872  13.389  68.922  0.00  0.00    -0.441 OA
ENDBRANCH   3   6
ENDBRANCH   1   3
BRANCH   2   7
ATOM      7  C   UNL     1     -12.600  13.126  65.312  0.00  0.00    +0.342 C 
ATOM      8  O   UNL     1     -13.217  14.235  65.265  0.00  0.00    -0.245 OA
BRANCH   7   9
ATOM      9  O   UNL     1     -12.829  12.318  64.193  0.00  0.00    -0.441 OA
ATOM     10  C   UNL     1     -11.734  12.235  63.282  0.00  0.00    +0.256 C 
ENDBRANCH   7   9
ENDBRANCH   2   7
TORSDOF 4
ENDMDL
MODEL 6
REMARK VINA RESULT:      -3.4      4.410      5.393
REMARK  Name = 
REMARK  4 active torsions:
REMARK  status: ('A' for Active; 'I' for Inactive)
REMARK    1  A    between atoms: O_2  and  C_3
REMARK    2  A    between atoms: C_3  and  C_5
REMARK    3  A    between atoms: C_6  and  C_7
REMARK    4  A    between atoms: C_7  and  O_9
REMARK                            x       y       z     vdW  Elec       q    Type
REMARK                         _______ _______ _______ _____ _____    ______ ____
ROOT
ATOM      1  C   UNL     1     -12.027  13.385  66.317  0.00  0.00    +0.089 C 
ATOM      2  C   UNL     1     -11.335  12.811  67.281  0.00  0.00    +0.089 C 
ENDROOT
BRANCH   1   3
ATOM      3  C   UNL     1     -12.125  12.679  65.033  0.00  0.00    +0.342 C 
ATOM      4  O   UNL     1     -13.255  12.407  64.528  0.00  0.00    -0.245 OA
BRANCH   3   6
ATOM      5  C   UNL     1     -10.294  11.948  63.546  0.00  0.00    +0.256 C 
ATOM      6  O   UNL     1     -11.113  12.956  64.109  0.00  0.00    -0.441 OA
ENDBRANCH   3   6
ENDBRANCH   1   3
BRANCH   2   7
ATOM      7  C   UNL     1     -11.350  11.348  67.430  0.00  0.00    +0.342 C 
ATOM      8  O   UNL     1     -10.216  10.802  67.262  0.00  0.00    -0.245 OA
BRANCH   7   9
ATOM      9  O   UNL     1     -12.071  10.807  68.499  0.00  0.00    -0.441 OA
ATOM     10  C   UNL     1     -11.854  11.452  69.753  0.00  0.00    +0.256 C 
ENDBRANCH   7   9
ENDBRANCH   2   7
TORSDOF 4
ENDMDL
MODEL 7
REMARK VINA RESULT:      -3.4      2.514      3.877
REMARK  Name = 
REMARK  4 active torsions:
REMARK  status: ('A' for Active; 'I' for Inactive)
REMARK    1  A    between atoms: O_2  and  C_3
REMARK    2  A    between atoms: C_3  and  C_5
REMARK    3  A    between atoms: C_6  and  C_7
REMARK    4  A    between atoms: C_7  and  O_9
REMARK                            x       y       z     vdW  Elec       q    Type
REMARK                         _______ _______ _______ _____ _____    ______ ____
ROOT
ATOM      1  C   UNL     1     -12.121  13.246  65.424  0.00  0.00    +0.089 C 
ATOM      2  C   UNL     1     -12.190  14.557  65.535  0.00  0.00    +0.089 C 
ENDROOT
BRANCH   1   3
ATOM      3  C   UNL     1     -11.945  12.683  64.079  0.00  0.00    +0.342 C 
ATOM      4  O   UNL     1     -12.791  12.912  63.164  0.00  0.00    -0.245 OA
BRANCH   3   6
ATOM      5  C   UNL     1      -9.868  11.370  63.832  0.00  0.00    +0.256 C 
ATOM      6  O   UNL     1     -10.622  12.553  63.643  0.00  0.00    -0.441 OA
ENDBRANCH   3   6
ENDBRANCH   1   3
BRANCH   2   7
ATOM      7  C   UNL     1     -11.385  15.416  64.654  0.00  0.00    +0.342 C 
ATOM      8  O   UNL     1     -12.074  16.127  63.858  0.00  0.00    -0.245 OA
BRANCH   7   9
ATOM      9  O   UNL     1     -10.308  16.106  65.220  0.00  0.00    -0.441 OA
ATOM     10  C   UNL     1      -9.387  15.289  65.941  0.00  0.00    +0.256 C 
ENDBRANCH   7   9
ENDBRANCH   2   7
TORSDOF 4
ENDMDL
MODEL 8
REMARK VINA RESULT:      -3.4      1.662      2.286
REMARK  Name = 
REMARK  4 active torsions:
REMARK  status: ('A' for Active; 'I' for Inactive)
REMARK    1  A    between atoms: O_2  and  C_3
REMARK    2  A    between atoms: C_3  and  C_5
REMARK    3  A    between atoms: C_6  and  C_7
REMARK    4  A    between atoms: C_7  and  O_9
REMARK                            x       y       z     vdW  Elec       q    Type
REMARK                         _______ _______ _______ _____ _____    ______ ____
ROOT
ATOM      1  C   UNL     1     -10.741  14.429  65.083  0.00  0.00    +0.089 C 
ATOM      2  C   UNL     1      -9.881  15.307  65.558  0.00  0.00    +0.089 C 
ENDROOT
BRANCH   1   3
ATOM      3  C   UNL     1     -11.993  14.228  65.825  0.00  0.00    +0.342 C 
ATOM      4  O   UNL     1     -13.086  14.038  65.213  0.00  0.00    -0.245 OA
BRANCH   3   6
ATOM      5  C   UNL     1     -11.607  12.173  67.140  0.00  0.00    +0.256 C 
ATOM      6  O   UNL     1     -11.874  13.560  67.048  0.00  0.00    -0.441 OA
ENDBRANCH   3   6
ENDBRANCH   1   3
BRANCH   2   7
ATOM      7  C   UNL     1     -10.364  16.533  66.213  0.00  0.00    +0.342 C 
ATOM      8  O   UNL     1      -9.797  16.782  67.322  0.00  0.00    -0.245 OA
BRANCH   7   9
ATOM      9  O   UNL     1     -10.547  17.669  65.418  0.00  0.00    -0.441 OA
ATOM     10  C   UNL     1     -10.410  18.910  66.109  0.00  0.00    +0.256 C 
ENDBRANCH   7   9
ENDBRANCH   2   7
TORSDOF 4
ENDMDL
MODEL 9
REMARK VINA RESULT:      -3.4      2.146      4.726
REMARK  Name = 
REMARK  4 active torsions:
REMARK  status: ('A' for Active; 'I' for Inactive)
REMARK    1  A    between atoms: O_2  and  C_3
REMARK    2  A    between atoms: C_3  and  C_5
REMARK    3  A    between atoms: C_6  and  C_7
REMARK    4  A    between atoms: C_7  and  O_9
REMARK                            x       y       z     vdW  Elec       q    Type
REMARK                         _______ _______ _______ _____ _____    ______ ____
ROOT
ATOM      1  C   UNL     1     -10.427  15.442  65.380  0.00  0.00    +0.089 C 
ATOM      2  C   UNL     1     -11.486  15.300  64.609  0.00  0.00    +0.089 C 
ENDROOT
BRANCH   1   3
ATOM      3  C   UNL     1     -10.463  14.821  66.711  0.00  0.00    +0.342 C 
ATOM      4  O   UNL     1      -9.452  14.210  67.169  0.00  0.00    -0.245 OA
BRANCH   3   6
ATOM      5  C   UNL     1     -10.813  16.659  68.322  0.00  0.00    +0.256 C 
ATOM      6  O   UNL     1     -11.242  15.480  67.668  0.00  0.00    -0.441 OA
ENDBRANCH   3   6
ENDBRANCH   1   3
BRANCH   2   7
ATOM      7  C   UNL     1     -12.258  14.049  64.638  0.00  0.00    +0.342 C 
ATOM      8  O   UNL     1     -13.346  14.130  65.290  0.00  0.00    -0.245 OA
BRANCH   7   9
ATOM      9  O   UNL     1     -12.381  13.328  63.446  0.00  0.00    -0.441 OA
ATOM     10  C   UNL     1     -11.914  11.981  63.511  0.00  0.00    +0.256 C 
ENDBRANCH   7   9
ENDBRANCH   2   7
TORSDOF 4
ENDMDL
