MODEL 1
REMARK VINA RESULT:      -8.3      0.000      0.000
REMARK  Name = 
REMARK  9 active torsions:
REMARK  status: ('A' for Active; 'I' for Inactive)
REMARK    1  A    between atoms: O_2  and  C_3
REMARK    2  A    between atoms: C_5  and  C_6
REMARK    3  A    between atoms: N_8  and  S_9
REMARK    4  A    between atoms: S_9  and  C_12
REMARK    5  A    between atoms: C_21  and  C_22
REMARK    6  A    between atoms: C_22  and  C_23
REMARK    7  A    between atoms: C_30  and  N_31
REMARK    8  A    between atoms: C_32  and  O_34
REMARK    9  A    between atoms: O_34  and  C_35
REMARK                            x       y       z     vdW  Elec       q    Type
REMARK                         _______ _______ _______ _____ _____    ______ ____
ROOT
ATOM      1  C   UNL     1      -9.819  11.884  65.836  0.00  0.00    +0.135 A 
ATOM      2  C   UNL     1      -9.174  10.658  65.918  0.00  0.00    +0.016 A 
ATOM      3  C   UNL     1      -7.903  10.657  66.474  0.00  0.00    -0.001 A 
ATOM      4  C   UNL     1      -7.603  11.627  67.421  0.00  0.00    +0.005 A 
ATOM      5  C   UNL     1      -8.216  12.873  67.365  0.00  0.00    +0.062 A 
ATOM      6  C   UNL     1      -9.334  12.967  66.554  0.00  0.00    +0.041 A 
ENDROOT
BRANCH   5   7
ATOM      7  C   UNL     1      -7.462  14.050  67.806  0.00  0.00    +0.297 C 
ATOM      8  N   UNL     1      -8.046  15.168  68.122  0.00  0.00    -0.086 NA
ATOM      9  O   UNL     1      -6.161  14.154  67.308  0.00  0.00    -0.264 OA
BRANCH   8  10
ATOM     10  S   UNL     1      -7.416  16.706  67.693  0.00  0.00    +0.103 S 
ATOM     11  O   UNL     1      -6.671  16.543  66.388  0.00  0.00    -0.146 OA
ATOM     12  O   UNL     1      -6.478  17.245  68.745  0.00  0.00    -0.146 OA
BRANCH  10  13
ATOM     13  C   UNL     1      -8.665  17.885  67.427  0.00  0.00    +0.125 A 
ATOM     14  C   UNL     1      -9.694  17.719  66.523  0.00  0.00    -0.003 A 
ATOM     15  C   UNL     1      -9.872  16.393  65.892  0.00  0.00    +0.032 C 
ATOM     16  C   UNL     1     -10.498  18.812  66.229  0.00  0.00    -0.003 A 
ATOM     17  C   UNL     1     -10.097  20.073  66.644  0.00  0.00    -0.000 A 
ATOM     18  C   UNL     1      -9.346  20.148  67.807  0.00  0.00    +0.001 A 
ATOM     19  C   UNL     1      -8.668  19.016  68.199  0.00  0.00    +0.020 A 
ENDBRANCH  10  13
ENDBRANCH   8  10
ENDBRANCH   5   7
BRANCH   1  21
ATOM     20  C   UNL     1     -11.866  13.088  65.580  0.00  0.00    +0.252 C 
ATOM     21  O   UNL     1     -11.097  11.925  65.296  0.00  0.00    -0.472 OA
ENDBRANCH   1  21
BRANCH   2  22
ATOM     22  C   UNL     1      -9.883   9.414  65.528  0.00  0.00    +0.057 C 
BRANCH  22  23
ATOM     23  C   UNL     1     -10.173   8.581  66.736  0.00  0.00    +0.001 A 
ATOM     24  C   UNL     1     -10.570   9.009  67.998  0.00  0.00    +0.015 A 
ATOM     25  C   UNL     1     -10.308   7.981  68.896  0.00  0.00    +0.060 A 
ATOM     26  C   UNL     1     -10.079   8.360  70.213  0.00  0.00    +0.019 A 
ATOM     27  C   UNL     1     -10.493   9.604  70.675  0.00  0.00    +0.018 A 
ATOM     28  C   UNL     1     -11.092  10.524  69.823  0.00  0.00    +0.077 A 
ATOM     29  N   UNL     1      -9.925   6.915  68.181  0.00  0.00    -0.324 N 
ATOM     30  C   UNL     1      -9.464   5.679  68.780  0.00  0.00    +0.130 C 
ATOM     31  C   UNL     1     -10.888  10.276  68.471  0.00  0.00    +0.018 A 
ATOM     32  C   UNL     1      -9.687   7.291  66.914  0.00  0.00    +0.072 A 
BRANCH  28  33
ATOM     33  N   UNL     1     -12.180  11.345  70.265  0.00  0.00    -0.142 NA
ATOM     34  C   UNL     1     -12.178  12.762  70.119  0.00  0.00    +0.425 C 
ATOM     35  O   UNL     1     -11.593  13.209  69.089  0.00  0.00    -0.224 OA
BRANCH  34  36
ATOM     36  O   UNL     1     -12.528  13.642  71.122  0.00  0.00    -0.437 OA
BRANCH  36  37
ATOM     37  C   UNL     1     -13.055  14.944  70.878  0.00  0.00    +0.171 C 
ATOM     38  C   UNL     1     -11.955  15.918  71.287  0.00  0.00    +0.044 C 
ATOM     39  C   UNL     1     -11.928  15.700  72.790  0.00  0.00    +0.004 C 
ATOM     40  C   UNL     1     -13.397  15.685  73.164  0.00  0.00    +0.004 C 
ATOM     41  C   UNL     1     -14.127  15.236  71.916  0.00  0.00    +0.044 C 
ENDBRANCH  36  37
ENDBRANCH  34  36
ENDBRANCH  28  33
ENDBRANCH  22  23
ENDBRANCH   2  22
TORSDOF 9
ENDMDL
MODEL 2
REMARK VINA RESULT:      -8.3      3.135      6.099
REMARK  Name = 
REMARK  9 active torsions:
REMARK  status: ('A' for Active; 'I' for Inactive)
REMARK    1  A    between atoms: O_2  and  C_3
REMARK    2  A    between atoms: C_5  and  C_6
REMARK    3  A    between atoms: N_8  and  S_9
REMARK    4  A    between atoms: S_9  and  C_12
REMARK    5  A    between atoms: C_21  and  C_22
REMARK    6  A    between atoms: C_22  and  C_23
REMARK    7  A    between atoms: C_30  and  N_31
REMARK    8  A    between atoms: C_32  and  O_34
REMARK    9  A    between atoms: O_34  and  C_35
REMARK                            x       y       z     vdW  Elec       q    Type
REMARK                         _______ _______ _______ _____ _____    ______ ____
ROOT
ATOM      1  C   UNL     1      -9.844  16.624  68.040  0.00  0.00    +0.135 A 
ATOM      2  C   UNL     1     -10.227  15.296  68.173  0.00  0.00    +0.016 A 
ATOM      3  C   UNL     1      -9.208  14.355  68.229  0.00  0.00    -0.001 A 
ATOM      4  C   UNL     1      -7.984  14.748  68.754  0.00  0.00    +0.005 A 
ATOM      5  C   UNL     1      -7.559  16.065  68.630  0.00  0.00    +0.062 A 
ATOM      6  C   UNL     1      -8.526  16.987  68.267  0.00  0.00    +0.041 A 
ENDROOT
BRANCH   5   7
ATOM      7  C   UNL     1      -6.124  16.333  68.488  0.00  0.00    +0.297 C 
ATOM      8  N   UNL     1      -5.422  16.869  69.442  0.00  0.00    -0.086 NA
ATOM      9  O   UNL     1      -5.683  16.579  67.185  0.00  0.00    -0.264 OA
BRANCH   8  10
ATOM     10  S   UNL     1      -4.208  18.049  69.160  0.00  0.00    +0.103 S 
ATOM     11  O   UNL     1      -3.112  17.389  68.357  0.00  0.00    -0.146 OA
ATOM     12  O   UNL     1      -3.636  18.588  70.447  0.00  0.00    -0.146 OA
BRANCH  10  13
ATOM     13  C   UNL     1      -4.793  19.392  68.224  0.00  0.00    +0.125 A 
ATOM     14  C   UNL     1      -5.909  20.130  68.559  0.00  0.00    -0.003 A 
ATOM     15  C   UNL     1      -6.526  19.912  69.886  0.00  0.00    +0.032 C 
ATOM     16  C   UNL     1      -6.414  21.025  67.627  0.00  0.00    -0.003 A 
ATOM     17  C   UNL     1      -5.952  20.968  66.320  0.00  0.00    -0.000 A 
ATOM     18  C   UNL     1      -4.647  20.540  66.129  0.00  0.00    +0.001 A 
ATOM     19  C   UNL     1      -4.075  19.781  67.124  0.00  0.00    +0.020 A 
ENDBRANCH  10  13
ENDBRANCH   8  10
ENDBRANCH   5   7
BRANCH   1  21
ATOM     20  C   UNL     1     -10.413  18.911  67.651  0.00  0.00    +0.252 C 
ATOM     21  O   UNL     1     -10.834  17.595  67.992  0.00  0.00    -0.472 OA
ENDBRANCH   1  21
BRANCH   2  22
ATOM     22  C   UNL     1     -11.656  14.946  68.361  0.00  0.00    +0.057 C 
BRANCH  22  23
ATOM     23  C   UNL     1     -11.958  14.755  69.814  0.00  0.00    +0.001 A 
ATOM     24  C   UNL     1     -12.132  13.561  70.504  0.00  0.00    +0.015 A 
ATOM     25  C   UNL     1     -12.803  13.848  71.686  0.00  0.00    +0.060 A 
ATOM     26  C   UNL     1     -13.565  12.819  72.225  0.00  0.00    +0.019 A 
ATOM     27  C   UNL     1     -13.339  11.499  71.852  0.00  0.00    +0.018 A 
ATOM     28  C   UNL     1     -12.390  11.177  70.890  0.00  0.00    +0.077 A 
ATOM     29  N   UNL     1     -12.883  15.182  71.785  0.00  0.00    -0.324 N 
ATOM     30  C   UNL     1     -13.612  15.859  72.837  0.00  0.00    +0.130 C 
ATOM     31  C   UNL     1     -11.995  12.242  70.088  0.00  0.00    +0.018 A 
ATOM     32  C   UNL     1     -12.529  15.737  70.615  0.00  0.00    +0.072 A 
BRANCH  28  33
ATOM     33  N   UNL     1     -11.567  10.010  71.021  0.00  0.00    -0.142 NA
ATOM     34  C   UNL     1     -12.052   8.792  71.579  0.00  0.00    +0.425 C 
ATOM     35  O   UNL     1     -13.270   8.530  71.356  0.00  0.00    -0.224 OA
BRANCH  34  36
ATOM     36  O   UNL     1     -11.371   8.052  72.523  0.00  0.00    -0.437 OA
BRANCH  36  37
ATOM     37  C   UNL     1     -10.032   7.594  72.348  0.00  0.00    +0.171 C 
ATOM     38  C   UNL     1     -10.129   6.081  72.199  0.00  0.00    +0.044 C 
ATOM     39  C   UNL     1     -10.578   5.685  73.595  0.00  0.00    +0.004 C 
ATOM     40  C   UNL     1      -9.682   6.515  74.494  0.00  0.00    +0.004 C 
ATOM     41  C   UNL     1      -9.298   7.727  73.674  0.00  0.00    +0.044 C 
ENDBRANCH  36  37
ENDBRANCH  34  36
ENDBRANCH  28  33
ENDBRANCH  22  23
ENDBRANCH   2  22
TORSDOF 9
ENDMDL
MODEL 3
REMARK VINA RESULT:      -8.2      2.737      4.811
REMARK  Name = 
REMARK  9 active torsions:
REMARK  status: ('A' for Active; 'I' for Inactive)
REMARK    1  A    between atoms: O_2  and  C_3
REMARK    2  A    between atoms: C_5  and  C_6
REMARK    3  A    between atoms: N_8  and  S_9
REMARK    4  A    between atoms: S_9  and  C_12
REMARK    5  A    between atoms: C_21  and  C_22
REMARK    6  A    between atoms: C_22  and  C_23
REMARK    7  A    between atoms: C_30  and  N_31
REMARK    8  A    between atoms: C_32  and  O_34
REMARK    9  A    between atoms: O_34  and  C_35
REMARK                            x       y       z     vdW  Elec       q    Type
REMARK                         _______ _______ _______ _____ _____    ______ ____
ROOT
ATOM      1  C   UNL     1     -11.553  14.243  67.081  0.00  0.00    +0.135 A 
ATOM      2  C   UNL     1     -11.676  13.846  65.756  0.00  0.00    +0.016 A 
ATOM      3  C   UNL     1     -11.016  14.618  64.810  0.00  0.00    -0.001 A 
ATOM      4  C   UNL     1      -9.860  15.281  65.199  0.00  0.00    +0.005 A 
ATOM      5  C   UNL     1      -9.704  15.706  66.512  0.00  0.00    +0.062 A 
ATOM      6  C   UNL     1     -10.578  15.161  67.437  0.00  0.00    +0.041 A 
ENDROOT
BRANCH   5   7
ATOM      7  C   UNL     1      -8.953  16.938  66.770  0.00  0.00    +0.297 C 
ATOM      8  N   UNL     1      -9.437  17.907  67.489  0.00  0.00    -0.086 NA
ATOM      9  O   UNL     1      -8.035  17.304  65.781  0.00  0.00    -0.264 OA
BRANCH   8  10
ATOM     10  S   UNL     1      -9.225  19.563  67.091  0.00  0.00    +0.103 S 
ATOM     11  O   UNL     1      -9.904  20.379  68.166  0.00  0.00    -0.146 OA
ATOM     12  O   UNL     1      -9.823  19.902  65.748  0.00  0.00    -0.146 OA
BRANCH  10  13
ATOM     13  C   UNL     1      -7.551  20.031  67.070  0.00  0.00    +0.125 A 
ATOM     14  C   UNL     1      -6.741  20.026  68.187  0.00  0.00    -0.003 A 
ATOM     15  C   UNL     1      -7.251  19.396  69.425  0.00  0.00    +0.032 C 
ATOM     16  C   UNL     1      -5.496  20.632  68.104  0.00  0.00    -0.003 A 
ATOM     17  C   UNL     1      -5.210  21.434  67.009  0.00  0.00    -0.000 A 
ATOM     18  C   UNL     1      -5.826  21.111  65.810  0.00  0.00    +0.001 A 
ATOM     19  C   UNL     1      -6.983  20.367  65.871  0.00  0.00    +0.020 A 
ENDBRANCH  10  13
ENDBRANCH   8  10
ENDBRANCH   5   7
BRANCH   1  21
ATOM     20  C   UNL     1     -11.960  13.881  69.407  0.00  0.00    +0.252 C 
ATOM     21  O   UNL     1     -12.190  13.490  68.058  0.00  0.00    -0.472 OA
ENDBRANCH   1  21
BRANCH   2  22
ATOM     22  C   UNL     1     -12.388  12.590  65.416  0.00  0.00    +0.057 C 
BRANCH  22  23
ATOM     23  C   UNL     1     -11.416  11.552  64.950  0.00  0.00    +0.001 A 
ATOM     24  C   UNL     1     -10.458  10.878  65.698  0.00  0.00    +0.015 A 
ATOM     25  C   UNL     1      -9.524  10.351  64.814  0.00  0.00    +0.060 A 
ATOM     26  C   UNL     1      -8.243  10.160  65.317  0.00  0.00    +0.019 A 
ATOM     27  C   UNL     1      -8.021  10.097  66.688  0.00  0.00    +0.018 A 
ATOM     28  C   UNL     1      -9.060  10.283  67.593  0.00  0.00    +0.077 A 
ATOM     29  N   UNL     1      -9.988  10.557  63.574  0.00  0.00    -0.324 N 
ATOM     30  C   UNL     1      -9.234  10.238  62.379  0.00  0.00    +0.130 C 
ATOM     31  C   UNL     1     -10.186  10.900  67.060  0.00  0.00    +0.018 A 
ATOM     32  C   UNL     1     -11.030  11.402  63.623  0.00  0.00    +0.072 A 
BRANCH  28  33
ATOM     33  N   UNL     1      -9.145   9.505  68.794  0.00  0.00    -0.142 NA
ATOM     34  C   UNL     1     -10.070   8.433  68.947  0.00  0.00    +0.425 C 
ATOM     35  O   UNL     1     -10.328   7.774  67.897  0.00  0.00    -0.224 OA
BRANCH  34  36
ATOM     36  O   UNL     1     -10.862   8.251  70.061  0.00  0.00    -0.437 OA
BRANCH  36  37
ATOM     37  C   UNL     1     -10.811   9.096  71.209  0.00  0.00    +0.171 C 
ATOM     38  C   UNL     1     -11.414   8.283  72.348  0.00  0.00    +0.044 C 
ATOM     39  C   UNL     1     -12.862   8.194  71.898  0.00  0.00    +0.004 C 
ATOM     40  C   UNL     1     -13.171   9.608  71.448  0.00  0.00    +0.004 C 
ATOM     41  C   UNL     1     -11.841  10.203  71.041  0.00  0.00    +0.044 C 
ENDBRANCH  36  37
ENDBRANCH  34  36
ENDBRANCH  28  33
ENDBRANCH  22  23
ENDBRANCH   2  22
TORSDOF 9
ENDMDL
MODEL 4
REMARK VINA RESULT:      -8.2      3.178      6.220
REMARK  Name = 
REMARK  9 active torsions:
REMARK  status: ('A' for Active; 'I' for Inactive)
REMARK    1  A    between atoms: O_2  and  C_3
REMARK    2  A    between atoms: C_5  and  C_6
REMARK    3  A    between atoms: N_8  and  S_9
REMARK    4  A    between atoms: S_9  and  C_12
REMARK    5  A    between atoms: C_21  and  C_22
REMARK    6  A    between atoms: C_22  and  C_23
REMARK    7  A    between atoms: C_30  and  N_31
REMARK    8  A    between atoms: C_32  and  O_34
REMARK    9  A    between atoms: O_34  and  C_35
REMARK                            x       y       z     vdW  Elec       q    Type
REMARK                         _______ _______ _______ _____ _____    ______ ____
ROOT
ATOM      1  C   UNL     1     -10.639  15.777  66.294  0.00  0.00    +0.135 A 
ATOM      2  C   UNL     1     -10.827  15.425  67.624  0.00  0.00    +0.016 A 
ATOM      3  C   UNL     1     -10.228  16.239  68.575  0.00  0.00    -0.001 A 
ATOM      4  C   UNL     1     -10.040  17.579  68.264  0.00  0.00    +0.005 A 
ATOM      5  C   UNL     1      -9.835  17.970  66.947  0.00  0.00    +0.062 A 
ATOM      6  C   UNL     1     -10.148  17.034  65.977  0.00  0.00    +0.041 A 
ENDROOT
BRANCH   5   7
ATOM      7  C   UNL     1      -8.965  19.119  66.679  0.00  0.00    +0.297 C 
ATOM      8  N   UNL     1      -7.913  19.029  65.921  0.00  0.00    -0.086 NA
ATOM      9  O   UNL     1      -8.917  20.087  67.687  0.00  0.00    -0.264 OA
BRANCH   8  10
ATOM     10  S   UNL     1      -6.430  19.815  66.281  0.00  0.00    +0.103 S 
ATOM     11  O   UNL     1      -6.685  21.304  66.244  0.00  0.00    -0.146 OA
ATOM     12  O   UNL     1      -5.349  19.463  65.288  0.00  0.00    -0.146 OA
BRANCH  10  13
ATOM     13  C   UNL     1      -5.846  19.433  67.873  0.00  0.00    +0.125 A 
ATOM     14  C   UNL     1      -5.826  18.157  68.395  0.00  0.00    -0.003 A 
ATOM     15  C   UNL     1      -6.117  17.021  67.492  0.00  0.00    +0.032 C 
ATOM     16  C   UNL     1      -5.557  17.999  69.747  0.00  0.00    -0.003 A 
ATOM     17  C   UNL     1      -5.571  19.116  70.570  0.00  0.00    -0.000 A 
ATOM     18  C   UNL     1      -5.210  20.327  70.001  0.00  0.00    +0.001 A 
ATOM     19  C   UNL     1      -5.320  20.443  68.634  0.00  0.00    +0.020 A 
ENDBRANCH  10  13
ENDBRANCH   8  10
ENDBRANCH   5   7
BRANCH   1  21
ATOM     20  C   UNL     1     -10.410  13.999  64.716  0.00  0.00    +0.252 C 
ATOM     21  O   UNL     1     -11.233  14.994  65.314  0.00  0.00    -0.472 OA
ENDBRANCH   1  21
BRANCH   2  22
ATOM     22  C   UNL     1     -11.725  14.299  67.979  0.00  0.00    +0.057 C 
BRANCH  22  23
ATOM     23  C   UNL     1     -11.996  14.294  69.451  0.00  0.00    +0.001 A 
ATOM     24  C   UNL     1     -12.120  13.198  70.296  0.00  0.00    +0.015 A 
ATOM     25  C   UNL     1     -12.780  13.620  71.444  0.00  0.00    +0.060 A 
ATOM     26  C   UNL     1     -13.500  12.650  72.130  0.00  0.00    +0.019 A 
ATOM     27  C   UNL     1     -13.239  11.300  71.930  0.00  0.00    +0.018 A 
ATOM     28  C   UNL     1     -12.296  10.880  70.999  0.00  0.00    +0.077 A 
ATOM     29  N   UNL     1     -12.900  14.952  71.367  0.00  0.00    -0.324 N 
ATOM     30  C   UNL     1     -13.633  15.742  72.336  0.00  0.00    +0.130 C 
ATOM     31  C   UNL     1     -11.950  11.840  70.056  0.00  0.00    +0.018 A 
ATOM     32  C   UNL     1     -12.584  15.357  70.127  0.00  0.00    +0.072 A 
BRANCH  28  33
ATOM     33  N   UNL     1     -11.436   9.765  71.267  0.00  0.00    -0.142 NA
ATOM     34  C   UNL     1     -11.923   8.528  71.778  0.00  0.00    +0.425 C 
ATOM     35  O   UNL     1     -13.082   8.192  71.395  0.00  0.00    -0.224 OA
BRANCH  34  36
ATOM     36  O   UNL     1     -11.339   7.841  72.822  0.00  0.00    -0.437 OA
BRANCH  36  37
ATOM     37  C   UNL     1     -10.076   7.187  72.724  0.00  0.00    +0.171 C 
ATOM     38  C   UNL     1     -10.340   5.889  71.969  0.00  0.00    +0.044 C 
ATOM     39  C   UNL     1     -11.178   5.134  72.986  0.00  0.00    +0.004 C 
ATOM     40  C   UNL     1     -10.434   5.365  74.287  0.00  0.00    +0.004 C 
ATOM     41  C   UNL     1      -9.690   6.670  74.101  0.00  0.00    +0.044 C 
ENDBRANCH  36  37
ENDBRANCH  34  36
ENDBRANCH  28  33
ENDBRANCH  22  23
ENDBRANCH   2  22
TORSDOF 9
ENDMDL
MODEL 5
REMARK VINA RESULT:      -8.2      2.786      5.026
REMARK  Name = 
REMARK  9 active torsions:
REMARK  status: ('A' for Active; 'I' for Inactive)
REMARK    1  A    between atoms: O_2  and  C_3
REMARK    2  A    between atoms: C_5  and  C_6
REMARK    3  A    between atoms: N_8  and  S_9
REMARK    4  A    between atoms: S_9  and  C_12
REMARK    5  A    between atoms: C_21  and  C_22
REMARK    6  A    between atoms: C_22  and  C_23
REMARK    7  A    between atoms: C_30  and  N_31
REMARK    8  A    between atoms: C_32  and  O_34
REMARK    9  A    between atoms: O_34  and  C_35
REMARK                            x       y       z     vdW  Elec       q    Type
REMARK                         _______ _______ _______ _____ _____    ______ ____
ROOT
ATOM      1  C   UNL     1     -11.678  14.612  67.139  0.00  0.00    +0.135 A 
ATOM      2  C   UNL     1     -11.956  14.162  65.856  0.00  0.00    +0.016 A 
ATOM      3  C   UNL     1     -11.592  14.998  64.809  0.00  0.00    -0.001 A 
ATOM      4  C   UNL     1     -10.506  15.842  64.994  0.00  0.00    +0.005 A 
ATOM      5  C   UNL     1     -10.202  16.325  66.261  0.00  0.00    +0.062 A 
ATOM      6  C   UNL     1     -10.813  15.680  67.323  0.00  0.00    +0.041 A 
ENDROOT
BRANCH   5   7
ATOM      7  C   UNL     1      -9.620  17.665  66.384  0.00  0.00    +0.297 C 
ATOM      8  N   UNL     1      -8.538  17.891  67.068  0.00  0.00    -0.086 NA
ATOM      9  O   UNL     1     -10.527  18.726  66.299  0.00  0.00    -0.264 OA
BRANCH   8  10
ATOM     10  S   UNL     1      -8.330  19.274  68.062  0.00  0.00    +0.103 S 
ATOM     11  O   UNL     1      -9.446  19.271  69.081  0.00  0.00    -0.146 OA
ATOM     12  O   UNL     1      -8.378  20.554  67.266  0.00  0.00    -0.146 OA
BRANCH  10  13
ATOM     13  C   UNL     1      -6.831  19.240  68.942  0.00  0.00    +0.125 A 
ATOM     14  C   UNL     1      -6.303  18.100  69.510  0.00  0.00    -0.003 A 
ATOM     15  C   UNL     1      -6.925  16.797  69.185  0.00  0.00    +0.032 C 
ATOM     16  C   UNL     1      -5.228  18.230  70.378  0.00  0.00    -0.003 A 
ATOM     17  C   UNL     1      -4.887  19.492  70.841  0.00  0.00    -0.000 A 
ATOM     18  C   UNL     1      -5.143  20.565  70.002  0.00  0.00    +0.001 A 
ATOM     19  C   UNL     1      -6.100  20.395  69.027  0.00  0.00    +0.020 A 
ENDBRANCH  10  13
ENDBRANCH   8  10
ENDBRANCH   5   7
BRANCH   1  21
ATOM     20  C   UNL     1     -11.684  14.291  69.506  0.00  0.00    +0.252 C 
ATOM     21  O   UNL     1     -12.016  13.800  68.213  0.00  0.00    -0.472 OA
ENDBRANCH   1  21
BRANCH   2  22
ATOM     22  C   UNL     1     -12.509  12.802  65.645  0.00  0.00    +0.057 C 
BRANCH  22  23
ATOM     23  C   UNL     1     -11.447  11.884  65.127  0.00  0.00    +0.001 A 
ATOM     24  C   UNL     1     -10.466  11.214  65.848  0.00  0.00    +0.015 A 
ATOM     25  C   UNL     1      -9.466  10.840  64.958  0.00  0.00    +0.060 A 
ATOM     26  C   UNL     1      -8.192  10.695  65.492  0.00  0.00    +0.019 A 
ATOM     27  C   UNL     1      -8.012  10.522  66.859  0.00  0.00    +0.018 A 
ATOM     28  C   UNL     1      -9.090  10.547  67.735  0.00  0.00    +0.077 A 
ATOM     29  N   UNL     1      -9.904  11.126  63.725  0.00  0.00    -0.324 N 
ATOM     30  C   UNL     1      -9.089  10.975  62.536  0.00  0.00    +0.130 C 
ATOM     31  C   UNL     1     -10.241  11.129  67.216  0.00  0.00    +0.018 A 
ATOM     32  C   UNL     1     -11.007  11.887  63.808  0.00  0.00    +0.072 A 
BRANCH  28  33
ATOM     33  N   UNL     1      -9.156   9.657  68.857  0.00  0.00    -0.142 NA
ATOM     34  C   UNL     1     -10.115   8.607  68.945  0.00  0.00    +0.425 C 
ATOM     35  O   UNL     1     -10.440   8.064  67.848  0.00  0.00    -0.224 OA
BRANCH  34  36
ATOM     36  O   UNL     1     -10.867   8.342  70.069  0.00  0.00    -0.437 OA
BRANCH  36  37
ATOM     37  C   UNL     1     -10.884   9.183  71.221  0.00  0.00    +0.171 C 
ATOM     38  C   UNL     1     -11.479   8.338  72.341  0.00  0.00    +0.044 C 
ATOM     39  C   UNL     1     -12.910   8.187  71.854  0.00  0.00    +0.004 C 
ATOM     40  C   UNL     1     -13.270   9.587  71.400  0.00  0.00    +0.004 C 
ATOM     41  C   UNL     1     -11.958  10.243  71.030  0.00  0.00    +0.044 C 
ENDBRANCH  36  37
ENDBRANCH  34  36
ENDBRANCH  28  33
ENDBRANCH  22  23
ENDBRANCH   2  22
TORSDOF 9
ENDMDL
MODEL 6
REMARK VINA RESULT:      -8.2      3.323      9.059
REMARK  Name = 
REMARK  9 active torsions:
REMARK  status: ('A' for Active; 'I' for Inactive)
REMARK    1  A    between atoms: O_2  and  C_3
REMARK    2  A    between atoms: C_5  and  C_6
REMARK    3  A    between atoms: N_8  and  S_9
REMARK    4  A    between atoms: S_9  and  C_12
REMARK    5  A    between atoms: C_21  and  C_22
REMARK    6  A    between atoms: C_22  and  C_23
REMARK    7  A    between atoms: C_30  and  N_31
REMARK    8  A    between atoms: C_32  and  O_34
REMARK    9  A    between atoms: O_34  and  C_35
REMARK                            x       y       z     vdW  Elec       q    Type
REMARK                         _______ _______ _______ _____ _____    ______ ____
ROOT
ATOM      1  C   UNL     1     -12.877  13.453  71.621  0.00  0.00    +0.135 A 
ATOM      2  C   UNL     1     -12.211  13.739  70.437  0.00  0.00    +0.016 A 
ATOM      3  C   UNL     1     -11.608  12.671  69.787  0.00  0.00    -0.001 A 
ATOM      4  C   UNL     1     -12.167  11.410  69.945  0.00  0.00    +0.005 A 
ATOM      5  C   UNL     1     -12.831  11.080  71.121  0.00  0.00    +0.062 A 
ATOM      6  C   UNL     1     -13.174  12.138  71.945  0.00  0.00    +0.041 A 
ENDROOT
BRANCH   5   7
ATOM      7  C   UNL     1     -12.769   9.697  71.602  0.00  0.00    +0.297 C 
ATOM      8  N   UNL     1     -11.665   9.162  72.033  0.00  0.00    -0.086 NA
ATOM      9  O   UNL     1     -13.699   8.820  71.037  0.00  0.00    -0.264 OA
BRANCH   8  10
ATOM     10  S   UNL     1     -11.210   7.545  71.683  0.00  0.00    +0.103 S 
ATOM     11  O   UNL     1     -12.428   6.676  71.892  0.00  0.00    -0.146 OA
ATOM     12  O   UNL     1     -10.091   7.068  72.575  0.00  0.00    -0.146 OA
BRANCH  10  13
ATOM     13  C   UNL     1     -10.710   7.339  70.031  0.00  0.00    +0.125 A 
ATOM     14  C   UNL     1      -9.865   8.209  69.374  0.00  0.00    -0.003 A 
ATOM     15  C   UNL     1      -9.179   9.256  70.161  0.00  0.00    +0.032 C 
ATOM     16  C   UNL     1      -9.717   8.075  68.000  0.00  0.00    -0.003 A 
ATOM     17  C   UNL     1     -10.597   7.260  67.305  0.00  0.00    -0.000 A 
ATOM     18  C   UNL     1     -11.121   6.170  67.983  0.00  0.00    +0.001 A 
ATOM     19  C   UNL     1     -11.126   6.221  69.359  0.00  0.00    +0.020 A 
ENDBRANCH  10  13
ENDBRANCH   8  10
ENDBRANCH   5   7
BRANCH   1  21
ATOM     20  C   UNL     1     -12.813  15.021  73.422  0.00  0.00    +0.252 C 
ATOM     21  O   UNL     1     -13.503  14.493  72.294  0.00  0.00    -0.472 OA
ENDBRANCH   1  21
BRANCH   2  22
ATOM     22  C   UNL     1     -12.259  15.106  69.864  0.00  0.00    +0.057 C 
BRANCH  22  23
ATOM     23  C   UNL     1     -11.491  15.159  68.581  0.00  0.00    +0.001 A 
ATOM     24  C   UNL     1     -10.750  16.218  68.069  0.00  0.00    +0.015 A 
ATOM     25  C   UNL     1     -10.578  15.996  66.708  0.00  0.00    +0.060 A 
ATOM     26  C   UNL     1     -10.399  17.126  65.919  0.00  0.00    +0.019 A 
ATOM     27  C   UNL     1     -10.002  18.331  66.487  0.00  0.00    +0.018 A 
ATOM     28  C   UNL     1      -9.830  18.456  67.860  0.00  0.00    +0.077 A 
ATOM     29  N   UNL     1     -11.051  14.772  66.441  0.00  0.00    -0.324 N 
ATOM     30  C   UNL     1     -11.141  14.228  65.101  0.00  0.00    +0.130 C 
ATOM     31  C   UNL     1     -10.441  17.459  68.611  0.00  0.00    +0.018 A 
ATOM     32  C   UNL     1     -11.738  14.319  67.502  0.00  0.00    +0.072 A 
BRANCH  28  33
ATOM     33  N   UNL     1      -8.759  19.238  68.405  0.00  0.00    -0.142 NA
ATOM     34  C   UNL     1      -7.428  18.741  68.512  0.00  0.00    +0.425 C 
ATOM     35  O   UNL     1      -7.061  17.948  67.596  0.00  0.00    -0.224 OA
BRANCH  34  36
ATOM     36  O   UNL     1      -6.648  18.863  69.642  0.00  0.00    -0.437 OA
BRANCH  36  37
ATOM     37  C   UNL     1      -6.258  20.118  70.197  0.00  0.00    +0.171 C 
ATOM     38  C   UNL     1      -5.323  20.751  69.174  0.00  0.00    +0.044 C 
ATOM     39  C   UNL     1      -4.131  19.812  69.259  0.00  0.00    +0.004 C 
ATOM     40  C   UNL     1      -3.948  19.623  70.752  0.00  0.00    +0.004 C 
ATOM     41  C   UNL     1      -5.313  19.860  71.360  0.00  0.00    +0.044 C 
ENDBRANCH  36  37
ENDBRANCH  34  36
ENDBRANCH  28  33
ENDBRANCH  22  23
ENDBRANCH   2  22
TORSDOF 9
ENDMDL
MODEL 7
REMARK VINA RESULT:      -8.1      2.763      5.401
REMARK  Name = 
REMARK  9 active torsions:
REMARK  status: ('A' for Active; 'I' for Inactive)
REMARK    1  A    between atoms: O_2  and  C_3
REMARK    2  A    between atoms: C_5  and  C_6
REMARK    3  A    between atoms: N_8  and  S_9
REMARK    4  A    between atoms: S_9  and  C_12
REMARK    5  A    between atoms: C_21  and  C_22
REMARK    6  A    between atoms: C_22  and  C_23
REMARK    7  A    between atoms: C_30  and  N_31
REMARK    8  A    between atoms: C_32  and  O_34
REMARK    9  A    between atoms: O_34  and  C_35
REMARK                            x       y       z     vdW  Elec       q    Type
REMARK                         _______ _______ _______ _____ _____    ______ ____
ROOT
ATOM      1  C   UNL     1     -11.266  16.329  68.142  0.00  0.00    +0.135 A 
ATOM      2  C   UNL     1     -11.280  15.201  67.334  0.00  0.00    +0.016 A 
ATOM      3  C   UNL     1     -10.516  15.253  66.176  0.00  0.00    -0.001 A 
ATOM      4  C   UNL     1      -9.382  16.054  66.177  0.00  0.00    +0.005 A 
ATOM      5  C   UNL     1      -9.334  17.199  66.961  0.00  0.00    +0.062 A 
ATOM      6  C   UNL     1     -10.302  17.306  67.945  0.00  0.00    +0.041 A 
ENDROOT
BRANCH   5   7
ATOM      7  C   UNL     1      -8.575  18.356  66.476  0.00  0.00    +0.297 C 
ATOM      8  N   UNL     1      -7.502  18.227  65.753  0.00  0.00    -0.086 NA
ATOM      9  O   UNL     1      -8.647  19.502  67.272  0.00  0.00    -0.264 OA
BRANCH   8  10
ATOM     10  S   UNL     1      -6.113  19.214  65.956  0.00  0.00    +0.103 S 
ATOM     11  O   UNL     1      -6.455  20.590  65.434  0.00  0.00    -0.146 OA
ATOM     12  O   UNL     1      -4.921  18.672  65.206  0.00  0.00    -0.146 OA
BRANCH  10  13
ATOM     13  C   UNL     1      -5.665  19.394  67.626  0.00  0.00    +0.125 A 
ATOM     14  C   UNL     1      -5.477  18.332  68.486  0.00  0.00    -0.003 A 
ATOM     15  C   UNL     1      -5.448  16.964  67.923  0.00  0.00    +0.032 C 
ATOM     16  C   UNL     1      -5.348  18.595  69.842  0.00  0.00    -0.003 A 
ATOM     17  C   UNL     1      -5.662  19.861  70.315  0.00  0.00    -0.000 A 
ATOM     18  C   UNL     1      -5.460  20.927  69.452  0.00  0.00    +0.001 A 
ATOM     19  C   UNL     1      -5.425  20.654  68.104  0.00  0.00    +0.020 A 
ENDBRANCH  10  13
ENDBRANCH   8  10
ENDBRANCH   5   7
BRANCH   1  21
ATOM     20  C   UNL     1     -11.281  16.095  70.519  0.00  0.00    +0.252 C 
ATOM     21  O   UNL     1     -12.008  16.312  69.315  0.00  0.00    -0.472 OA
ENDBRANCH   1  21
BRANCH   2  22
ATOM     22  C   UNL     1     -11.992  13.976  67.774  0.00  0.00    +0.057 C 
BRANCH  22  23
ATOM     23  C   UNL     1     -11.897  12.915  66.724  0.00  0.00    +0.001 A 
ATOM     24  C   UNL     1     -10.990  11.864  66.646  0.00  0.00    +0.015 A 
ATOM     25  C   UNL     1     -10.985  11.403  65.335  0.00  0.00    +0.060 A 
ATOM     26  C   UNL     1      -9.812  10.799  64.901  0.00  0.00    +0.019 A 
ATOM     27  C   UNL     1      -8.883  10.317  65.815  0.00  0.00    +0.018 A 
ATOM     28  C   UNL     1      -9.070  10.476  67.183  0.00  0.00    +0.077 A 
ATOM     29  N   UNL     1     -11.971  12.038  64.687  0.00  0.00    -0.324 N 
ATOM     30  C   UNL     1     -12.207  11.898  63.265  0.00  0.00    +0.130 C 
ATOM     31  C   UNL     1      -9.998  11.452  67.528  0.00  0.00    +0.018 A 
ATOM     32  C   UNL     1     -12.423  13.050  65.445  0.00  0.00    +0.072 A 
BRANCH  28  33
ATOM     33  N   UNL     1      -8.712   9.440  68.106  0.00  0.00    -0.142 NA
ATOM     34  C   UNL     1      -9.655   8.486  68.587  0.00  0.00    +0.425 C 
ATOM     35  O   UNL     1     -10.561   8.146  67.770  0.00  0.00    -0.224 OA
BRANCH  34  36
ATOM     36  O   UNL     1      -9.783   8.130  69.913  0.00  0.00    -0.437 OA
BRANCH  36  37
ATOM     37  C   UNL     1      -9.851   9.075  70.978  0.00  0.00    +0.171 C 
ATOM     38  C   UNL     1     -10.114   8.260  72.239  0.00  0.00    +0.044 C 
ATOM     39  C   UNL     1     -11.524   7.764  71.966  0.00  0.00    +0.004 C 
ATOM     40  C   UNL     1     -12.231   9.000  71.446  0.00  0.00    +0.004 C 
ATOM     41  C   UNL     1     -11.144   9.864  70.845  0.00  0.00    +0.044 C 
ENDBRANCH  36  37
ENDBRANCH  34  36
ENDBRANCH  28  33
ENDBRANCH  22  23
ENDBRANCH   2  22
TORSDOF 9
ENDMDL
MODEL 8
REMARK VINA RESULT:      -8.0      2.962      5.052
REMARK  Name = 
REMARK  9 active torsions:
REMARK  status: ('A' for Active; 'I' for Inactive)
REMARK    1  A    between atoms: O_2  and  C_3
REMARK    2  A    between atoms: C_5  and  C_6
REMARK    3  A    between atoms: N_8  and  S_9
REMARK    4  A    between atoms: S_9  and  C_12
REMARK    5  A    between atoms: C_21  and  C_22
REMARK    6  A    between atoms: C_22  and  C_23
REMARK    7  A    between atoms: C_30  and  N_31
REMARK    8  A    between atoms: C_32  and  O_34
REMARK    9  A    between atoms: O_34  and  C_35
REMARK                            x       y       z     vdW  Elec       q    Type
REMARK                         _______ _______ _______ _____ _____    ______ ____
ROOT
ATOM      1  C   UNL     1     -11.841  14.367  66.985  0.00  0.00    +0.135 A 
ATOM      2  C   UNL     1     -12.060  13.974  65.672  0.00  0.00    +0.016 A 
ATOM      3  C   UNL     1     -11.732  14.891  64.683  0.00  0.00    -0.001 A 
ATOM      4  C   UNL     1     -10.710  15.795  64.943  0.00  0.00    +0.005 A 
ATOM      5  C   UNL     1     -10.468  16.224  66.242  0.00  0.00    +0.062 A 
ATOM      6  C   UNL     1     -11.055  15.479  67.250  0.00  0.00    +0.041 A 
ENDROOT
BRANCH   5   7
ATOM      7  C   UNL     1      -9.983  17.591  66.455  0.00  0.00    +0.297 C 
ATOM      8  N   UNL     1      -8.836  17.998  65.996  0.00  0.00    -0.086 NA
ATOM      9  O   UNL     1     -10.440  18.219  67.616  0.00  0.00    -0.264 OA
BRANCH   8  10
ATOM     10  S   UNL     1      -7.783  19.020  66.886  0.00  0.00    +0.103 S 
ATOM     11  O   UNL     1      -7.269  18.225  68.064  0.00  0.00    -0.146 OA
ATOM     12  O   UNL     1      -8.485  20.260  67.382  0.00  0.00    -0.146 OA
BRANCH  10  13
ATOM     13  C   UNL     1      -6.399  19.517  65.959  0.00  0.00    +0.125 A 
ATOM     14  C   UNL     1      -5.544  20.528  66.343  0.00  0.00    -0.003 A 
ATOM     15  C   UNL     1      -5.677  21.085  67.707  0.00  0.00    +0.032 C 
ATOM     16  C   UNL     1      -4.614  20.992  65.423  0.00  0.00    -0.003 A 
ATOM     17  C   UNL     1      -4.737  20.616  64.094  0.00  0.00    -0.000 A 
ATOM     18  C   UNL     1      -5.302  19.377  63.836  0.00  0.00    +0.001 A 
ATOM     19  C   UNL     1      -6.103  18.829  64.812  0.00  0.00    +0.020 A 
ENDBRANCH  10  13
ENDBRANCH   8  10
ENDBRANCH   5   7
BRANCH   1  21
ATOM     20  C   UNL     1     -11.759  13.857  69.317  0.00  0.00    +0.252 C 
ATOM     21  O   UNL     1     -12.145  13.473  68.002  0.00  0.00    -0.472 OA
ENDBRANCH   1  21
BRANCH   2  22
ATOM     22  C   UNL     1     -12.513  12.594  65.371  0.00  0.00    +0.057 C 
BRANCH  22  23
ATOM     23  C   UNL     1     -11.365  11.763  64.892  0.00  0.00    +0.001 A 
ATOM     24  C   UNL     1     -10.375  11.150  65.651  0.00  0.00    +0.015 A 
ATOM     25  C   UNL     1      -9.309  10.864  64.807  0.00  0.00    +0.060 A 
ATOM     26  C   UNL     1      -8.055  10.799  65.402  0.00  0.00    +0.019 A 
ATOM     27  C   UNL     1      -7.929  10.613  66.773  0.00  0.00    +0.018 A 
ATOM     28  C   UNL     1      -9.048  10.547  67.595  0.00  0.00    +0.077 A 
ATOM     29  N   UNL     1      -9.705  11.141  63.558  0.00  0.00    -0.324 N 
ATOM     30  C   UNL     1      -8.825  11.069  62.409  0.00  0.00    +0.130 C 
ATOM     31  C   UNL     1     -10.211  11.055  67.028  0.00  0.00    +0.018 A 
ATOM     32  C   UNL     1     -10.862  11.821  63.598  0.00  0.00    +0.072 A 
BRANCH  28  33
ATOM     33  N   UNL     1      -9.105   9.633  68.698  0.00  0.00    -0.142 NA
ATOM     34  C   UNL     1     -10.120   8.641  68.818  0.00  0.00    +0.425 C 
ATOM     35  O   UNL     1     -10.539   8.147  67.730  0.00  0.00    -0.224 OA
BRANCH  34  36
ATOM     36  O   UNL     1     -10.822   8.392  69.978  0.00  0.00    -0.437 OA
BRANCH  36  37
ATOM     37  C   UNL     1     -10.828   9.275  71.099  0.00  0.00    +0.171 C 
ATOM     38  C   UNL     1     -11.504   8.506  72.228  0.00  0.00    +0.044 C 
ATOM     39  C   UNL     1     -12.926   8.416  71.698  0.00  0.00    +0.004 C 
ATOM     40  C   UNL     1     -13.192   9.818  71.184  0.00  0.00    +0.004 C 
ATOM     41  C   UNL     1     -11.833  10.385  70.836  0.00  0.00    +0.044 C 
ENDBRANCH  36  37
ENDBRANCH  34  36
ENDBRANCH  28  33
ENDBRANCH  22  23
ENDBRANCH   2  22
TORSDOF 9
ENDMDL
MODEL 9
REMARK VINA RESULT:      -8.0      2.670      8.749
REMARK  Name = 
REMARK  9 active torsions:
REMARK  status: ('A' for Active; 'I' for Inactive)
REMARK    1  A    between atoms: O_2  and  C_3
REMARK    2  A    between atoms: C_5  and  C_6
REMARK    3  A    between atoms: N_8  and  S_9
REMARK    4  A    between atoms: S_9  and  C_12
REMARK    5  A    between atoms: C_21  and  C_22
REMARK    6  A    between atoms: C_22  and  C_23
REMARK    7  A    between atoms: C_30  and  N_31
REMARK    8  A    between atoms: C_32  and  O_34
REMARK    9  A    between atoms: O_34  and  C_35
REMARK                            x       y       z     vdW  Elec       q    Type
REMARK                         _______ _______ _______ _____ _____    ______ ____
ROOT
ATOM      1  C   UNL     1     -10.904  16.300  68.594  0.00  0.00    +0.135 A 
ATOM      2  C   UNL     1     -10.021  17.137  67.925  0.00  0.00    +0.016 A 
ATOM      3  C   UNL     1      -9.648  16.755  66.644  0.00  0.00    -0.001 A 
ATOM      4  C   UNL     1     -10.549  16.009  65.896  0.00  0.00    +0.005 A 
ATOM      5  C   UNL     1     -11.439  15.149  66.527  0.00  0.00    +0.062 A 
ATOM      6  C   UNL     1     -11.594  15.324  67.891  0.00  0.00    +0.041 A 
ENDROOT
BRANCH   5   7
ATOM      7  C   UNL     1     -11.830  13.912  65.844  0.00  0.00    +0.297 C 
ATOM      8  N   UNL     1     -11.087  12.846  65.862  0.00  0.00    -0.086 NA
ATOM      9  O   UNL     1     -12.645  14.076  64.720  0.00  0.00    -0.264 OA
BRANCH   8  10
ATOM     10  S   UNL     1     -10.864  11.837  64.491  0.00  0.00    +0.103 S 
ATOM     11  O   UNL     1     -10.018  12.601  63.500  0.00  0.00    -0.146 OA
ATOM     12  O   UNL     1     -12.176  11.460  63.849  0.00  0.00    -0.146 OA
BRANCH  10  13
ATOM     13  C   UNL     1     -10.010  10.373  64.876  0.00  0.00    +0.125 A 
ATOM     14  C   UNL     1     -10.053   9.765  66.114  0.00  0.00    -0.003 A 
ATOM     15  C   UNL     1     -11.032  10.257  67.108  0.00  0.00    +0.032 C 
ATOM     16  C   UNL     1      -9.158   8.738  66.377  0.00  0.00    -0.003 A 
ATOM     17  C   UNL     1      -8.100   8.527  65.505  0.00  0.00    -0.000 A 
ATOM     18  C   UNL     1      -8.305   8.848  64.172  0.00  0.00    +0.001 A 
ATOM     19  C   UNL     1      -9.303   9.751  63.882  0.00  0.00    +0.020 A 
ENDBRANCH  10  13
ENDBRANCH   8  10
ENDBRANCH   5   7
BRANCH   1  21
ATOM     20  C   UNL     1     -12.135  15.717  70.556  0.00  0.00    +0.252 C 
ATOM     21  O   UNL     1     -11.310  16.654  69.873  0.00  0.00    -0.472 OA
ENDBRANCH   1  21
BRANCH   2  22
ATOM     22  C   UNL     1      -9.608  18.426  68.533  0.00  0.00    +0.057 C 
BRANCH  22  23
ATOM     23  C   UNL     1      -8.229  18.794  68.085  0.00  0.00    +0.001 A 
ATOM     24  C   UNL     1      -7.022  18.223  68.471  0.00  0.00    +0.015 A 
ATOM     25  C   UNL     1      -6.009  19.123  68.162  0.00  0.00    +0.060 A 
ATOM     26  C   UNL     1      -4.859  19.044  68.939  0.00  0.00    +0.019 A 
ATOM     27  C   UNL     1      -4.576  17.898  69.671  0.00  0.00    +0.018 A 
ATOM     28  C   UNL     1      -5.459  16.825  69.696  0.00  0.00    +0.077 A 
ATOM     29  N   UNL     1      -6.565  20.124  67.466  0.00  0.00    -0.324 N 
ATOM     30  C   UNL     1      -5.838  21.310  67.059  0.00  0.00    +0.130 C 
ATOM     31  C   UNL     1      -6.751  17.131  69.286  0.00  0.00    +0.018 A 
ATOM     32  C   UNL     1      -7.902  20.030  67.541  0.00  0.00    +0.072 A 
BRANCH  28  33
ATOM     33  N   UNL     1      -4.983  15.473  69.684  0.00  0.00    -0.142 NA
ATOM     34  C   UNL     1      -5.015  14.661  68.514  0.00  0.00    +0.425 C 
ATOM     35  O   UNL     1      -4.842  15.269  67.417  0.00  0.00    -0.224 OA
BRANCH  34  36
ATOM     36  O   UNL     1      -5.466  13.358  68.492  0.00  0.00    -0.437 OA
BRANCH  36  37
ATOM     37  C   UNL     1      -6.707  12.945  69.060  0.00  0.00    +0.171 C 
ATOM     38  C   UNL     1      -6.964  11.543  68.520  0.00  0.00    +0.044 C 
ATOM     39  C   UNL     1      -7.203  11.845  67.050  0.00  0.00    +0.004 C 
ATOM     40  C   UNL     1      -8.120  13.052  67.090  0.00  0.00    +0.004 C 
ATOM     41  C   UNL     1      -7.828  13.738  68.406  0.00  0.00    +0.044 C 
ENDBRANCH  36  37
ENDBRANCH  34  36
ENDBRANCH  28  33
ENDBRANCH  22  23
ENDBRANCH   2  22
TORSDOF 9
ENDMDL
