MODEL 1
REMARK VINA RESULT:      -6.1      0.000      0.000
REMARK  Name = 
REMARK  6 active torsions:
REMARK  status: ('A' for Active; 'I' for Inactive)
REMARK    1  A    between atoms: C_2  and  C_4
REMARK    2  A    between atoms: C_8  and  C_9
REMARK    3  A    between atoms: C_12  and  O_13
REMARK    4  A    between atoms: O_13  and  C_14
REMARK    5  A    between atoms: C_14  and  O_15
REMARK    6  A    between atoms: O_15  and  P_16
REMARK                            x       y       z     vdW  Elec       q    Type
REMARK                         _______ _______ _______ _____ _____    ______ ____
ROOT
ATOM      1  C   UNL     1     -10.806  14.919  67.318  0.00  0.00    +0.011 A 
ATOM      2  C   UNL     1     -11.026  16.216  67.766  0.00  0.00    +0.133 A 
ATOM      3  C   UNL     1     -10.036  17.160  67.505  0.00  0.00    +0.011 A 
ATOM      4  C   UNL     1      -9.017  16.819  66.624  0.00  0.00    -0.001 A 
ATOM      5  C   UNL     1      -8.701  15.474  66.457  0.00  0.00    -0.000 A 
ATOM      6  C   UNL     1      -9.541  14.481  66.945  0.00  0.00    -0.001 A 
ENDROOT
BRANCH   3   7
ATOM      7  C   UNL     1      -9.896  18.374  68.369  0.00  0.00    +0.025 C 
ATOM      8  C   UNL     1     -10.447  19.565  67.596  0.00  0.00    +0.005 C 
ATOM      9  C   UNL     1      -8.396  18.598  68.520  0.00  0.00    +0.005 C 
ENDBRANCH   3   7
BRANCH   1  11
ATOM     10  C   UNL     1     -11.602  12.597  67.602  0.00  0.00    +0.005 C 
ATOM     11  C   UNL     1     -11.991  14.010  67.213  0.00  0.00    +0.025 C 
ATOM     12  C   UNL     1     -12.493  13.940  65.775  0.00  0.00    +0.005 C 
ENDBRANCH   1  11
BRANCH   2  13
ATOM     13  O   UNL     1     -11.910  16.375  68.836  0.00  0.00    -0.448 OA
BRANCH  13  14
ATOM     14  C   UNL     1     -11.704  15.855  70.117  0.00  0.00    +0.369 C 
BRANCH  14  15
ATOM     15  O   UNL     1     -12.730  15.004  70.479  0.00  0.00    -0.228 OA
BRANCH  15  16
ATOM     16  P   UNL     1     -13.288  15.319  72.044  0.00  0.00    +0.535 P 
ATOM     17  O   UNL     1     -12.150  16.348  72.770  0.00  0.00    -0.114 OA
ATOM     18  O   UNL     1     -13.342  13.905  72.986  0.00  0.00    -0.114 OA
ATOM     19  O   UNL     1     -14.670  15.928  72.032  0.00  0.00    -0.222 OA
ENDBRANCH  15  16
ENDBRANCH  14  15
ENDBRANCH  13  14
ENDBRANCH   2  13
TORSDOF 6
ENDMDL
MODEL 2
REMARK VINA RESULT:      -6.0      0.766      3.920
REMARK  Name = 
REMARK  6 active torsions:
REMARK  status: ('A' for Active; 'I' for Inactive)
REMARK    1  A    between atoms: C_2  and  C_4
REMARK    2  A    between atoms: C_8  and  C_9
REMARK    3  A    between atoms: C_12  and  O_13
REMARK    4  A    between atoms: O_13  and  C_14
REMARK    5  A    between atoms: C_14  and  O_15
REMARK    6  A    between atoms: O_15  and  P_16
REMARK                            x       y       z     vdW  Elec       q    Type
REMARK                         _______ _______ _______ _____ _____    ______ ____
ROOT
ATOM      1  C   UNL     1     -10.360  16.935  67.476  0.00  0.00    +0.011 A 
ATOM      2  C   UNL     1     -10.928  15.841  68.119  0.00  0.00    +0.133 A 
ATOM      3  C   UNL     1     -10.747  14.590  67.536  0.00  0.00    +0.011 A 
ATOM      4  C   UNL     1      -9.828  14.474  66.500  0.00  0.00    -0.001 A 
ATOM      5  C   UNL     1      -9.534  15.600  65.739  0.00  0.00    -0.000 A 
ATOM      6  C   UNL     1      -9.936  16.864  66.155  0.00  0.00    -0.001 A 
ENDROOT
BRANCH   3   7
ATOM      7  C   UNL     1     -11.718  13.481  67.796  0.00  0.00    +0.025 C 
ATOM      8  C   UNL     1     -11.024  12.447  68.673  0.00  0.00    +0.005 C 
ATOM      9  C   UNL     1     -11.961  12.825  66.442  0.00  0.00    +0.005 C 
ENDBRANCH   3   7
BRANCH   1  11
ATOM     10  C   UNL     1     -10.631  19.390  67.456  0.00  0.00    +0.005 C 
ATOM     11  C   UNL     1     -10.182  18.191  68.270  0.00  0.00    +0.025 C 
ATOM     12  C   UNL     1      -8.712  18.419  68.600  0.00  0.00    +0.005 C 
ENDBRANCH   1  11
BRANCH   2  13
ATOM     13  O   UNL     1     -12.017  16.095  68.957  0.00  0.00    -0.448 OA
BRANCH  13  14
ATOM     14  C   UNL     1     -12.010  15.907  70.343  0.00  0.00    +0.369 C 
BRANCH  14  15
ATOM     15  O   UNL     1     -12.679  14.749  70.689  0.00  0.00    -0.228 OA
BRANCH  15  16
ATOM     16  P   UNL     1     -13.788  15.012  71.940  0.00  0.00    +0.535 P 
ATOM     17  O   UNL     1     -14.121  13.493  72.622  0.00  0.00    -0.114 OA
ATOM     18  O   UNL     1     -15.262  15.620  71.352  0.00  0.00    -0.114 OA
ATOM     19  O   UNL     1     -13.253  15.983  72.965  0.00  0.00    -0.222 OA
ENDBRANCH  15  16
ENDBRANCH  14  15
ENDBRANCH  13  14
ENDBRANCH   2  13
TORSDOF 6
ENDMDL
MODEL 3
REMARK VINA RESULT:      -5.9      2.931      5.327
REMARK  Name = 
REMARK  6 active torsions:
REMARK  status: ('A' for Active; 'I' for Inactive)
REMARK    1  A    between atoms: C_2  and  C_4
REMARK    2  A    between atoms: C_8  and  C_9
REMARK    3  A    between atoms: C_12  and  O_13
REMARK    4  A    between atoms: O_13  and  C_14
REMARK    5  A    between atoms: C_14  and  O_15
REMARK    6  A    between atoms: O_15  and  P_16
REMARK                            x       y       z     vdW  Elec       q    Type
REMARK                         _______ _______ _______ _____ _____    ______ ____
ROOT
ATOM      1  C   UNL     1     -12.158  14.685  69.944  0.00  0.00    +0.011 A 
ATOM      2  C   UNL     1     -12.032  15.138  68.636  0.00  0.00    +0.133 A 
ATOM      3  C   UNL     1     -11.767  14.190  67.653  0.00  0.00    +0.011 A 
ATOM      4  C   UNL     1     -11.881  12.846  67.986  0.00  0.00    -0.001 A 
ATOM      5  C   UNL     1     -11.719  12.473  69.316  0.00  0.00    -0.000 A 
ATOM      6  C   UNL     1     -11.707  13.427  70.326  0.00  0.00    -0.001 A 
ENDROOT
BRANCH   3   7
ATOM      7  C   UNL     1     -11.088  14.585  66.378  0.00  0.00    +0.025 C 
ATOM      8  C   UNL     1     -11.894  14.008  65.221  0.00  0.00    +0.005 C 
ATOM      9  C   UNL     1      -9.747  13.862  66.388  0.00  0.00    +0.005 C 
ENDBRANCH   3   7
BRANCH   1  11
ATOM     10  C   UNL     1     -11.941  15.811  72.132  0.00  0.00    +0.005 C 
ATOM     11  C   UNL     1     -12.837  15.585  70.929  0.00  0.00    +0.025 C 
ATOM     12  C   UNL     1     -14.115  14.945  71.456  0.00  0.00    +0.005 C 
ENDBRANCH   1  11
BRANCH   2  13
ATOM     13  O   UNL     1     -11.672  16.477  68.464  0.00  0.00    -0.448 OA
BRANCH  13  14
ATOM     14  C   UNL     1     -10.453  17.028  68.871  0.00  0.00    +0.369 C 
BRANCH  14  15
ATOM     15  O   UNL     1      -9.590  17.170  67.801  0.00  0.00    -0.228 OA
BRANCH  15  16
ATOM     16  P   UNL     1     -10.017  18.477  66.816  0.00  0.00    +0.535 P 
ATOM     17  O   UNL     1     -10.655  17.822  65.386  0.00  0.00    -0.114 OA
ATOM     18  O   UNL     1      -8.658  19.396  66.372  0.00  0.00    -0.114 OA
ATOM     19  O   UNL     1     -11.001  19.395  67.502  0.00  0.00    -0.222 OA
ENDBRANCH  15  16
ENDBRANCH  14  15
ENDBRANCH  13  14
ENDBRANCH   2  13
TORSDOF 6
ENDMDL
MODEL 4
REMARK VINA RESULT:      -5.8      4.038      6.165
REMARK  Name = 
REMARK  6 active torsions:
REMARK  status: ('A' for Active; 'I' for Inactive)
REMARK    1  A    between atoms: C_2  and  C_4
REMARK    2  A    between atoms: C_8  and  C_9
REMARK    3  A    between atoms: C_12  and  O_13
REMARK    4  A    between atoms: O_13  and  C_14
REMARK    5  A    between atoms: C_14  and  O_15
REMARK    6  A    between atoms: O_15  and  P_16
REMARK                            x       y       z     vdW  Elec       q    Type
REMARK                         _______ _______ _______ _____ _____    ______ ____
ROOT
ATOM      1  C   UNL     1     -11.684  11.491  69.811  0.00  0.00    +0.011 A 
ATOM      2  C   UNL     1     -11.734  12.880  69.841  0.00  0.00    +0.133 A 
ATOM      3  C   UNL     1     -12.496  13.472  70.843  0.00  0.00    +0.011 A 
ATOM      4  C   UNL     1     -12.960  12.669  71.879  0.00  0.00    -0.001 A 
ATOM      5  C   UNL     1     -13.129  11.309  71.645  0.00  0.00    -0.000 A 
ATOM      6  C   UNL     1     -12.605  10.714  70.503  0.00  0.00    -0.001 A 
ENDROOT
BRANCH   3   7
ATOM      7  C   UNL     1     -13.060  14.847  70.659  0.00  0.00    +0.025 C 
ATOM      8  C   UNL     1     -12.064  15.842  71.239  0.00  0.00    +0.005 C 
ATOM      9  C   UNL     1     -14.303  14.901  71.538  0.00  0.00    +0.005 C 
ENDBRANCH   3   7
BRANCH   1  11
ATOM     10  C   UNL     1     -11.139  10.071  67.865  0.00  0.00    +0.005 C 
ATOM     11  C   UNL     1     -10.575  10.852  69.036  0.00  0.00    +0.025 C 
ATOM     12  C   UNL     1      -9.819   9.849  69.899  0.00  0.00    +0.005 C 
ENDBRANCH   1  11
BRANCH   2  13
ATOM     13  O   UNL     1     -11.475  13.547  68.641  0.00  0.00    -0.448 OA
BRANCH  13  14
ATOM     14  C   UNL     1     -12.180  13.340  67.452  0.00  0.00    +0.369 C 
BRANCH  14  15
ATOM     15  O   UNL     1     -12.035  14.414  66.595  0.00  0.00    -0.228 OA
BRANCH  15  16
ATOM     16  P   UNL     1     -12.069  13.936  64.973  0.00  0.00    +0.535 P 
ATOM     17  O   UNL     1     -13.053  12.555  64.893  0.00  0.00    -0.114 OA
ATOM     18  O   UNL     1     -10.528  13.474  64.425  0.00  0.00    -0.114 OA
ATOM     19  O   UNL     1     -12.576  15.040  64.076  0.00  0.00    -0.222 OA
ENDBRANCH  15  16
ENDBRANCH  14  15
ENDBRANCH  13  14
ENDBRANCH   2  13
TORSDOF 6
ENDMDL
MODEL 5
REMARK VINA RESULT:      -5.7      2.670      4.342
REMARK  Name = 
REMARK  6 active torsions:
REMARK  status: ('A' for Active; 'I' for Inactive)
REMARK    1  A    between atoms: C_2  and  C_4
REMARK    2  A    between atoms: C_8  and  C_9
REMARK    3  A    between atoms: C_12  and  O_13
REMARK    4  A    between atoms: O_13  and  C_14
REMARK    5  A    between atoms: C_14  and  O_15
REMARK    6  A    between atoms: O_15  and  P_16
REMARK                            x       y       z     vdW  Elec       q    Type
REMARK                         _______ _______ _______ _____ _____    ______ ____
ROOT
ATOM      1  C   UNL     1     -11.184  11.011  69.312  0.00  0.00    +0.011 A 
ATOM      2  C   UNL     1     -11.584  12.267  68.871  0.00  0.00    +0.133 A 
ATOM      3  C   UNL     1     -11.577  12.495  67.498  0.00  0.00    +0.011 A 
ATOM      4  C   UNL     1     -11.407  11.407  66.650  0.00  0.00    -0.001 A 
ATOM      5  C   UNL     1     -10.741  10.285  67.131  0.00  0.00    -0.000 A 
ATOM      6  C   UNL     1     -10.483  10.138  68.488  0.00  0.00    -0.001 A 
ENDROOT
BRANCH   3   7
ATOM      7  C   UNL     1     -11.446  13.886  66.957  0.00  0.00    +0.025 C 
ATOM      8  C   UNL     1     -12.371  14.009  65.753  0.00  0.00    +0.005 C 
ATOM      9  C   UNL     1     -10.019  13.988  66.434  0.00  0.00    +0.005 C 
ENDBRANCH   3   7
BRANCH   1  11
ATOM     10  C   UNL     1     -10.821   9.351  71.105  0.00  0.00    +0.005 C 
ATOM     11  C   UNL     1     -11.568  10.608  70.701  0.00  0.00    +0.025 C 
ATOM     12  C   UNL     1     -13.052  10.272  70.776  0.00  0.00    +0.005 C 
ENDBRANCH   1  11
BRANCH   2  13
ATOM     13  O   UNL     1     -11.467  13.323  69.778  0.00  0.00    -0.448 OA
BRANCH  13  14
ATOM     14  C   UNL     1     -12.540  14.090  70.242  0.00  0.00    +0.369 C 
BRANCH  14  15
ATOM     15  O   UNL     1     -12.159  14.887  71.304  0.00  0.00    -0.228 OA
BRANCH  15  16
ATOM     16  P   UNL     1     -13.216  14.739  72.615  0.00  0.00    +0.535 P 
ATOM     17  O   UNL     1     -14.374  15.969  72.448  0.00  0.00    -0.114 OA
ATOM     18  O   UNL     1     -12.422  15.010  74.093  0.00  0.00    -0.114 OA
ATOM     19  O   UNL     1     -13.853  13.371  72.667  0.00  0.00    -0.222 OA
ENDBRANCH  15  16
ENDBRANCH  14  15
ENDBRANCH  13  14
ENDBRANCH   2  13
TORSDOF 6
ENDMDL
MODEL 6
REMARK VINA RESULT:      -5.7      3.213      6.056
REMARK  Name = 
REMARK  6 active torsions:
REMARK  status: ('A' for Active; 'I' for Inactive)
REMARK    1  A    between atoms: C_2  and  C_4
REMARK    2  A    between atoms: C_8  and  C_9
REMARK    3  A    between atoms: C_12  and  O_13
REMARK    4  A    between atoms: O_13  and  C_14
REMARK    5  A    between atoms: C_14  and  O_15
REMARK    6  A    between atoms: O_15  and  P_16
REMARK                            x       y       z     vdW  Elec       q    Type
REMARK                         _______ _______ _______ _____ _____    ______ ____
ROOT
ATOM      1  C   UNL     1     -12.795  13.750  71.117  0.00  0.00    +0.011 A 
ATOM      2  C   UNL     1     -12.071  13.482  69.961  0.00  0.00    +0.133 A 
ATOM      3  C   UNL     1     -11.854  12.146  69.637  0.00  0.00    +0.011 A 
ATOM      4  C   UNL     1     -12.560  11.175  70.337  0.00  0.00    -0.001 A 
ATOM      5  C   UNL     1     -13.011  11.473  71.619  0.00  0.00    -0.000 A 
ATOM      6  C   UNL     1     -12.997  12.780  72.092  0.00  0.00    -0.001 A 
ENDROOT
BRANCH   3   7
ATOM      7  C   UNL     1     -10.685  11.749  68.789  0.00  0.00    +0.025 C 
ATOM      8  C   UNL     1     -11.192  11.520  67.371  0.00  0.00    +0.005 C 
ATOM      9  C   UNL     1     -10.234  10.395  69.323  0.00  0.00    +0.005 C 
ENDBRANCH   3   7
BRANCH   1  11
ATOM     10  C   UNL     1     -12.737  15.846  72.423  0.00  0.00    +0.005 C 
ATOM     11  C   UNL     1     -13.389  15.116  71.265  0.00  0.00    +0.025 C 
ATOM     12  C   UNL     1     -14.875  15.028  71.591  0.00  0.00    +0.005 C 
ENDBRANCH   1  11
BRANCH   2  13
ATOM     13  O   UNL     1     -11.209  14.484  69.509  0.00  0.00    -0.448 OA
BRANCH  13  14
ATOM     14  C   UNL     1     -11.457  15.299  68.400  0.00  0.00    +0.369 C 
BRANCH  14  15
ATOM     15  O   UNL     1     -11.439  16.635  68.751  0.00  0.00    -0.228 OA
BRANCH  15  16
ATOM     16  P   UNL     1     -10.327  17.515  67.830  0.00  0.00    +0.535 P 
ATOM     17  O   UNL     1     -11.030  19.032  67.537  0.00  0.00    -0.114 OA
ATOM     18  O   UNL     1     -10.061  16.796  66.314  0.00  0.00    -0.114 OA
ATOM     19  O   UNL     1      -8.995  17.640  68.532  0.00  0.00    -0.222 OA
ENDBRANCH  15  16
ENDBRANCH  14  15
ENDBRANCH  13  14
ENDBRANCH   2  13
TORSDOF 6
ENDMDL
MODEL 7
REMARK VINA RESULT:      -5.7      2.987      5.300
REMARK  Name = 
REMARK  6 active torsions:
REMARK  status: ('A' for Active; 'I' for Inactive)
REMARK    1  A    between atoms: C_2  and  C_4
REMARK    2  A    between atoms: C_8  and  C_9
REMARK    3  A    between atoms: C_12  and  O_13
REMARK    4  A    between atoms: O_13  and  C_14
REMARK    5  A    between atoms: C_14  and  O_15
REMARK    6  A    between atoms: O_15  and  P_16
REMARK                            x       y       z     vdW  Elec       q    Type
REMARK                         _______ _______ _______ _____ _____    ______ ____
ROOT
ATOM      1  C   UNL     1     -11.106  13.833  68.110  0.00  0.00    +0.011 A 
ATOM      2  C   UNL     1     -11.384  14.865  68.998  0.00  0.00    +0.133 A 
ATOM      3  C   UNL     1     -12.006  14.528  70.197  0.00  0.00    +0.011 A 
ATOM      4  C   UNL     1     -12.096  13.183  70.537  0.00  0.00    -0.001 A 
ATOM      5  C   UNL     1     -12.076  12.235  69.519  0.00  0.00    -0.000 A 
ATOM      6  C   UNL     1     -11.713  12.589  68.225  0.00  0.00    -0.001 A 
ENDROOT
BRANCH   3   7
ATOM      7  C   UNL     1     -12.822  15.539  70.942  0.00  0.00    +0.025 C 
ATOM      8  C   UNL     1     -11.987  16.044  72.111  0.00  0.00    +0.005 C 
ATOM      9  C   UNL     1     -13.992  14.764  71.534  0.00  0.00    +0.005 C 
ENDBRANCH   3   7
BRANCH   1  11
ATOM     10  C   UNL     1     -10.302  13.136  65.880  0.00  0.00    +0.005 C 
ATOM     11  C   UNL     1     -10.094  14.093  67.038  0.00  0.00    +0.025 C 
ATOM     12  C   UNL     1      -8.682  13.846  67.554  0.00  0.00    +0.005 C 
ENDBRANCH   1  11
BRANCH   2  13
ATOM     13  O   UNL     1     -11.503  16.149  68.459  0.00  0.00    -0.448 OA
BRANCH  13  14
ATOM     14  C   UNL     1     -10.553  17.163  68.613  0.00  0.00    +0.369 C 
BRANCH  14  15
ATOM     15  O   UNL     1     -10.912  18.291  67.901  0.00  0.00    -0.228 OA
BRANCH  15  16
ATOM     16  P   UNL     1     -10.067  18.413  66.442  0.00  0.00    +0.535 P 
ATOM     17  O   UNL     1     -10.485  19.910  65.759  0.00  0.00    -0.114 OA
ATOM     18  O   UNL     1     -10.552  17.217  65.336  0.00  0.00    -0.114 OA
ATOM     19  O   UNL     1      -8.576  18.286  66.648  0.00  0.00    -0.222 OA
ENDBRANCH  15  16
ENDBRANCH  14  15
ENDBRANCH  13  14
ENDBRANCH   2  13
TORSDOF 6
ENDMDL
MODEL 8
REMARK VINA RESULT:      -5.7      3.539      6.516
REMARK  Name = 
REMARK  6 active torsions:
REMARK  status: ('A' for Active; 'I' for Inactive)
REMARK    1  A    between atoms: C_2  and  C_4
REMARK    2  A    between atoms: C_8  and  C_9
REMARK    3  A    between atoms: C_12  and  O_13
REMARK    4  A    between atoms: O_13  and  C_14
REMARK    5  A    between atoms: C_14  and  O_15
REMARK    6  A    between atoms: O_15  and  P_16
REMARK                            x       y       z     vdW  Elec       q    Type
REMARK                         _______ _______ _______ _____ _____    ______ ____
ROOT
ATOM      1  C   UNL     1     -12.738  13.521  71.030  0.00  0.00    +0.011 A 
ATOM      2  C   UNL     1     -12.011  13.060  69.939  0.00  0.00    +0.133 A 
ATOM      3  C   UNL     1     -11.871  11.683  69.797  0.00  0.00    +0.011 A 
ATOM      4  C   UNL     1     -12.650  10.856  70.600  0.00  0.00    -0.001 A 
ATOM      5  C   UNL     1     -13.106  11.347  71.818  0.00  0.00    -0.000 A 
ATOM      6  C   UNL     1     -13.019  12.702  72.117  0.00  0.00    -0.001 A 
ENDROOT
BRANCH   3   7
ATOM      7  C   UNL     1     -10.714  11.108  69.041  0.00  0.00    +0.025 C 
ATOM      8  C   UNL     1     -11.249  10.528  67.737  0.00  0.00    +0.005 C 
ATOM      9  C   UNL     1     -10.220   9.935  69.878  0.00  0.00    +0.005 C 
ENDBRANCH   3   7
BRANCH   1  11
ATOM     10  C   UNL     1     -12.381  15.826  71.844  0.00  0.00    +0.005 C 
ATOM     11  C   UNL     1     -13.247  14.927  70.982  0.00  0.00    +0.025 C 
ATOM     12  C   UNL     1     -14.658  15.012  71.551  0.00  0.00    +0.005 C 
ENDBRANCH   1  11
BRANCH   2  13
ATOM     13  O   UNL     1     -11.079  13.941  69.382  0.00  0.00    -0.448 OA
BRANCH  13  14
ATOM     14  C   UNL     1     -11.263  14.632  68.182  0.00  0.00    +0.369 C 
BRANCH  14  15
ATOM     15  O   UNL     1     -12.131  13.956  67.347  0.00  0.00    -0.228 OA
BRANCH  15  16
ATOM     16  P   UNL     1     -11.746  14.185  65.716  0.00  0.00    +0.535 P 
ATOM     17  O   UNL     1     -10.662  12.949  65.293  0.00  0.00    -0.114 OA
ATOM     18  O   UNL     1     -10.935  15.657  65.466  0.00  0.00    -0.114 OA
ATOM     19  O   UNL     1     -12.979  14.173  64.844  0.00  0.00    -0.222 OA
ENDBRANCH  15  16
ENDBRANCH  14  15
ENDBRANCH  13  14
ENDBRANCH   2  13
TORSDOF 6
ENDMDL
MODEL 9
REMARK VINA RESULT:      -5.3      5.690      7.257
REMARK  Name = 
REMARK  6 active torsions:
REMARK  status: ('A' for Active; 'I' for Inactive)
REMARK    1  A    between atoms: C_2  and  C_4
REMARK    2  A    between atoms: C_8  and  C_9
REMARK    3  A    between atoms: C_12  and  O_13
REMARK    4  A    between atoms: O_13  and  C_14
REMARK    5  A    between atoms: C_14  and  O_15
REMARK    6  A    between atoms: O_15  and  P_16
REMARK                            x       y       z     vdW  Elec       q    Type
REMARK                         _______ _______ _______ _____ _____    ______ ____
ROOT
ATOM      1  C   UNL     1      -7.872  18.719  67.748  0.00  0.00    +0.011 A 
ATOM      2  C   UNL     1      -6.874  19.685  67.697  0.00  0.00    +0.133 A 
ATOM      3  C   UNL     1      -5.905  19.554  66.706  0.00  0.00    +0.011 A 
ATOM      4  C   UNL     1      -6.119  18.623  65.696  0.00  0.00    -0.001 A 
ATOM      5  C   UNL     1      -6.942  17.533  65.956  0.00  0.00    -0.000 A 
ATOM      6  C   UNL     1      -7.741  17.500  67.093  0.00  0.00    -0.001 A 
ENDROOT
BRANCH   3   7
ATOM      7  C   UNL     1      -4.548  20.160  66.883  0.00  0.00    +0.025 C 
ATOM      8  C   UNL     1      -4.069  20.642  65.520  0.00  0.00    +0.005 C 
ATOM      9  C   UNL     1      -3.636  19.010  67.293  0.00  0.00    +0.005 C 
ENDBRANCH   3   7
BRANCH   1  11
ATOM     10  C   UNL     1      -9.997  17.817  68.628  0.00  0.00    +0.005 C 
ATOM     11  C   UNL     1      -9.121  19.049  68.503  0.00  0.00    +0.025 C 
ATOM     12  C   UNL     1      -9.945  20.092  67.758  0.00  0.00    +0.005 C 
ENDBRANCH   1  11
BRANCH   2  13
ATOM     13  O   UNL     1      -6.608  20.381  68.879  0.00  0.00    -0.448 OA
BRANCH  13  14
ATOM     14  C   UNL     1      -6.019  19.816  70.015  0.00  0.00    +0.369 C 
BRANCH  14  15
ATOM     15  O   UNL     1      -5.983  20.722  71.057  0.00  0.00    -0.228 OA
BRANCH  15  16
ATOM     16  P   UNL     1      -4.402  21.020  71.579  0.00  0.00    +0.535 P 
ATOM     17  O   UNL     1      -4.445  22.469  72.463  0.00  0.00    -0.114 OA
ATOM     18  O   UNL     1      -3.348  21.273  70.271  0.00  0.00    -0.114 OA
ATOM     19  O   UNL     1      -3.862  19.875  72.404  0.00  0.00    -0.222 OA
ENDBRANCH  15  16
ENDBRANCH  14  15
ENDBRANCH  13  14
ENDBRANCH   2  13
TORSDOF 6
ENDMDL
