MODEL 1
REMARK VINA RESULT:      -7.6      0.000      0.000
REMARK  Name = 
REMARK  5 active torsions:
REMARK  status: ('A' for Active; 'I' for Inactive)
REMARK    1  A    between atoms: C_2  and  O_3
REMARK    2  A    between atoms: C_2  and  C_22
REMARK    3  A    between atoms: O_3  and  C_4
REMARK    4  A    between atoms: C_6  and  C_7
REMARK    5  A    between atoms: N_10  and  C_11
REMARK                            x       y       z     vdW  Elec       q    Type
REMARK                         _______ _______ _______ _____ _____    ______ ____
ROOT
ATOM      1  C   UNL     1     -10.256  16.382  66.995  0.00  0.00    +0.173 A 
ATOM      2  C   UNL     1     -10.938  17.232  67.860  0.00  0.00    +0.204 A 
ATOM      3  N   UNL     1     -11.239  16.687  69.144  0.00  0.00    -0.104 NA
ATOM      4  N   UNL     1     -10.867  18.566  67.625  0.00  0.00    -0.223 NA
ATOM      5  C   UNL     1      -9.945  18.991  66.722  0.00  0.00    +0.101 A 
ATOM      6  C   UNL     1      -8.830  18.208  66.431  0.00  0.00    +0.025 A 
ATOM      7  C   UNL     1      -9.108  16.844  66.366  0.00  0.00    +0.042 A 
ENDROOT
BRANCH   6   8
ATOM      8  C   UNL     1      -7.463  18.735  66.554  0.00  0.00    +0.041 A 
ATOM      9  C   UNL     1      -6.635  18.720  67.673  0.00  0.00    +0.097 A 
ATOM     10  N   UNL     1      -6.045  19.924  67.838  0.00  0.00    -0.251 N 
ATOM     11  N   UNL     1      -6.112  20.491  66.650  0.00  0.00    -0.168 NA
ATOM     12  C   UNL     1      -6.997  19.843  65.855  0.00  0.00    +0.122 A 
BRANCH  10  13
ATOM     13  C   UNL     1      -5.687  20.584  69.092  0.00  0.00    +0.108 C 
ATOM     14  C   UNL     1      -4.221  20.365  69.411  0.00  0.00    +0.043 C 
ATOM     15  C   UNL     1      -3.892  21.237  70.616  0.00  0.00    +0.091 C 
ATOM     16  N   UNL     1      -4.937  21.172  71.622  0.00  0.00    -0.218 NA
ATOM     17  C   UNL     1      -5.672  19.939  71.498  0.00  0.00    +0.091 C 
ATOM     18  C   UNL     1      -6.530  20.062  70.245  0.00  0.00    +0.043 C 
ENDBRANCH  10  13
ENDBRANCH   6   8
BRANCH   1  19
ATOM     19  O   UNL     1     -10.883  15.155  66.734  0.00  0.00    -0.472 OA
BRANCH  19  21
ATOM     20  C   UNL     1     -11.935  14.963  64.685  0.00  0.00    +0.052 C 
ATOM     21  C   UNL     1     -10.490  14.547  65.367  0.00  0.00    +0.190 C 
BRANCH  21  22
ATOM     22  C   UNL     1     -10.998  13.038  65.726  0.00  0.00    +0.041 A 
ATOM     23  C   UNL     1     -11.167  12.264  64.579  0.00  0.00    +0.085 A 
ATOM     24 CL   UNL     1     -12.062  12.980  63.264  0.00  0.00    -0.080 Cl
ATOM     25  C   UNL     1     -10.561  11.061  64.348  0.00  0.00    +0.150 A 
ATOM     26  F   UNL     1     -10.536  10.452  63.127  0.00  0.00    -0.203 F 
ATOM     27  C   UNL     1      -9.806  10.492  65.333  0.00  0.00    +0.031 A 
ATOM     28  C   UNL     1      -9.734  11.115  66.543  0.00  0.00    +0.014 A 
ATOM     29  C   UNL     1     -10.126  12.431  66.631  0.00  0.00    +0.058 A 
ATOM     30 CL   UNL     1      -9.627  13.291  68.044  0.00  0.00    -0.082 Cl
ENDBRANCH  21  22
ENDBRANCH  19  21
ENDBRANCH   1  19
TORSDOF 5
ENDMDL
MODEL 2
REMARK VINA RESULT:      -7.5      3.826      8.229
REMARK  Name = 
REMARK  5 active torsions:
REMARK  status: ('A' for Active; 'I' for Inactive)
REMARK    1  A    between atoms: C_2  and  O_3
REMARK    2  A    between atoms: C_2  and  C_22
REMARK    3  A    between atoms: O_3  and  C_4
REMARK    4  A    between atoms: C_6  and  C_7
REMARK    5  A    between atoms: N_10  and  C_11
REMARK                            x       y       z     vdW  Elec       q    Type
REMARK                         _______ _______ _______ _____ _____    ______ ____
ROOT
ATOM      1  C   UNL     1      -8.834  17.818  66.533  0.00  0.00    +0.173 A 
ATOM      2  C   UNL     1      -9.991  18.572  66.701  0.00  0.00    +0.204 A 
ATOM      3  N   UNL     1     -10.577  19.074  65.500  0.00  0.00    -0.104 NA
ATOM      4  N   UNL     1     -10.695  18.406  67.849  0.00  0.00    -0.223 NA
ATOM      5  C   UNL     1     -10.363  17.349  68.635  0.00  0.00    +0.101 A 
ATOM      6  C   UNL     1      -9.712  16.243  68.092  0.00  0.00    +0.025 A 
ATOM      7  C   UNL     1      -8.749  16.574  67.142  0.00  0.00    +0.042 A 
ENDROOT
BRANCH   6   8
ATOM      8  C   UNL     1     -10.252  14.882  68.237  0.00  0.00    +0.041 A 
ATOM      9  C   UNL     1      -9.997  13.769  67.441  0.00  0.00    +0.097 A 
ATOM     10  N   UNL     1     -11.148  13.120  67.156  0.00  0.00    -0.251 N 
ATOM     11  N   UNL     1     -11.987  13.509  68.096  0.00  0.00    -0.168 NA
ATOM     12  C   UNL     1     -11.518  14.604  68.741  0.00  0.00    +0.122 A 
BRANCH  10  13
ATOM     13  C   UNL     1     -11.492  12.399  65.933  0.00  0.00    +0.108 C 
ATOM     14  C   UNL     1     -10.260  12.185  65.076  0.00  0.00    +0.043 C 
ATOM     15  C   UNL     1     -10.669  11.268  63.929  0.00  0.00    +0.091 C 
ATOM     16  N   UNL     1     -11.959  11.645  63.380  0.00  0.00    -0.218 NA
ATOM     17  C   UNL     1     -12.223  13.037  63.640  0.00  0.00    +0.091 C 
ATOM     18  C   UNL     1     -12.535  13.156  65.127  0.00  0.00    +0.043 C 
ENDBRANCH  10  13
ENDBRANCH   6   8
BRANCH   1  19
ATOM     19  O   UNL     1      -7.787  18.461  65.856  0.00  0.00    -0.472 OA
BRANCH  19  21
ATOM     20  C   UNL     1      -6.715  20.366  65.107  0.00  0.00    +0.052 C 
ATOM     21  C   UNL     1      -7.361  19.793  66.514  0.00  0.00    +0.190 C 
BRANCH  21  22
ATOM     22  C   UNL     1      -5.921  19.241  67.049  0.00  0.00    +0.041 A 
ATOM     23  C   UNL     1      -5.994  18.804  68.370  0.00  0.00    +0.085 A 
ATOM     24 CL   UNL     1      -6.773  19.865  69.515  0.00  0.00    -0.080 Cl
ATOM     25  C   UNL     1      -5.644  17.556  68.804  0.00  0.00    +0.150 A 
ATOM     26  F   UNL     1      -5.963  17.070  70.039  0.00  0.00    -0.203 F 
ATOM     27  C   UNL     1      -5.082  16.675  67.925  0.00  0.00    +0.031 A 
ATOM     28  C   UNL     1      -4.827  17.093  66.654  0.00  0.00    +0.014 A 
ATOM     29  C   UNL     1      -5.438  18.241  66.203  0.00  0.00    +0.058 A 
ATOM     30 CL   UNL     1      -5.432  18.496  64.494  0.00  0.00    -0.082 Cl
ENDBRANCH  21  22
ENDBRANCH  19  21
ENDBRANCH   1  19
TORSDOF 5
ENDMDL
MODEL 3
REMARK VINA RESULT:      -7.5      4.178      7.772
REMARK  Name = 
REMARK  5 active torsions:
REMARK  status: ('A' for Active; 'I' for Inactive)
REMARK    1  A    between atoms: C_2  and  O_3
REMARK    2  A    between atoms: C_2  and  C_22
REMARK    3  A    between atoms: O_3  and  C_4
REMARK    4  A    between atoms: C_6  and  C_7
REMARK    5  A    between atoms: N_10  and  C_11
REMARK                            x       y       z     vdW  Elec       q    Type
REMARK                         _______ _______ _______ _____ _____    ______ ____
ROOT
ATOM      1  C   UNL     1      -7.880  19.267  67.727  0.00  0.00    +0.173 A 
ATOM      2  C   UNL     1      -8.410  19.639  66.495  0.00  0.00    +0.204 A 
ATOM      3  N   UNL     1      -7.511  19.557  65.390  0.00  0.00    -0.104 NA
ATOM      4  N   UNL     1      -9.758  19.609  66.350  0.00  0.00    -0.223 NA
ATOM      5  C   UNL     1     -10.475  18.989  67.323  0.00  0.00    +0.101 A 
ATOM      6  C   UNL     1      -9.877  18.031  68.139  0.00  0.00    +0.025 A 
ATOM      7  C   UNL     1      -8.571  18.349  68.505  0.00  0.00    +0.042 A 
ENDROOT
BRANCH   6   8
ATOM      8  C   UNL     1     -10.433  16.677  68.276  0.00  0.00    +0.041 A 
ATOM      9  C   UNL     1     -11.544  16.275  69.013  0.00  0.00    +0.097 A 
ATOM     10  N   UNL     1     -11.266  15.153  69.711  0.00  0.00    -0.251 N 
ATOM     11  N   UNL     1     -10.234  14.621  69.084  0.00  0.00    -0.168 NA
ATOM     12  C   UNL     1      -9.662  15.520  68.248  0.00  0.00    +0.122 A 
BRANCH  10  13
ATOM     13  C   UNL     1     -11.774  14.763  71.025  0.00  0.00    +0.108 C 
ATOM     14  C   UNL     1     -13.119  14.076  70.892  0.00  0.00    +0.043 C 
ATOM     15  C   UNL     1     -13.481  13.537  72.271  0.00  0.00    +0.091 C 
ATOM     16  N   UNL     1     -13.186  14.501  73.315  0.00  0.00    -0.218 NA
ATOM     17  C   UNL     1     -13.185  15.837  72.773  0.00  0.00    +0.091 C 
ATOM     18  C   UNL     1     -11.919  15.971  71.935  0.00  0.00    +0.043 C 
ENDBRANCH  10  13
ENDBRANCH   6   8
BRANCH   1  19
ATOM     19  O   UNL     1      -6.737  19.973  68.132  0.00  0.00    -0.472 OA
BRANCH  19  21
ATOM     20  C   UNL     1      -5.396  20.915  69.761  0.00  0.00    +0.052 C 
ATOM     21  C   UNL     1      -6.159  19.478  69.478  0.00  0.00    +0.190 C 
BRANCH  21  22
ATOM     22  C   UNL     1      -4.824  18.802  68.825  0.00  0.00    +0.041 A 
ATOM     23  C   UNL     1      -4.909  17.411  68.799  0.00  0.00    +0.085 A 
ATOM     24 CL   UNL     1      -5.411  16.620  70.271  0.00  0.00    -0.080 Cl
ATOM     25  C   UNL     1      -4.781  16.638  67.680  0.00  0.00    +0.150 A 
ATOM     26  F   UNL     1      -5.121  15.317  67.633  0.00  0.00    -0.203 F 
ATOM     27  C   UNL     1      -4.443  17.227  66.495  0.00  0.00    +0.031 A 
ATOM     28  C   UNL     1      -4.180  18.563  66.481  0.00  0.00    +0.014 A 
ATOM     29  C   UNL     1      -4.585  19.326  67.553  0.00  0.00    +0.058 A 
ATOM     30 CL   UNL     1      -4.620  21.036  67.312  0.00  0.00    -0.082 Cl
ENDBRANCH  21  22
ENDBRANCH  19  21
ENDBRANCH   1  19
TORSDOF 5
ENDMDL
MODEL 4
REMARK VINA RESULT:      -7.5      4.369      6.139
REMARK  Name = 
REMARK  5 active torsions:
REMARK  status: ('A' for Active; 'I' for Inactive)
REMARK    1  A    between atoms: C_2  and  O_3
REMARK    2  A    between atoms: C_2  and  C_22
REMARK    3  A    between atoms: O_3  and  C_4
REMARK    4  A    between atoms: C_6  and  C_7
REMARK    5  A    between atoms: N_10  and  C_11
REMARK                            x       y       z     vdW  Elec       q    Type
REMARK                         _______ _______ _______ _____ _____    ______ ____
ROOT
ATOM      1  C   UNL     1     -10.918  12.574  65.584  0.00  0.00    +0.173 A 
ATOM      2  C   UNL     1     -11.846  13.294  64.840  0.00  0.00    +0.204 A 
ATOM      3  N   UNL     1     -13.150  12.719  64.763  0.00  0.00    -0.104 NA
ATOM      4  N   UNL     1     -11.612  14.615  64.641  0.00  0.00    -0.223 NA
ATOM      5  C   UNL     1     -10.629  15.191  65.380  0.00  0.00    +0.101 A 
ATOM      6  C   UNL     1     -10.232  14.624  66.589  0.00  0.00    +0.025 A 
ATOM      7  C   UNL     1     -10.187  13.233  66.564  0.00  0.00    +0.042 A 
ENDROOT
BRANCH   6   8
ATOM      8  C   UNL     1     -10.231  15.396  67.841  0.00  0.00    +0.041 A 
ATOM      9  C   UNL     1     -10.558  14.957  69.121  0.00  0.00    +0.097 A 
ATOM     10  N   UNL     1     -11.360  15.854  69.736  0.00  0.00    -0.251 N 
ATOM     11  N   UNL     1     -11.151  16.984  69.088  0.00  0.00    -0.168 NA
ATOM     12  C   UNL     1     -10.522  16.755  67.910  0.00  0.00    +0.122 A 
BRANCH  10  13
ATOM     13  C   UNL     1     -12.434  15.591  70.691  0.00  0.00    +0.108 C 
ATOM     14  C   UNL     1     -11.997  15.951  72.098  0.00  0.00    +0.043 C 
ATOM     15  C   UNL     1     -13.226  15.831  72.991  0.00  0.00    +0.091 C 
ATOM     16  N   UNL     1     -13.994  14.638  72.683  0.00  0.00    -0.218 NA
ATOM     17  C   UNL     1     -13.148  13.645  72.071  0.00  0.00    +0.091 C 
ATOM     18  C   UNL     1     -12.851  14.130  70.658  0.00  0.00    +0.043 C 
ENDBRANCH  10  13
ENDBRANCH   6   8
BRANCH   1  19
ATOM     19  O   UNL     1     -10.710  11.249  65.174  0.00  0.00    -0.472 OA
BRANCH  19  21
ATOM     20  C   UNL     1      -9.538  11.074  63.190  0.00  0.00    +0.052 C 
ATOM     21  C   UNL     1      -9.238  10.947  64.809  0.00  0.00    +0.190 C 
BRANCH  21  22
ATOM     22  C   UNL     1      -9.418   9.324  64.799  0.00  0.00    +0.041 A 
ATOM     23  C   UNL     1      -8.356   8.690  64.159  0.00  0.00    +0.085 A 
ATOM     24 CL   UNL     1      -7.876   9.321  62.605  0.00  0.00    -0.080 Cl
ATOM     25  C   UNL     1      -7.570   7.721  64.716  0.00  0.00    +0.150 A 
ATOM     26  F   UNL     1      -6.389   7.304  64.173  0.00  0.00    -0.203 F 
ATOM     27  C   UNL     1      -7.879   7.239  65.955  0.00  0.00    +0.031 A 
ATOM     28  C   UNL     1      -9.005   7.696  66.571  0.00  0.00    +0.014 A 
ATOM     29  C   UNL     1      -9.595   8.846  66.099  0.00  0.00    +0.058 A 
ATOM     30 CL   UNL     1     -10.737   9.611  67.144  0.00  0.00    -0.082 Cl
ENDBRANCH  21  22
ENDBRANCH  19  21
ENDBRANCH   1  19
TORSDOF 5
ENDMDL
MODEL 5
REMARK VINA RESULT:      -7.4      2.897      4.261
REMARK  Name = 
REMARK  5 active torsions:
REMARK  status: ('A' for Active; 'I' for Inactive)
REMARK    1  A    between atoms: C_2  and  O_3
REMARK    2  A    between atoms: C_2  and  C_22
REMARK    3  A    between atoms: O_3  and  C_4
REMARK    4  A    between atoms: C_6  and  C_7
REMARK    5  A    between atoms: N_10  and  C_11
REMARK                            x       y       z     vdW  Elec       q    Type
REMARK                         _______ _______ _______ _____ _____    ______ ____
ROOT
ATOM      1  C   UNL     1     -11.572  13.992  66.926  0.00  0.00    +0.173 A 
ATOM      2  C   UNL     1     -11.881  14.185  65.583  0.00  0.00    +0.204 A 
ATOM      3  N   UNL     1     -13.240  13.942  65.225  0.00  0.00    -0.104 NA
ATOM      4  N   UNL     1     -11.057  14.975  64.851  0.00  0.00    -0.223 NA
ATOM      5  C   UNL     1     -10.139  15.714  65.527  0.00  0.00    +0.101 A 
ATOM      6  C   UNL     1     -10.341  16.032  66.869  0.00  0.00    +0.025 A 
ATOM      7  C   UNL     1     -10.898  14.994  67.611  0.00  0.00    +0.042 A 
ENDROOT
BRANCH   6   8
ATOM      8  C   UNL     1     -10.317  17.424  67.344  0.00  0.00    +0.041 A 
ATOM      9  C   UNL     1      -9.881  18.557  66.663  0.00  0.00    +0.097 A 
ATOM     10  N   UNL     1      -9.106  19.320  67.465  0.00  0.00    -0.251 N 
ATOM     11  N   UNL     1      -9.433  18.951  68.689  0.00  0.00    -0.168 NA
ATOM     12  C   UNL     1     -10.118  17.782  68.673  0.00  0.00    +0.122 A 
BRANCH  10  13
ATOM     13  C   UNL     1      -7.958  20.141  67.088  0.00  0.00    +0.108 C 
ATOM     14  C   UNL     1      -7.322  19.614  65.816  0.00  0.00    +0.043 C 
ATOM     15  C   UNL     1      -6.266  20.629  65.393  0.00  0.00    +0.091 C 
ATOM     16  N   UNL     1      -5.493  21.098  66.528  0.00  0.00    -0.218 NA
ATOM     17  C   UNL     1      -5.519  20.121  67.587  0.00  0.00    +0.091 C 
ATOM     18  C   UNL     1      -6.916  20.166  68.193  0.00  0.00    +0.043 C 
ENDBRANCH  10  13
ENDBRANCH   6   8
BRANCH   1  19
ATOM     19  O   UNL     1     -11.864  12.718  67.437  0.00  0.00    -0.472 OA
BRANCH  19  21
ATOM     20  C   UNL     1     -10.737  11.098  66.235  0.00  0.00    +0.052 C 
ATOM     21  C   UNL     1     -10.603  11.860  67.694  0.00  0.00    +0.190 C 
BRANCH  21  22
ATOM     22  C   UNL     1     -11.393  10.670  68.483  0.00  0.00    +0.041 A 
ATOM     23  C   UNL     1     -10.747   9.443  68.347  0.00  0.00    +0.085 A 
ATOM     24 CL   UNL     1     -10.264   8.975  66.737  0.00  0.00    -0.080 Cl
ATOM     25  C   UNL     1     -10.330   8.657  69.384  0.00  0.00    +0.150 A 
ATOM     26  F   UNL     1      -9.480   7.599  69.234  0.00  0.00    -0.203 F 
ATOM     27  C   UNL     1     -10.640   9.017  70.664  0.00  0.00    +0.031 A 
ATOM     28  C   UNL     1     -11.415  10.119  70.862  0.00  0.00    +0.014 A 
ATOM     29  C   UNL     1     -11.572  11.010  69.825  0.00  0.00    +0.058 A 
ATOM     30 CL   UNL     1     -12.190  12.570  70.237  0.00  0.00    -0.082 Cl
ENDBRANCH  21  22
ENDBRANCH  19  21
ENDBRANCH   1  19
TORSDOF 5
ENDMDL
MODEL 6
REMARK VINA RESULT:      -7.4      5.130      8.041
REMARK  Name = 
REMARK  5 active torsions:
REMARK  status: ('A' for Active; 'I' for Inactive)
REMARK    1  A    between atoms: C_2  and  O_3
REMARK    2  A    between atoms: C_2  and  C_22
REMARK    3  A    between atoms: O_3  and  C_4
REMARK    4  A    between atoms: C_6  and  C_7
REMARK    5  A    between atoms: N_10  and  C_11
REMARK                            x       y       z     vdW  Elec       q    Type
REMARK                         _______ _______ _______ _____ _____    ______ ____
ROOT
ATOM      1  C   UNL     1     -10.511   9.209  68.172  0.00  0.00    +0.173 A 
ATOM      2  C   UNL     1     -10.120   8.309  67.186  0.00  0.00    +0.204 A 
ATOM      3  N   UNL     1     -11.008   7.214  66.967  0.00  0.00    -0.104 NA
ATOM      4  N   UNL     1      -9.236   8.738  66.251  0.00  0.00    -0.223 NA
ATOM      5  C   UNL     1      -8.988  10.072  66.195  0.00  0.00    +0.101 A 
ATOM      6  C   UNL     1      -9.915  10.983  66.697  0.00  0.00    +0.025 A 
ATOM      7  C   UNL     1     -10.527  10.565  67.876  0.00  0.00    +0.042 A 
ENDROOT
BRANCH   6   8
ATOM      8  C   UNL     1     -10.449  12.077  65.870  0.00  0.00    +0.041 A 
ATOM      9  C   UNL     1     -10.021  13.400  65.816  0.00  0.00    +0.097 A 
ATOM     10  N   UNL     1     -11.079  14.239  65.841  0.00  0.00    -0.251 N 
ATOM     11  N   UNL     1     -12.098  13.499  65.447  0.00  0.00    -0.168 NA
ATOM     12  C   UNL     1     -11.786  12.182  65.500  0.00  0.00    +0.122 A 
BRANCH  10  13
ATOM     13  C   UNL     1     -11.159  15.566  66.448  0.00  0.00    +0.108 C 
ATOM     14  C   UNL     1      -9.917  16.374  66.125  0.00  0.00    +0.043 C 
ATOM     15  C   UNL     1     -10.167  17.792  66.627  0.00  0.00    +0.091 C 
ATOM     16  N   UNL     1     -10.791  17.792  67.937  0.00  0.00    -0.218 NA
ATOM     17  C   UNL     1     -10.495  16.564  68.630  0.00  0.00    +0.091 C 
ATOM     18  C   UNL     1     -11.313  15.469  67.957  0.00  0.00    +0.043 C 
ENDBRANCH  10  13
ENDBRANCH   6   8
BRANCH   1  19
ATOM     19  O   UNL     1     -10.732   8.656  69.443  0.00  0.00    -0.472 OA
BRANCH  19  21
ATOM     20  C   UNL     1      -9.064   9.083  70.984  0.00  0.00    +0.052 C 
ATOM     21  C   UNL     1     -10.554   9.676  70.592  0.00  0.00    +0.190 C 
BRANCH  21  22
ATOM     22  C   UNL     1     -11.306   8.763  71.717  0.00  0.00    +0.041 A 
ATOM     23  C   UNL     1     -12.662   9.073  71.811  0.00  0.00    +0.085 A 
ATOM     24 CL   UNL     1     -13.083  10.762  71.925  0.00  0.00    -0.080 Cl
ATOM     25  C   UNL     1     -13.683   8.177  71.668  0.00  0.00    +0.150 A 
ATOM     26  F   UNL     1     -14.988   8.540  71.507  0.00  0.00    -0.203 F 
ATOM     27  C   UNL     1     -13.393   6.850  71.521  0.00  0.00    +0.031 A 
ATOM     28  C   UNL     1     -12.092   6.455  71.587  0.00  0.00    +0.014 A 
ATOM     29  C   UNL     1     -11.106   7.406  71.457  0.00  0.00    +0.058 A 
ATOM     30 CL   UNL     1      -9.514   6.826  71.122  0.00  0.00    -0.082 Cl
ENDBRANCH  21  22
ENDBRANCH  19  21
ENDBRANCH   1  19
TORSDOF 5
ENDMDL
MODEL 7
REMARK VINA RESULT:      -7.4      3.836      8.611
REMARK  Name = 
REMARK  5 active torsions:
REMARK  status: ('A' for Active; 'I' for Inactive)
REMARK    1  A    between atoms: C_2  and  O_3
REMARK    2  A    between atoms: C_2  and  C_22
REMARK    3  A    between atoms: O_3  and  C_4
REMARK    4  A    between atoms: C_6  and  C_7
REMARK    5  A    between atoms: N_10  and  C_11
REMARK                            x       y       z     vdW  Elec       q    Type
REMARK                         _______ _______ _______ _____ _____    ______ ____
ROOT
ATOM      1  C   UNL     1      -9.531  16.200  68.173  0.00  0.00    +0.173 A 
ATOM      2  C   UNL     1     -10.521  17.070  68.618  0.00  0.00    +0.204 A 
ATOM      3  N   UNL     1     -10.493  18.377  68.044  0.00  0.00    -0.104 NA
ATOM      4  N   UNL     1     -11.638  16.532  69.167  0.00  0.00    -0.223 NA
ATOM      5  C   UNL     1     -11.821  15.194  69.021  0.00  0.00    +0.101 A 
ATOM      6  C   UNL     1     -11.199  14.507  67.981  0.00  0.00    +0.025 A 
ATOM      7  C   UNL     1      -9.898  14.937  67.729  0.00  0.00    +0.042 A 
ENDROOT
BRANCH   6   8
ATOM      8  C   UNL     1     -11.965  13.691  67.027  0.00  0.00    +0.041 A 
ATOM      9  C   UNL     1     -11.796  12.343  66.721  0.00  0.00    +0.097 A 
ATOM     10  N   UNL     1     -11.838  12.155  65.384  0.00  0.00    -0.251 N 
ATOM     11  N   UNL     1     -12.470  13.215  64.920  0.00  0.00    -0.168 NA
ATOM     12  C   UNL     1     -12.523  14.193  65.856  0.00  0.00    +0.122 A 
BRANCH  10  13
ATOM     13  C   UNL     1     -11.099  11.173  64.592  0.00  0.00    +0.108 C 
ATOM     14  C   UNL     1      -9.826  10.763  65.306  0.00  0.00    +0.043 C 
ATOM     15  C   UNL     1      -9.223   9.609  64.513  0.00  0.00    +0.091 C 
ATOM     16  N   UNL     1      -9.284   9.855  63.084  0.00  0.00    -0.218 NA
ATOM     17  C   UNL     1      -9.348  11.271  62.825  0.00  0.00    +0.091 C 
ATOM     18  C   UNL     1     -10.746  11.729  63.223  0.00  0.00    +0.043 C 
ENDBRANCH  10  13
ENDBRANCH   6   8
BRANCH   1  19
ATOM     19  O   UNL     1      -8.212  16.646  68.343  0.00  0.00    -0.472 OA
BRANCH  19  21
ATOM     20  C   UNL     1      -6.495  15.355  67.490  0.00  0.00    +0.052 C 
ATOM     21  C   UNL     1      -7.398  16.659  67.028  0.00  0.00    +0.190 C 
BRANCH  21  22
ATOM     22  C   UNL     1      -6.281  17.725  67.557  0.00  0.00    +0.041 A 
ATOM     23  C   UNL     1      -6.489  18.997  67.026  0.00  0.00    +0.085 A 
ATOM     24 CL   UNL     1      -6.758  19.104  65.305  0.00  0.00    -0.080 Cl
ATOM     25  C   UNL     1      -6.650  20.137  67.761  0.00  0.00    +0.150 A 
ATOM     26  F   UNL     1      -7.106  21.313  67.239  0.00  0.00    -0.203 F 
ATOM     27  C   UNL     1      -6.503  20.086  69.118  0.00  0.00    +0.031 A 
ATOM     28  C   UNL     1      -6.134  18.906  69.690  0.00  0.00    +0.014 A 
ATOM     29  C   UNL     1      -6.252  17.750  68.953  0.00  0.00    +0.058 A 
ATOM     30 CL   UNL     1      -6.186  16.265  69.832  0.00  0.00    -0.082 Cl
ENDBRANCH  21  22
ENDBRANCH  19  21
ENDBRANCH   1  19
TORSDOF 5
ENDMDL
MODEL 8
REMARK VINA RESULT:      -7.3      3.764      8.690
REMARK  Name = 
REMARK  5 active torsions:
REMARK  status: ('A' for Active; 'I' for Inactive)
REMARK    1  A    between atoms: C_2  and  O_3
REMARK    2  A    between atoms: C_2  and  C_22
REMARK    3  A    between atoms: O_3  and  C_4
REMARK    4  A    between atoms: C_6  and  C_7
REMARK    5  A    between atoms: N_10  and  C_11
REMARK                            x       y       z     vdW  Elec       q    Type
REMARK                         _______ _______ _______ _____ _____    ______ ____
ROOT
ATOM      1  C   UNL     1      -8.387  17.324  68.347  0.00  0.00    +0.173 A 
ATOM      2  C   UNL     1      -9.241  17.858  67.388  0.00  0.00    +0.204 A 
ATOM      3  N   UNL     1      -8.629  18.215  66.150  0.00  0.00    -0.104 NA
ATOM      4  N   UNL     1     -10.567  17.595  67.504  0.00  0.00    -0.223 NA
ATOM      5  C   UNL     1     -10.936  16.637  68.393  0.00  0.00    +0.101 A 
ATOM      6  C   UNL     1     -10.030  15.655  68.788  0.00  0.00    +0.025 A 
ATOM      7  C   UNL     1      -8.733  16.132  68.967  0.00  0.00    +0.042 A 
ENDROOT
BRANCH   6   8
ATOM      8  C   UNL     1     -10.338  14.222  68.659  0.00  0.00    +0.041 A 
ATOM      9  C   UNL     1     -10.047  13.373  67.596  0.00  0.00    +0.097 A 
ATOM     10  N   UNL     1     -11.120  12.611  67.293  0.00  0.00    -0.251 N 
ATOM     11  N   UNL     1     -11.858  12.629  68.387  0.00  0.00    -0.168 NA
ATOM     12  C   UNL     1     -11.461  13.622  69.219  0.00  0.00    +0.122 A 
BRANCH  10  13
ATOM     13  C   UNL     1     -11.536  12.127  65.978  0.00  0.00    +0.108 C 
ATOM     14  C   UNL     1     -10.328  11.884  65.094  0.00  0.00    +0.043 C 
ATOM     15  C   UNL     1     -10.833  11.205  63.827  0.00  0.00    +0.091 C 
ATOM     16  N   UNL     1     -12.056  11.821  63.344  0.00  0.00    -0.218 NA
ATOM     17  C   UNL     1     -12.145  13.182  63.807  0.00  0.00    +0.091 C 
ATOM     18  C   UNL     1     -12.461  13.120  65.296  0.00  0.00    +0.043 C 
ENDBRANCH  10  13
ENDBRANCH   6   8
BRANCH   1  19
ATOM     19  O   UNL     1      -7.293  18.130  68.698  0.00  0.00    -0.472 OA
BRANCH  19  21
ATOM     20  C   UNL     1      -5.423  17.616  69.954  0.00  0.00    +0.052 C 
ATOM     21  C   UNL     1      -5.927  17.475  68.388  0.00  0.00    +0.190 C 
BRANCH  21  22
ATOM     22  C   UNL     1      -5.196  18.863  67.939  0.00  0.00    +0.041 A 
ATOM     23  C   UNL     1      -5.011  18.927  66.559  0.00  0.00    +0.085 A 
ATOM     24 CL   UNL     1      -4.321  17.523  65.786  0.00  0.00    -0.080 Cl
ATOM     25  C   UNL     1      -5.466  19.931  65.752  0.00  0.00    +0.150 A 
ATOM     26  F   UNL     1      -5.501  19.847  64.391  0.00  0.00    -0.203 F 
ATOM     27  C   UNL     1      -6.063  21.023  66.315  0.00  0.00    +0.031 A 
ATOM     28  C   UNL     1      -6.127  21.105  67.673  0.00  0.00    +0.014 A 
ATOM     29  C   UNL     1      -5.909  19.966  68.413  0.00  0.00    +0.058 A 
ATOM     30 CL   UNL     1      -6.412  20.012  70.065  0.00  0.00    -0.082 Cl
ENDBRANCH  21  22
ENDBRANCH  19  21
ENDBRANCH   1  19
TORSDOF 5
ENDMDL
MODEL 9
REMARK VINA RESULT:      -7.2      1.181      2.041
REMARK  Name = 
REMARK  5 active torsions:
REMARK  status: ('A' for Active; 'I' for Inactive)
REMARK    1  A    between atoms: C_2  and  O_3
REMARK    2  A    between atoms: C_2  and  C_22
REMARK    3  A    between atoms: O_3  and  C_4
REMARK    4  A    between atoms: C_6  and  C_7
REMARK    5  A    between atoms: N_10  and  C_11
REMARK                            x       y       z     vdW  Elec       q    Type
REMARK                         _______ _______ _______ _____ _____    ______ ____
ROOT
ATOM      1  C   UNL     1      -9.541  16.433  67.733  0.00  0.00    +0.173 A 
ATOM      2  C   UNL     1     -10.530  17.247  68.276  0.00  0.00    +0.204 A 
ATOM      3  N   UNL     1     -10.881  16.967  69.630  0.00  0.00    -0.104 NA
ATOM      4  N   UNL     1     -10.749  18.452  67.693  0.00  0.00    -0.223 NA
ATOM      5  C   UNL     1      -9.833  18.881  66.787  0.00  0.00    +0.101 A 
ATOM      6  C   UNL     1      -8.532  18.386  66.812  0.00  0.00    +0.025 A 
ATOM      7  C   UNL     1      -8.458  17.025  67.098  0.00  0.00    +0.042 A 
ENDROOT
BRANCH   6   8
ATOM      8  C   UNL     1      -7.366  19.279  66.899  0.00  0.00    +0.041 A 
ATOM      9  C   UNL     1      -6.232  19.137  67.692  0.00  0.00    +0.097 A 
ATOM     10  N   UNL     1      -5.922  20.310  68.286  0.00  0.00    -0.251 N 
ATOM     11  N   UNL     1      -6.515  21.224  67.543  0.00  0.00    -0.168 NA
ATOM     12  C   UNL     1      -7.437  20.658  66.727  0.00  0.00    +0.122 A 
BRANCH  10  13
ATOM     13  C   UNL     1      -5.330  20.520  69.606  0.00  0.00    +0.108 C 
ATOM     14  C   UNL     1      -3.937  19.923  69.666  0.00  0.00    +0.043 C 
ATOM     15  C   UNL     1      -3.326  20.352  70.995  0.00  0.00    +0.091 C 
ATOM     16  N   UNL     1      -4.282  20.238  72.081  0.00  0.00    -0.218 NA
ATOM     17  C   UNL     1      -5.293  19.264  71.756  0.00  0.00    +0.091 C 
ATOM     18  C   UNL     1      -6.186  19.895  70.695  0.00  0.00    +0.043 C 
ENDBRANCH  10  13
ENDBRANCH   6   8
BRANCH   1  19
ATOM     19  O   UNL     1      -9.806  15.055  67.765  0.00  0.00    -0.472 OA
BRANCH  19  21
ATOM     20  C   UNL     1     -11.252  13.255  67.852  0.00  0.00    +0.052 C 
ATOM     21  C   UNL     1     -11.095  14.664  67.006  0.00  0.00    +0.190 C 
BRANCH  21  22
ATOM     22  C   UNL     1     -10.321  13.932  65.769  0.00  0.00    +0.041 A 
ATOM     23  C   UNL     1      -9.600  12.819  66.197  0.00  0.00    +0.085 A 
ATOM     24 CL   UNL     1      -8.582  13.025  67.599  0.00  0.00    -0.080 Cl
ATOM     25  C   UNL     1      -9.745  11.554  65.703  0.00  0.00    +0.150 A 
ATOM     26  F   UNL     1      -9.224  10.445  66.305  0.00  0.00    -0.203 F 
ATOM     27  C   UNL     1     -10.575  11.341  64.640  0.00  0.00    +0.031 A 
ATOM     28  C   UNL     1     -11.185  12.413  64.063  0.00  0.00    +0.014 A 
ATOM     29  C   UNL     1     -11.223  13.602  64.756  0.00  0.00    +0.058 A 
ATOM     30 CL   UNL     1     -12.350  14.785  64.195  0.00  0.00    -0.082 Cl
ENDBRANCH  21  22
ENDBRANCH  19  21
ENDBRANCH   1  19
TORSDOF 5
ENDMDL
