MODEL 1
REMARK VINA RESULT:      -6.9      0.000      0.000
REMARK  Name = 
REMARK  2 active torsions:
REMARK  status: ('A' for Active; 'I' for Inactive)
REMARK    1  A    between atoms: N_11  and  C1*_12
REMARK    2  A    between atoms: C4*_14  and  C5*_15
REMARK                            x       y       z     vdW  Elec       q    Type
REMARK                         _______ _______ _______ _____ _____    ______ ____
ROOT
ATOM      1  N   UNL     1     -11.560  15.214  71.855  0.00  0.00    -0.105 NA
ATOM      2  C   UNL     1     -11.491  15.395  70.524  0.00  0.00    +0.194 A 
ATOM      3  C   UNL     1     -11.656  14.384  69.608  0.00  0.00    +0.152 A 
ATOM      4  N   UNL     1     -12.007  13.093  69.790  0.00  0.00    -0.219 NA
ATOM      5  C   UNL     1     -11.518  12.500  68.705  0.00  0.00    +0.182 A 
ATOM      6  N   UNL     1     -11.523  13.334  67.624  0.00  0.00    -0.269 N 
ATOM      7  C   UNL     1     -11.583  14.559  68.233  0.00  0.00    +0.171 A 
ATOM      8  N   UNL     1     -10.960  15.742  67.961  0.00  0.00    -0.182 NA
ATOM      9  C   UNL     1     -10.930  16.779  68.782  0.00  0.00    +0.313 A 
ATOM     10  F   UNL     1     -10.366  17.958  68.388  0.00  0.00    -0.161 F 
ATOM     11  N   UNL     1     -11.171  16.615  70.082  0.00  0.00    -0.181 NA
ENDROOT
BRANCH   6  12
ATOM     12  C1* UNL     1     -10.274  13.168  66.611  0.00  0.00    +0.241 C 
ATOM     13  C2* UNL     1     -11.081  12.072  65.534  0.00  0.00    +0.234 C 
ATOM     14  O2* UNL     1     -11.672  11.187  66.599  0.00  0.00    -0.216 OA
ATOM     15  C3* UNL     1     -12.419  13.126  65.456  0.00  0.00    +0.216 C 
ATOM     16  O3* UNL     1     -12.892  12.498  64.161  0.00  0.00    -0.218 OA
ATOM     17  C4* UNL     1     -11.219  14.023  64.581  0.00  0.00    +0.183 C 
ATOM     18  O4* UNL     1     -10.640  14.447  65.885  0.00  0.00    -0.331 OA
BRANCH  17  19
ATOM     19  C5* UNL     1     -12.255  15.317  64.507  0.00  0.00    +0.214 C 
ATOM     20  O5* UNL     1     -11.598  16.347  63.931  0.00  0.00    -0.218 OA
ENDBRANCH  17  19
ENDBRANCH   6  12
TORSDOF 2
ENDMDL
MODEL 2
REMARK VINA RESULT:      -6.5      2.472      3.981
REMARK  Name = 
REMARK  2 active torsions:
REMARK  status: ('A' for Active; 'I' for Inactive)
REMARK    1  A    between atoms: N_11  and  C1*_12
REMARK    2  A    between atoms: C4*_14  and  C5*_15
REMARK                            x       y       z     vdW  Elec       q    Type
REMARK                         _______ _______ _______ _____ _____    ______ ____
ROOT
ATOM      1  N   UNL     1     -10.448  19.074  65.861  0.00  0.00    -0.105 NA
ATOM      2  C   UNL     1     -10.303  17.788  66.227  0.00  0.00    +0.194 A 
ATOM      3  C   UNL     1     -10.757  16.728  65.480  0.00  0.00    +0.152 A 
ATOM      4  N   UNL     1     -11.312  16.704  64.249  0.00  0.00    -0.219 NA
ATOM      5  C   UNL     1     -11.996  15.564  64.258  0.00  0.00    +0.182 A 
ATOM      6  N   UNL     1     -11.397  14.618  65.039  0.00  0.00    -0.269 N 
ATOM      7  C   UNL     1     -10.615  15.397  65.850  0.00  0.00    +0.171 A 
ATOM      8  N   UNL     1     -10.333  15.327  67.183  0.00  0.00    -0.182 NA
ATOM      9  C   UNL     1      -9.753  16.292  67.878  0.00  0.00    +0.313 A 
ATOM     10  F   UNL     1      -9.420  16.098  69.187  0.00  0.00    -0.161 F 
ATOM     11  N   UNL     1      -9.752  17.542  67.420  0.00  0.00    -0.181 NA
ENDROOT
BRANCH   6  12
ATOM     12  C1* UNL     1     -12.403  13.641  65.845  0.00  0.00    +0.241 C 
ATOM     13  C2* UNL     1     -12.437  12.402  64.630  0.00  0.00    +0.234 C 
ATOM     14  O2* UNL     1     -12.612  13.321  63.450  0.00  0.00    -0.216 OA
ATOM     15  C3* UNL     1     -10.732  12.407  64.571  0.00  0.00    +0.216 C 
ATOM     16  O3* UNL     1     -10.709  11.025  63.952  0.00  0.00    -0.218 OA
ATOM     17  C4* UNL     1     -11.025  11.702  66.130  0.00  0.00    +0.183 C 
ATOM     18  O4* UNL     1     -11.262  13.072  66.663  0.00  0.00    -0.331 OA
BRANCH  17  19
ATOM     19  C5* UNL     1      -9.396  11.753  66.445  0.00  0.00    +0.214 C 
ATOM     20  O5* UNL     1      -9.232  12.102  67.741  0.00  0.00    -0.218 OA
ENDBRANCH  17  19
ENDBRANCH   6  12
TORSDOF 2
ENDMDL
MODEL 3
REMARK VINA RESULT:      -6.4      3.110      5.509
REMARK  Name = 
REMARK  2 active torsions:
REMARK  status: ('A' for Active; 'I' for Inactive)
REMARK    1  A    between atoms: N_11  and  C1*_12
REMARK    2  A    between atoms: C4*_14  and  C5*_15
REMARK                            x       y       z     vdW  Elec       q    Type
REMARK                         _______ _______ _______ _____ _____    ______ ____
ROOT
ATOM      1  N   UNL     1     -12.997  12.260  63.894  0.00  0.00    -0.105 NA
ATOM      2  C   UNL     1     -12.422  12.778  64.995  0.00  0.00    +0.194 A 
ATOM      3  C   UNL     1     -12.012  14.086  65.096  0.00  0.00    +0.152 A 
ATOM      4  N   UNL     1     -12.169  15.117  64.238  0.00  0.00    -0.219 NA
ATOM      5  C   UNL     1     -11.180  15.937  64.581  0.00  0.00    +0.182 A 
ATOM      6  N   UNL     1     -10.892  15.856  65.914  0.00  0.00    -0.269 N 
ATOM      7  C   UNL     1     -11.415  14.629  66.226  0.00  0.00    +0.171 A 
ATOM      8  N   UNL     1     -10.959  13.621  67.024  0.00  0.00    -0.182 NA
ATOM      9  C   UNL     1     -11.455  12.395  67.040  0.00  0.00    +0.313 A 
ATOM     10  F   UNL     1     -11.001  11.476  67.941  0.00  0.00    -0.161 F 
ATOM     11  N   UNL     1     -12.174  11.948  66.012  0.00  0.00    -0.181 NA
ENDROOT
BRANCH   6  12
ATOM     12  C1* UNL     1      -9.329  16.017  66.299  0.00  0.00    +0.241 C 
ATOM     13  C2* UNL     1      -9.410  17.723  66.605  0.00  0.00    +0.234 C 
ATOM     14  O2* UNL     1     -10.217  18.080  65.384  0.00  0.00    -0.216 OA
ATOM     15  C3* UNL     1     -10.766  17.482  67.613  0.00  0.00    +0.216 C 
ATOM     16  O3* UNL     1     -10.543  18.813  68.300  0.00  0.00    -0.218 OA
ATOM     17  C4* UNL     1      -9.495  16.780  68.564  0.00  0.00    +0.183 C 
ATOM     18  O4* UNL     1      -9.589  15.558  67.719  0.00  0.00    -0.331 OA
BRANCH  17  19
ATOM     19  C5* UNL     1     -10.625  16.237  69.651  0.00  0.00    +0.214 C 
ATOM     20  O5* UNL     1     -10.352  14.943  69.927  0.00  0.00    -0.218 OA
ENDBRANCH  17  19
ENDBRANCH   6  12
TORSDOF 2
ENDMDL
MODEL 4
REMARK VINA RESULT:      -6.2      1.971      3.741
REMARK  Name = 
REMARK  2 active torsions:
REMARK  status: ('A' for Active; 'I' for Inactive)
REMARK    1  A    between atoms: N_11  and  C1*_12
REMARK    2  A    between atoms: C4*_14  and  C5*_15
REMARK                            x       y       z     vdW  Elec       q    Type
REMARK                         _______ _______ _______ _____ _____    ______ ____
ROOT
ATOM      1  N   UNL     1     -10.293  19.025  67.203  0.00  0.00    -0.105 NA
ATOM      2  C   UNL     1     -10.526  17.752  67.573  0.00  0.00    +0.194 A 
ATOM      3  C   UNL     1     -10.553  16.697  66.694  0.00  0.00    +0.152 A 
ATOM      4  N   UNL     1     -10.269  16.654  65.375  0.00  0.00    -0.219 NA
ATOM      5  C   UNL     1     -10.938  15.580  64.965  0.00  0.00    +0.182 A 
ATOM      6  N   UNL     1     -11.020  14.630  65.942  0.00  0.00    -0.269 N 
ATOM      7  C   UNL     1     -10.796  15.381  67.065  0.00  0.00    +0.171 A 
ATOM      8  N   UNL     1     -11.368  15.360  68.303  0.00  0.00    -0.182 NA
ATOM      9  C   UNL     1     -11.218  16.307  69.215  0.00  0.00    +0.313 A 
ATOM     10  F   UNL     1     -11.748  16.156  70.463  0.00  0.00    -0.161 F 
ATOM     11  N   UNL     1     -10.818  17.526  68.857  0.00  0.00    -0.181 NA
ENDROOT
BRANCH   6  12
ATOM     12  C1* UNL     1     -12.401  13.790  65.982  0.00  0.00    +0.241 C 
ATOM     13  C2* UNL     1     -11.812  12.460  65.035  0.00  0.00    +0.234 C 
ATOM     14  O2* UNL     1     -11.136  13.289  63.974  0.00  0.00    -0.216 OA
ATOM     15  C3* UNL     1     -10.436  12.350  66.037  0.00  0.00    +0.216 C 
ATOM     16  O3* UNL     1     -10.180  10.923  65.598  0.00  0.00    -0.218 OA
ATOM     17  C4* UNL     1     -11.688  11.795  67.103  0.00  0.00    +0.183 C 
ATOM     18  O4* UNL     1     -12.061  13.217  67.343  0.00  0.00    -0.331 OA
BRANCH  17  19
ATOM     19  C5* UNL     1     -10.597  11.767  68.352  0.00  0.00    +0.214 C 
ATOM     20  O5* UNL     1     -11.277  11.942  69.506  0.00  0.00    -0.218 OA
ENDBRANCH  17  19
ENDBRANCH   6  12
TORSDOF 2
ENDMDL
MODEL 5
REMARK VINA RESULT:      -6.1      1.571      2.081
REMARK  Name = 
REMARK  2 active torsions:
REMARK  status: ('A' for Active; 'I' for Inactive)
REMARK    1  A    between atoms: N_11  and  C1*_12
REMARK    2  A    between atoms: C4*_14  and  C5*_15
REMARK                            x       y       z     vdW  Elec       q    Type
REMARK                         _______ _______ _______ _____ _____    ______ ____
ROOT
ATOM      1  N   UNL     1     -12.480  11.618  71.279  0.00  0.00    -0.105 NA
ATOM      2  C   UNL     1     -12.275  12.419  70.218  0.00  0.00    +0.194 A 
ATOM      3  C   UNL     1     -11.975  11.956  68.960  0.00  0.00    +0.152 A 
ATOM      4  N   UNL     1     -11.925  10.692  68.486  0.00  0.00    -0.219 NA
ATOM      5  C   UNL     1     -11.119  10.805  67.435  0.00  0.00    +0.182 A 
ATOM      6  N   UNL     1     -11.226  12.030  66.841  0.00  0.00    -0.269 N 
ATOM      7  C   UNL     1     -11.759  12.774  67.859  0.00  0.00    +0.171 A 
ATOM      8  N   UNL     1     -11.507  14.046  68.286  0.00  0.00    -0.182 NA
ATOM      9  C   UNL     1     -11.927  14.548  69.435  0.00  0.00    +0.313 A 
ATOM     10  F   UNL     1     -11.711  15.861  69.737  0.00  0.00    -0.161 F 
ATOM     11  N   UNL     1     -12.294  13.739  70.428  0.00  0.00    -0.181 NA
ENDROOT
BRANCH   6  12
ATOM     12  C1* UNL     1      -9.853  12.634  66.238  0.00  0.00    +0.241 C 
ATOM     13  C2* UNL     1     -10.092  12.018  64.634  0.00  0.00    +0.234 C 
ATOM     14  O2* UNL     1     -10.520  10.633  65.042  0.00  0.00    -0.216 OA
ATOM     15  C3* UNL     1     -11.671  12.664  64.617  0.00  0.00    +0.216 C 
ATOM     16  O3* UNL     1     -11.715  12.624  63.103  0.00  0.00    -0.218 OA
ATOM     17  C4* UNL     1     -10.705  14.104  64.548  0.00  0.00    +0.183 C 
ATOM     18  O4* UNL     1     -10.496  13.988  66.018  0.00  0.00    -0.331 OA
BRANCH  17  19
ATOM     19  C5* UNL     1     -12.079  15.019  64.715  0.00  0.00    +0.214 C 
ATOM     20  O5* UNL     1     -11.956  16.108  63.924  0.00  0.00    -0.218 OA
ENDBRANCH  17  19
ENDBRANCH   6  12
TORSDOF 2
ENDMDL
MODEL 6
REMARK VINA RESULT:      -6.1      2.475      3.498
REMARK  Name = 
REMARK  2 active torsions:
REMARK  status: ('A' for Active; 'I' for Inactive)
REMARK    1  A    between atoms: N_11  and  C1*_12
REMARK    2  A    between atoms: C4*_14  and  C5*_15
REMARK                            x       y       z     vdW  Elec       q    Type
REMARK                         _______ _______ _______ _____ _____    ______ ____
ROOT
ATOM      1  N   UNL     1     -13.293  12.712  71.828  0.00  0.00    -0.105 NA
ATOM      2  C   UNL     1     -12.690  13.812  71.343  0.00  0.00    +0.194 A 
ATOM      3  C   UNL     1     -12.036  13.852  70.134  0.00  0.00    +0.152 A 
ATOM      4  N   UNL     1     -11.939  12.916  69.166  0.00  0.00    -0.219 NA
ATOM      5  C   UNL     1     -10.829  13.271  68.526  0.00  0.00    +0.182 A 
ATOM      6  N   UNL     1     -10.636  14.623  68.553  0.00  0.00    -0.269 N 
ATOM      7  C   UNL     1     -11.407  14.981  69.627  0.00  0.00    +0.171 A 
ATOM      8  N   UNL     1     -11.204  15.876  70.636  0.00  0.00    -0.182 NA
ATOM      9  C   UNL     1     -11.932  15.941  71.738  0.00  0.00    +0.313 A 
ATOM     10  F   UNL     1     -11.718  16.933  72.651  0.00  0.00    -0.161 F 
ATOM     11  N   UNL     1     -12.666  14.898  72.121  0.00  0.00    -0.181 NA
ENDROOT
BRANCH   6  12
ATOM     12  C1* UNL     1      -9.097  15.105  68.665  0.00  0.00    +0.241 C 
ATOM     13  C2* UNL     1      -8.839  15.231  66.953  0.00  0.00    +0.234 C 
ATOM     14  O2* UNL     1      -9.489  13.924  66.583  0.00  0.00    -0.216 OA
ATOM     15  C3* UNL     1     -10.266  16.155  66.803  0.00  0.00    +0.216 C 
ATOM     16  O3* UNL     1      -9.809  16.720  65.473  0.00  0.00    -0.218 OA
ATOM     17  C4* UNL     1      -9.219  17.263  67.631  0.00  0.00    +0.183 C 
ATOM     18  O4* UNL     1      -9.520  16.540  68.898  0.00  0.00    -0.331 OA
BRANCH  17  19
ATOM     19  C5* UNL     1     -10.493  18.312  67.812  0.00  0.00    +0.214 C 
ATOM     20  O5* UNL     1      -9.992  19.529  68.121  0.00  0.00    -0.218 OA
ENDBRANCH  17  19
ENDBRANCH   6  12
TORSDOF 2
ENDMDL
MODEL 7
REMARK VINA RESULT:      -6.0      2.729      4.410
REMARK  Name = 
REMARK  2 active torsions:
REMARK  status: ('A' for Active; 'I' for Inactive)
REMARK    1  A    between atoms: N_11  and  C1*_12
REMARK    2  A    between atoms: C4*_14  and  C5*_15
REMARK                            x       y       z     vdW  Elec       q    Type
REMARK                         _______ _______ _______ _____ _____    ______ ____
ROOT
ATOM      1  N   UNL     1     -13.883  15.865  72.517  0.00  0.00    -0.105 NA
ATOM      2  C   UNL     1     -13.280  14.824  71.914  0.00  0.00    +0.194 A 
ATOM      3  C   UNL     1     -12.521  14.939  70.775  0.00  0.00    +0.152 A 
ATOM      4  N   UNL     1     -12.131  16.039  70.096  0.00  0.00    -0.219 NA
ATOM      5  C   UNL     1     -11.897  15.564  68.876  0.00  0.00    +0.182 A 
ATOM      6  N   UNL     1     -11.456  14.271  68.910  0.00  0.00    -0.269 N 
ATOM      7  C   UNL     1     -11.899  13.871  70.143  0.00  0.00    +0.171 A 
ATOM      8  N   UNL     1     -12.457  12.704  70.575  0.00  0.00    -0.182 NA
ATOM      9  C   UNL     1     -13.057  12.547  71.744  0.00  0.00    +0.313 A 
ATOM     10  F   UNL     1     -13.501  11.318  72.135  0.00  0.00    -0.161 F 
ATOM     11  N   UNL     1     -13.500  13.606  72.419  0.00  0.00    -0.181 NA
ENDROOT
BRANCH   6  12
ATOM     12  C1* UNL     1     -11.964  13.330  67.697  0.00  0.00    +0.241 C 
ATOM     13  C2* UNL     1     -10.595  13.630  66.673  0.00  0.00    +0.234 C 
ATOM     14  O2* UNL     1     -10.551  15.122  66.875  0.00  0.00    -0.216 OA
ATOM     15  C3* UNL     1      -9.543  13.273  67.968  0.00  0.00    +0.216 C 
ATOM     16  O3* UNL     1      -8.396  13.004  67.015  0.00  0.00    -0.218 OA
ATOM     17  C4* UNL     1     -10.202  11.708  67.613  0.00  0.00    +0.183 C 
ATOM     18  O4* UNL     1     -11.421  12.090  68.377  0.00  0.00    -0.331 OA
BRANCH  17  19
ATOM     19  C5* UNL     1      -9.435  11.094  68.950  0.00  0.00    +0.214 C 
ATOM     20  O5* UNL     1     -10.285  10.245  69.568  0.00  0.00    -0.218 OA
ENDBRANCH  17  19
ENDBRANCH   6  12
TORSDOF 2
ENDMDL
MODEL 8
REMARK VINA RESULT:      -5.6      2.431      3.401
REMARK  Name = 
REMARK  2 active torsions:
REMARK  status: ('A' for Active; 'I' for Inactive)
REMARK    1  A    between atoms: N_11  and  C1*_12
REMARK    2  A    between atoms: C4*_14  and  C5*_15
REMARK                            x       y       z     vdW  Elec       q    Type
REMARK                         _______ _______ _______ _____ _____    ______ ____
ROOT
ATOM      1  N   UNL     1      -9.447  19.543  68.562  0.00  0.00    -0.105 NA
ATOM      2  C   UNL     1      -9.291  18.438  67.811  0.00  0.00    +0.194 A 
ATOM      3  C   UNL     1     -10.079  17.319  67.931  0.00  0.00    +0.152 A 
ATOM      4  N   UNL     1     -11.179  17.104  68.684  0.00  0.00    -0.219 NA
ATOM      5  C   UNL     1     -11.200  15.780  68.804  0.00  0.00    +0.182 A 
ATOM      6  N   UNL     1     -10.676  15.163  67.704  0.00  0.00    -0.269 N 
ATOM      7  C   UNL     1      -9.925  16.172  67.164  0.00  0.00    +0.171 A 
ATOM      8  N   UNL     1      -8.688  16.178  66.587  0.00  0.00    -0.182 NA
ATOM      9  C   UNL     1      -7.987  17.269  66.328  0.00  0.00    +0.313 A 
ATOM     10  F   UNL     1      -6.800  17.187  65.661  0.00  0.00    -0.161 F 
ATOM     11  N   UNL     1      -8.264  18.410  66.956  0.00  0.00    -0.181 NA
ENDROOT
BRANCH   6  12
ATOM     12  C1* UNL     1      -9.840  13.810  67.998  0.00  0.00    +0.241 C 
ATOM     13  C2* UNL     1     -11.205  12.744  67.883  0.00  0.00    +0.234 C 
ATOM     14  O2* UNL     1     -12.146  13.578  68.712  0.00  0.00    -0.216 OA
ATOM     15  C3* UNL     1     -11.643  13.459  66.397  0.00  0.00    +0.216 C 
ATOM     16  O3* UNL     1     -12.473  12.251  66.013  0.00  0.00    -0.218 OA
ATOM     17  C4* UNL     1     -10.198  12.602  65.959  0.00  0.00    +0.183 C 
ATOM     18  O4* UNL     1      -9.405  13.716  66.550  0.00  0.00    -0.331 OA
BRANCH  17  19
ATOM     19  C5* UNL     1     -10.251  13.304  64.456  0.00  0.00    +0.214 C 
ATOM     20  O5* UNL     1     -10.144  12.324  63.532  0.00  0.00    -0.218 OA
ENDBRANCH  17  19
ENDBRANCH   6  12
TORSDOF 2
ENDMDL
MODEL 9
REMARK VINA RESULT:      -5.6      3.067      4.846
REMARK  Name = 
REMARK  2 active torsions:
REMARK  status: ('A' for Active; 'I' for Inactive)
REMARK    1  A    between atoms: N_11  and  C1*_12
REMARK    2  A    between atoms: C4*_14  and  C5*_15
REMARK                            x       y       z     vdW  Elec       q    Type
REMARK                         _______ _______ _______ _____ _____    ______ ____
ROOT
ATOM      1  N   UNL     1      -7.273  18.447  65.684  0.00  0.00    -0.105 NA
ATOM      2  C   UNL     1      -8.215  18.231  66.620  0.00  0.00    +0.194 A 
ATOM      3  C   UNL     1      -8.746  16.994  66.894  0.00  0.00    +0.152 A 
ATOM      4  N   UNL     1      -8.410  15.776  66.417  0.00  0.00    -0.219 NA
ATOM      5  C   UNL     1      -9.523  15.072  66.598  0.00  0.00    +0.182 A 
ATOM      6  N   UNL     1     -10.219  15.495  67.695  0.00  0.00    -0.269 N 
ATOM      7  C   UNL     1      -9.721  16.760  67.855  0.00  0.00    +0.171 A 
ATOM      8  N   UNL     1     -10.322  17.940  68.184  0.00  0.00    -0.182 NA
ATOM      9  C   UNL     1      -9.755  19.129  68.065  0.00  0.00    +0.313 A 
ATOM     10  F   UNL     1     -10.395  20.249  68.509  0.00  0.00    -0.161 F 
ATOM     11  N   UNL     1      -8.707  19.296  67.260  0.00  0.00    -0.181 NA
ENDROOT
BRANCH   6  12
ATOM     12  C1* UNL     1     -11.829  15.437  67.563  0.00  0.00    +0.241 C 
ATOM     13  C2* UNL     1     -11.996  13.860  68.266  0.00  0.00    +0.234 C 
ATOM     14  O2* UNL     1     -10.872  13.210  67.503  0.00  0.00    -0.216 OA
ATOM     15  C3* UNL     1     -11.024  14.340  69.583  0.00  0.00    +0.216 C 
ATOM     16  O3* UNL     1     -11.569  13.220  70.446  0.00  0.00    -0.218 OA
ATOM     17  C4* UNL     1     -12.469  15.258  69.865  0.00  0.00    +0.183 C 
ATOM     18  O4* UNL     1     -12.004  16.233  68.840  0.00  0.00    -0.331 OA
BRANCH  17  19
ATOM     19  C5* UNL     1     -11.709  16.051  71.109  0.00  0.00    +0.214 C 
ATOM     20  O5* UNL     1     -12.566  16.113  72.151  0.00  0.00    -0.218 OA
ENDBRANCH  17  19
ENDBRANCH   6  12
TORSDOF 2
ENDMDL
