MODEL 1
REMARK VINA RESULT:      -4.1      0.000      0.000
REMARK  Name = 
REMARK  4 active torsions:
REMARK  status: ('A' for Active; 'I' for Inactive)
REMARK    1  A    between atoms: C_2  and  C_3
REMARK    2  A    between atoms: C_3  and  C_5
REMARK    3  A    between atoms: C_5  and  C_6
REMARK    4  A    between atoms: C_6  and  C_7
REMARK                            x       y       z     vdW  Elec       q    Type
REMARK                         _______ _______ _______ _____ _____    ______ ____
ROOT
ATOM      1  C   UNL     1     -11.780  14.298  66.068  0.00  0.00    +0.078 C 
ENDROOT
BRANCH   1   2
ATOM      2  C   UNL     1     -12.176  12.944  65.564  0.00  0.00    +0.170 C 
ATOM      3  O   UNL     1     -12.125  11.980  66.326  0.00  0.00    -0.294 OA
BRANCH   2   5
ATOM      4  N   UNL     1     -12.921  12.076  63.438  0.00  0.00    -0.123 NA
ATOM      5  C   UNL     1     -11.811  12.678  64.137  0.00  0.00    +0.173 C 
ENDBRANCH   2   5
ENDBRANCH   1   2
BRANCH   1   6
ATOM      6  C   UNL     1     -10.633  14.882  65.290  0.00  0.00    +0.122 C 
BRANCH   6   7
ATOM      7  C   UNL     1     -10.684  16.379  65.260  0.00  0.00    +0.365 C 
ATOM      8  O   UNL     1      -9.541  17.101  65.621  0.00  0.00    -0.246 OA
ATOM      9  O   UNL     1     -11.286  16.825  64.235  0.00  0.00    -0.246 OA
ENDBRANCH   6   7
ENDBRANCH   1   6
TORSDOF 4
ENDMDL
MODEL 2
REMARK VINA RESULT:      -4.1      2.318      3.261
REMARK  Name = 
REMARK  4 active torsions:
REMARK  status: ('A' for Active; 'I' for Inactive)
REMARK    1  A    between atoms: C_2  and  C_3
REMARK    2  A    between atoms: C_3  and  C_5
REMARK    3  A    between atoms: C_5  and  C_6
REMARK    4  A    between atoms: C_6  and  C_7
REMARK                            x       y       z     vdW  Elec       q    Type
REMARK                         _______ _______ _______ _____ _____    ______ ____
ROOT
ATOM      1  C   UNL     1     -10.151  16.051  66.122  0.00  0.00    +0.078 C 
ENDROOT
BRANCH   1   2
ATOM      2  C   UNL     1     -10.986  15.761  64.911  0.00  0.00    +0.170 C 
ATOM      3  O   UNL     1     -11.374  16.694  64.211  0.00  0.00    -0.294 OA
BRANCH   2   5
ATOM      4  N   UNL     1     -12.519  14.265  63.796  0.00  0.00    -0.123 NA
ATOM      5  C   UNL     1     -11.935  14.614  65.069  0.00  0.00    +0.173 C 
ENDBRANCH   2   5
ENDBRANCH   1   2
BRANCH   1   6
ATOM      6  C   UNL     1      -9.872  17.521  66.282  0.00  0.00    +0.122 C 
BRANCH   6   7
ATOM      7  C   UNL     1     -10.487  18.072  67.532  0.00  0.00    +0.365 C 
ATOM      8  O   UNL     1     -11.113  19.322  67.482  0.00  0.00    -0.246 OA
ATOM      9  O   UNL     1     -11.123  17.191  68.190  0.00  0.00    -0.246 OA
ENDBRANCH   6   7
ENDBRANCH   1   6
TORSDOF 4
ENDMDL
MODEL 3
REMARK VINA RESULT:      -4.0      2.702      4.029
REMARK  Name = 
REMARK  4 active torsions:
REMARK  status: ('A' for Active; 'I' for Inactive)
REMARK    1  A    between atoms: C_2  and  C_3
REMARK    2  A    between atoms: C_3  and  C_5
REMARK    3  A    between atoms: C_5  and  C_6
REMARK    4  A    between atoms: C_6  and  C_7
REMARK                            x       y       z     vdW  Elec       q    Type
REMARK                         _______ _______ _______ _____ _____    ______ ____
ROOT
ATOM      1  C   UNL     1     -12.688  13.707  65.751  0.00  0.00    +0.078 C 
ENDROOT
BRANCH   1   2
ATOM      2  C   UNL     1     -12.308  14.553  64.573  0.00  0.00    +0.170 C 
ATOM      3  O   UNL     1     -12.483  14.115  63.438  0.00  0.00    -0.294 OA
BRANCH   2   5
ATOM      4  N   UNL     1     -11.310  16.734  64.296  0.00  0.00    -0.123 NA
ATOM      5  C   UNL     1     -11.085  15.392  64.777  0.00  0.00    +0.173 C 
ENDBRANCH   2   5
ENDBRANCH   1   2
BRANCH   1   6
ATOM      6  C   UNL     1     -11.940  14.097  66.997  0.00  0.00    +0.122 C 
BRANCH   6   7
ATOM      7  C   UNL     1     -11.611  12.906  67.844  0.00  0.00    +0.365 C 
ATOM      8  O   UNL     1     -11.761  13.003  69.232  0.00  0.00    -0.246 OA
ATOM      9  O   UNL     1     -12.038  11.820  67.343  0.00  0.00    -0.246 OA
ENDBRANCH   6   7
ENDBRANCH   1   6
TORSDOF 4
ENDMDL
MODEL 4
REMARK VINA RESULT:      -4.0      2.637      4.731
REMARK  Name = 
REMARK  4 active torsions:
REMARK  status: ('A' for Active; 'I' for Inactive)
REMARK    1  A    between atoms: C_2  and  C_3
REMARK    2  A    between atoms: C_3  and  C_5
REMARK    3  A    between atoms: C_5  and  C_6
REMARK    4  A    between atoms: C_6  and  C_7
REMARK                            x       y       z     vdW  Elec       q    Type
REMARK                         _______ _______ _______ _____ _____    ______ ____
ROOT
ATOM      1  C   UNL     1     -10.913  14.765  65.187  0.00  0.00    +0.078 C 
ENDROOT
BRANCH   1   2
ATOM      2  C   UNL     1     -10.895  16.261  65.274  0.00  0.00    +0.170 C 
ATOM      3  O   UNL     1     -11.192  16.924  64.282  0.00  0.00    -0.294 OA
BRANCH   2   5
ATOM      4  N   UNL     1      -9.732  18.254  65.984  0.00  0.00    -0.123 NA
ATOM      5  C   UNL     1      -9.815  16.822  66.145  0.00  0.00    +0.173 C 
ENDBRANCH   2   5
ENDBRANCH   1   2
BRANCH   1   6
ATOM      6  C   UNL     1     -12.303  14.203  65.315  0.00  0.00    +0.122 C 
BRANCH   6   7
ATOM      7  C   UNL     1     -12.313  12.709  65.201  0.00  0.00    +0.365 C 
ATOM      8  O   UNL     1     -12.053  11.943  66.343  0.00  0.00    -0.246 OA
ATOM      9  O   UNL     1     -13.273  12.282  64.488  0.00  0.00    -0.246 OA
ENDBRANCH   6   7
ENDBRANCH   1   6
TORSDOF 4
ENDMDL
MODEL 5
REMARK VINA RESULT:      -4.0      6.622      7.273
REMARK  Name = 
REMARK  4 active torsions:
REMARK  status: ('A' for Active; 'I' for Inactive)
REMARK    1  A    between atoms: C_2  and  C_3
REMARK    2  A    between atoms: C_3  and  C_5
REMARK    3  A    between atoms: C_5  and  C_6
REMARK    4  A    between atoms: C_6  and  C_7
REMARK                            x       y       z     vdW  Elec       q    Type
REMARK                         _______ _______ _______ _____ _____    ______ ____
ROOT
ATOM      1  C   UNL     1     -12.307  15.806  71.370  0.00  0.00    +0.078 C 
ENDROOT
BRANCH   1   2
ATOM      2  C   UNL     1     -13.225  15.494  72.513  0.00  0.00    +0.170 C 
ATOM      3  O   UNL     1     -14.326  16.039  72.565  0.00  0.00    -0.294 OA
BRANCH   2   5
ATOM      4  N   UNL     1     -12.544  16.480  74.609  0.00  0.00    -0.123 NA
ATOM      5  C   UNL     1     -12.536  15.270  73.823  0.00  0.00    +0.173 C 
ENDBRANCH   2   5
ENDBRANCH   1   2
BRANCH   1   6
ATOM      6  C   UNL     1     -12.387  14.775  70.278  0.00  0.00    +0.122 C 
BRANCH   6   7
ATOM      7  C   UNL     1     -11.719  15.242  69.021  0.00  0.00    +0.365 C 
ATOM      8  O   UNL     1     -11.961  14.548  67.830  0.00  0.00    -0.246 OA
ATOM      9  O   UNL     1     -11.732  16.506  68.904  0.00  0.00    -0.246 OA
ENDBRANCH   6   7
ENDBRANCH   1   6
TORSDOF 4
ENDMDL
MODEL 6
REMARK VINA RESULT:      -3.9      2.526      4.537
REMARK  Name = 
REMARK  4 active torsions:
REMARK  status: ('A' for Active; 'I' for Inactive)
REMARK    1  A    between atoms: C_2  and  C_3
REMARK    2  A    between atoms: C_3  and  C_5
REMARK    3  A    between atoms: C_5  and  C_6
REMARK    4  A    between atoms: C_6  and  C_7
REMARK                            x       y       z     vdW  Elec       q    Type
REMARK                         _______ _______ _______ _____ _____    ______ ____
ROOT
ATOM      1  C   UNL     1     -10.707  14.427  64.697  0.00  0.00    +0.078 C 
ENDROOT
BRANCH   1   2
ATOM      2  C   UNL     1     -11.019  15.842  65.079  0.00  0.00    +0.170 C 
ATOM      3  O   UNL     1     -11.286  16.657  64.198  0.00  0.00    -0.294 OA
BRANCH   2   5
ATOM      4  N   UNL     1      -9.008  16.972  65.792  0.00  0.00    -0.123 NA
ATOM      5  C   UNL     1     -10.235  16.361  66.244  0.00  0.00    +0.173 C 
ENDBRANCH   2   5
ENDBRANCH   1   2
BRANCH   1   6
ATOM      6  C   UNL     1     -10.721  13.500  65.882  0.00  0.00    +0.122 C 
BRANCH   6   7
ATOM      7  C   UNL     1     -12.070  12.882  66.090  0.00  0.00    +0.365 C 
ATOM      8  O   UNL     1     -12.940  12.778  64.999  0.00  0.00    -0.246 OA
ATOM      9  O   UNL     1     -12.023  11.848  66.825  0.00  0.00    -0.246 OA
ENDBRANCH   6   7
ENDBRANCH   1   6
TORSDOF 4
ENDMDL
MODEL 7
REMARK VINA RESULT:      -3.9      6.191      6.931
REMARK  Name = 
REMARK  4 active torsions:
REMARK  status: ('A' for Active; 'I' for Inactive)
REMARK    1  A    between atoms: C_2  and  C_3
REMARK    2  A    between atoms: C_3  and  C_5
REMARK    3  A    between atoms: C_5  and  C_6
REMARK    4  A    between atoms: C_6  and  C_7
REMARK                            x       y       z     vdW  Elec       q    Type
REMARK                         _______ _______ _______ _____ _____    ______ ____
ROOT
ATOM      1  C   UNL     1     -11.689  16.048  71.330  0.00  0.00    +0.078 C 
ENDROOT
BRANCH   1   2
ATOM      2  C   UNL     1     -11.688  15.562  69.912  0.00  0.00    +0.170 C 
ATOM      3  O   UNL     1     -11.994  16.340  69.010  0.00  0.00    -0.294 OA
BRANCH   2   5
ATOM      4  N   UNL     1     -12.018  13.745  68.357  0.00  0.00    -0.123 NA
ATOM      5  C   UNL     1     -12.132  14.143  69.740  0.00  0.00    +0.173 C 
ENDBRANCH   2   5
ENDBRANCH   1   2
BRANCH   1   6
ATOM      6  C   UNL     1     -12.222  15.016  72.286  0.00  0.00    +0.122 C 
BRANCH   6   7
ATOM      7  C   UNL     1     -13.235  15.595  73.225  0.00  0.00    +0.365 C 
ATOM      8  O   UNL     1     -12.794  16.399  74.282  0.00  0.00    -0.246 OA
ATOM      9  O   UNL     1     -14.261  16.037  72.621  0.00  0.00    -0.246 OA
ENDBRANCH   6   7
ENDBRANCH   1   6
TORSDOF 4
ENDMDL
MODEL 8
REMARK VINA RESULT:      -3.9      2.386      3.330
REMARK  Name = 
REMARK  4 active torsions:
REMARK  status: ('A' for Active; 'I' for Inactive)
REMARK    1  A    between atoms: C_2  and  C_3
REMARK    2  A    between atoms: C_3  and  C_5
REMARK    3  A    between atoms: C_5  and  C_6
REMARK    4  A    between atoms: C_6  and  C_7
REMARK                            x       y       z     vdW  Elec       q    Type
REMARK                         _______ _______ _______ _____ _____    ______ ____
ROOT
ATOM      1  C   UNL     1     -10.411  16.426  66.349  0.00  0.00    +0.078 C 
ENDROOT
BRANCH   1   2
ATOM      2  C   UNL     1     -10.842  15.978  64.985  0.00  0.00    +0.170 C 
ATOM      3  O   UNL     1     -11.311  16.802  64.203  0.00  0.00    -0.294 OA
BRANCH   2   5
ATOM      4  N   UNL     1     -12.571  14.583  64.040  0.00  0.00    -0.123 NA
ATOM      5  C   UNL     1     -11.444  14.608  64.940  0.00  0.00    +0.173 C 
ENDBRANCH   2   5
ENDBRANCH   1   2
BRANCH   1   6
ATOM      6  C   UNL     1      -9.684  17.743  66.313  0.00  0.00    +0.122 C 
BRANCH   6   7
ATOM      7  C   UNL     1     -10.575  18.882  66.702  0.00  0.00    +0.365 C 
ATOM      8  O   UNL     1     -10.573  19.317  68.032  0.00  0.00    -0.246 OA
ATOM      9  O   UNL     1     -10.571  19.818  65.843  0.00  0.00    -0.246 OA
ENDBRANCH   6   7
ENDBRANCH   1   6
TORSDOF 4
ENDMDL
MODEL 9
REMARK VINA RESULT:      -3.9      2.502      3.903
REMARK  Name = 
REMARK  4 active torsions:
REMARK  status: ('A' for Active; 'I' for Inactive)
REMARK    1  A    between atoms: C_2  and  C_3
REMARK    2  A    between atoms: C_3  and  C_5
REMARK    3  A    between atoms: C_5  and  C_6
REMARK    4  A    between atoms: C_6  and  C_7
REMARK                            x       y       z     vdW  Elec       q    Type
REMARK                         _______ _______ _______ _____ _____    ______ ____
ROOT
ATOM      1  C   UNL     1     -12.545  14.200  65.521  0.00  0.00    +0.078 C 
ENDROOT
BRANCH   1   2
ATOM      2  C   UNL     1     -11.308  14.830  66.084  0.00  0.00    +0.170 C 
ATOM      3  O   UNL     1     -11.316  15.241  67.242  0.00  0.00    -0.294 OA
BRANCH   2   5
ATOM      4  N   UNL     1     -11.393  16.483  64.326  0.00  0.00    -0.123 NA
ATOM      5  C   UNL     1     -10.517  15.638  65.102  0.00  0.00    +0.173 C 
ENDBRANCH   2   5
ENDBRANCH   1   2
BRANCH   1   6
ATOM      6  C   UNL     1     -12.341  12.748  65.183  0.00  0.00    +0.122 C 
BRANCH   6   7
ATOM      7  C   UNL     1     -12.077  12.548  63.722  0.00  0.00    +0.365 C 
ATOM      8  O   UNL     1     -10.776  12.248  63.306  0.00  0.00    -0.246 OA
ATOM      9  O   UNL     1     -12.982  11.862  63.153  0.00  0.00    -0.246 OA
ENDBRANCH   6   7
ENDBRANCH   1   6
TORSDOF 4
ENDMDL
