MODEL 1
REMARK VINA RESULT:      -5.3      0.000      0.000
REMARK  Name = 
REMARK  0 active torsions:
REMARK  status: ('A' for Active; 'I' for Inactive)
REMARK                            x       y       z     vdW  Elec       q    Type
REMARK                         _______ _______ _______ _____ _____    ______ ____
ROOT
ATOM      1  O   UNL     1     -11.636  16.610  63.920  0.00  0.00    -0.285 OA
ATOM      2  C   UNL     1     -11.081  15.707  64.828  0.00  0.00    +0.213 A 
ATOM      3  C   UNL     1     -11.415  14.361  64.813  0.00  0.00    +0.120 A 
ATOM      4  C   UNL     1     -10.485  13.433  65.257  0.00  0.00    +0.021 A 
ATOM      5  C   UNL     1     -10.305  12.208  64.654  0.00  0.00    +0.003 A 
ATOM      6  C   UNL     1     -11.203  11.810  63.686  0.00  0.00    +0.021 A 
ATOM      7  C   UNL     1     -12.262  12.661  63.418  0.00  0.00    +0.099 A 
ATOM      8  C   UNL     1      -9.566  13.891  66.189  0.00  0.00    +0.002 A 
ATOM      9  C   UNL     1      -9.451  15.219  66.488  0.00  0.00    +0.003 A 
ATOM     10  N   UNL     1     -12.349  13.896  63.962  0.00  0.00    -0.241 NA
ATOM     11  C   UNL     1     -10.255  16.143  65.833  0.00  0.00    +0.044 A 
ENDROOT
TORSDOF 0
ENDMDL
MODEL 2
REMARK VINA RESULT:      -4.9      2.159      3.898
REMARK  Name = 
REMARK  0 active torsions:
REMARK  status: ('A' for Active; 'I' for Inactive)
REMARK                            x       y       z     vdW  Elec       q    Type
REMARK                         _______ _______ _______ _____ _____    ______ ____
ROOT
ATOM      1  O   UNL     1     -11.568  16.501  63.888  0.00  0.00    -0.285 OA
ATOM      2  C   UNL     1     -11.546  15.424  64.776  0.00  0.00    +0.213 A 
ATOM      3  C   UNL     1     -10.948  15.520  66.024  0.00  0.00    +0.120 A 
ATOM      4  C   UNL     1     -11.426  14.733  67.061  0.00  0.00    +0.021 A 
ATOM      5  C   UNL     1     -11.531  15.188  68.356  0.00  0.00    +0.003 A 
ATOM      6  C   UNL     1     -10.973  16.407  68.676  0.00  0.00    +0.021 A 
ATOM      7  C   UNL     1     -10.298  17.077  67.670  0.00  0.00    +0.099 A 
ATOM      8  C   UNL     1     -12.029  13.541  66.690  0.00  0.00    +0.002 A 
ATOM      9  C   UNL     1     -12.323  13.262  65.387  0.00  0.00    +0.003 A 
ATOM     10  N   UNL     1     -10.301  16.643  66.389  0.00  0.00    -0.241 NA
ATOM     11  C   UNL     1     -12.034  14.198  64.401  0.00  0.00    +0.044 A 
ENDROOT
TORSDOF 0
ENDMDL
MODEL 3
REMARK VINA RESULT:      -4.8      6.194      6.710
REMARK  Name = 
REMARK  0 active torsions:
REMARK  status: ('A' for Active; 'I' for Inactive)
REMARK                            x       y       z     vdW  Elec       q    Type
REMARK                         _______ _______ _______ _____ _____    ______ ____
ROOT
ATOM      1  O   UNL     1     -10.579  15.502  70.321  0.00  0.00    -0.285 OA
ATOM      2  C   UNL     1     -11.752  15.051  70.927  0.00  0.00    +0.213 A 
ATOM      3  C   UNL     1     -12.323  13.831  70.595  0.00  0.00    +0.120 A 
ATOM      4  C   UNL     1     -13.067  13.155  71.550  0.00  0.00    +0.021 A 
ATOM      5  C   UNL     1     -13.027  11.786  71.697  0.00  0.00    +0.003 A 
ATOM      6  C   UNL     1     -12.365  11.039  70.746  0.00  0.00    +0.021 A 
ATOM      7  C   UNL     1     -11.818  11.722  69.673  0.00  0.00    +0.099 A 
ATOM      8  C   UNL     1     -13.671  13.942  72.519  0.00  0.00    +0.002 A 
ATOM      9  C   UNL     1     -13.377  15.269  72.649  0.00  0.00    +0.003 A 
ATOM     10  N   UNL     1     -11.797  13.072  69.615  0.00  0.00    -0.241 NA
ATOM     11  C   UNL     1     -12.436  15.850  71.808  0.00  0.00    +0.044 A 
ENDROOT
TORSDOF 0
ENDMDL
MODEL 4
REMARK VINA RESULT:      -4.8      2.247      4.330
REMARK  Name = 
REMARK  0 active torsions:
REMARK  status: ('A' for Active; 'I' for Inactive)
REMARK                            x       y       z     vdW  Elec       q    Type
REMARK                         _______ _______ _______ _____ _____    ______ ____
ROOT
ATOM      1  O   UNL     1     -11.579  16.599  63.865  0.00  0.00    -0.285 OA
ATOM      2  C   UNL     1     -10.975  15.947  64.940  0.00  0.00    +0.213 A 
ATOM      3  C   UNL     1     -10.275  16.642  65.915  0.00  0.00    +0.120 A 
ATOM      4  C   UNL     1     -10.214  16.121  67.199  0.00  0.00    +0.021 A 
ATOM      5  C   UNL     1     -10.285  16.906  68.328  0.00  0.00    +0.003 A 
ATOM      6  C   UNL     1     -10.230  18.277  68.184  0.00  0.00    +0.021 A 
ATOM      7  C   UNL     1     -10.062  18.771  66.902  0.00  0.00    +0.099 A 
ATOM      8  C   UNL     1     -10.328  14.743  67.302  0.00  0.00    +0.002 A 
ATOM      9  C   UNL     1     -10.690  13.972  66.234  0.00  0.00    +0.003 A 
ATOM     10  N   UNL     1     -10.094  17.972  65.812  0.00  0.00    -0.241 NA
ATOM     11  C   UNL     1     -10.972  14.576  65.015  0.00  0.00    +0.044 A 
ENDROOT
TORSDOF 0
ENDMDL
MODEL 5
REMARK VINA RESULT:      -4.8      5.694      6.763
REMARK  Name = 
REMARK  0 active torsions:
REMARK  status: ('A' for Active; 'I' for Inactive)
REMARK                            x       y       z     vdW  Elec       q    Type
REMARK                         _______ _______ _______ _____ _____    ______ ____
ROOT
ATOM      1  O   UNL     1     -11.666  16.640  68.815  0.00  0.00    -0.285 OA
ATOM      2  C   UNL     1     -11.654  15.344  69.333  0.00  0.00    +0.213 A 
ATOM      3  C   UNL     1     -11.738  15.103  70.697  0.00  0.00    +0.120 A 
ATOM      4  C   UNL     1     -12.308  13.917  71.136  0.00  0.00    +0.021 A 
ATOM      5  C   UNL     1     -13.122  13.845  72.244  0.00  0.00    +0.003 A 
ATOM      6  C   UNL     1     -13.231  14.953  73.057  0.00  0.00    +0.021 A 
ATOM      7  C   UNL     1     -12.471  16.061  72.722  0.00  0.00    +0.099 A 
ATOM      8  C   UNL     1     -12.223  12.843  70.263  0.00  0.00    +0.002 A 
ATOM      9  C   UNL     1     -11.799  12.998  68.975  0.00  0.00    +0.003 A 
ATOM     10  N   UNL     1     -11.760  16.124  71.573  0.00  0.00    -0.241 NA
ATOM     11  C   UNL     1     -11.460  14.263  68.510  0.00  0.00    +0.044 A 
ENDROOT
TORSDOF 0
ENDMDL
MODEL 6
REMARK VINA RESULT:      -4.8      6.183      7.151
REMARK  Name = 
REMARK  0 active torsions:
REMARK  status: ('A' for Active; 'I' for Inactive)
REMARK                            x       y       z     vdW  Elec       q    Type
REMARK                         _______ _______ _______ _____ _____    ______ ____
ROOT
ATOM      1  O   UNL     1     -11.538  12.733  68.325  0.00  0.00    -0.285 OA
ATOM      2  C   UNL     1     -11.915  12.359  69.615  0.00  0.00    +0.213 A 
ATOM      3  C   UNL     1     -12.198  13.301  70.594  0.00  0.00    +0.120 A 
ATOM      4  C   UNL     1     -13.098  12.976  71.599  0.00  0.00    +0.021 A 
ATOM      5  C   UNL     1     -14.011  13.875  72.102  0.00  0.00    +0.003 A 
ATOM      6  C   UNL     1     -13.912  15.199  71.726  0.00  0.00    +0.021 A 
ATOM      7  C   UNL     1     -12.860  15.542  70.894  0.00  0.00    +0.099 A 
ATOM      8  C   UNL     1     -13.205  11.629  71.906  0.00  0.00    +0.002 A 
ATOM      9  C   UNL     1     -12.625  10.668  71.128  0.00  0.00    +0.003 A 
ATOM     10  N   UNL     1     -12.044  14.615  70.346  0.00  0.00    -0.241 NA
ATOM     11  C   UNL     1     -11.925  11.038  69.986  0.00  0.00    +0.044 A 
ENDROOT
TORSDOF 0
ENDMDL
MODEL 7
REMARK VINA RESULT:      -4.7      5.970      6.711
REMARK  Name = 
REMARK  0 active torsions:
REMARK  status: ('A' for Active; 'I' for Inactive)
REMARK                            x       y       z     vdW  Elec       q    Type
REMARK                         _______ _______ _______ _____ _____    ______ ____
ROOT
ATOM      1  O   UNL     1     -11.918  16.676  72.770  0.00  0.00    -0.285 OA
ATOM      2  C   UNL     1     -12.469  15.536  72.186  0.00  0.00    +0.213 A 
ATOM      3  C   UNL     1     -12.402  15.310  70.819  0.00  0.00    +0.120 A 
ATOM      4  C   UNL     1     -12.392  14.004  70.353  0.00  0.00    +0.021 A 
ATOM      5  C   UNL     1     -11.618  13.596  69.290  0.00  0.00    +0.003 A 
ATOM      6  C   UNL     1     -10.965  14.553  68.542  0.00  0.00    +0.021 A 
ATOM      7  C   UNL     1     -11.173  15.877  68.890  0.00  0.00    +0.099 A 
ATOM      8  C   UNL     1     -13.012  13.065  71.163  0.00  0.00    +0.002 A 
ATOM      9  C   UNL     1     -13.416  13.368  72.431  0.00  0.00    +0.003 A 
ATOM     10  N   UNL     1     -11.862  16.230  69.999  0.00  0.00    -0.241 NA
ATOM     11  C   UNL     1     -13.186  14.640  72.941  0.00  0.00    +0.044 A 
ENDROOT
TORSDOF 0
ENDMDL
MODEL 8
REMARK VINA RESULT:      -4.6      2.848      3.938
REMARK  Name = 
REMARK  0 active torsions:
REMARK  status: ('A' for Active; 'I' for Inactive)
REMARK                            x       y       z     vdW  Elec       q    Type
REMARK                         _______ _______ _______ _____ _____    ______ ____
ROOT
ATOM      1  O   UNL     1     -13.239  13.166  64.874  0.00  0.00    -0.285 OA
ATOM      2  C   UNL     1     -12.043  12.455  64.778  0.00  0.00    +0.213 A 
ATOM      3  C   UNL     1     -11.359  12.022  65.905  0.00  0.00    +0.120 A 
ATOM      4  C   UNL     1     -10.577  10.880  65.820  0.00  0.00    +0.021 A 
ATOM      5  C   UNL     1     -10.498   9.951  66.833  0.00  0.00    +0.003 A 
ATOM      6  C   UNL     1     -11.071  10.251  68.051  0.00  0.00    +0.021 A 
ATOM      7  C   UNL     1     -11.655  11.500  68.184  0.00  0.00    +0.099 A 
ATOM      8  C   UNL     1     -10.066  10.587  64.565  0.00  0.00    +0.002 A 
ATOM      9  C   UNL     1     -10.479  11.255  63.448  0.00  0.00    +0.003 A 
ATOM     10  N   UNL     1     -11.796  12.344  67.137  0.00  0.00    -0.241 NA
ATOM     11  C   UNL     1     -11.451  12.242  63.559  0.00  0.00    +0.044 A 
ENDROOT
TORSDOF 0
ENDMDL
MODEL 9
REMARK VINA RESULT:      -4.6      2.075      3.443
REMARK  Name = 
REMARK  0 active torsions:
REMARK  status: ('A' for Active; 'I' for Inactive)
REMARK                            x       y       z     vdW  Elec       q    Type
REMARK                         _______ _______ _______ _____ _____    ______ ____
ROOT
ATOM      1  O   UNL     1     -12.633  14.823  64.056  0.00  0.00    -0.285 OA
ATOM      2  C   UNL     1     -11.878  13.731  64.486  0.00  0.00    +0.213 A 
ATOM      3  C   UNL     1     -11.390  13.646  65.782  0.00  0.00    +0.120 A 
ATOM      4  C   UNL     1     -11.195  12.394  66.346  0.00  0.00    +0.021 A 
ATOM      5  C   UNL     1     -11.474  12.119  67.666  0.00  0.00    +0.003 A 
ATOM      6  C   UNL     1     -11.786  13.165  68.508  0.00  0.00    +0.021 A 
ATOM      7  C   UNL     1     -11.754  14.441  67.970  0.00  0.00    +0.099 A 
ATOM      8  C   UNL     1     -10.938  11.361  65.459  0.00  0.00    +0.002 A 
ATOM      9  C   UNL     1     -11.079  11.523  64.110  0.00  0.00    +0.003 A 
ATOM     10  N   UNL     1     -11.570  14.660  66.649  0.00  0.00    -0.241 NA
ATOM     11  C   UNL     1     -11.511  12.744  63.606  0.00  0.00    +0.044 A 
ENDROOT
TORSDOF 0
ENDMDL
