MODEL 1
REMARK VINA RESULT:      -8.9      0.000      0.000
REMARK  Name = 
REMARK  5 active torsions:
REMARK  status: ('A' for Active; 'I' for Inactive)
REMARK    1  A    between atoms: O_2  and  C_3
REMARK    2  A    between atoms: C_15  and  C_16
REMARK    3  A    between atoms: N_17  and  N_18
REMARK    4  A    between atoms: C_51  and  O_52
REMARK    5  A    between atoms: O_52  and  C_53
REMARK                            x       y       z     vdW  Elec       q    Type
REMARK                         _______ _______ _______ _____ _____    ______ ____
ROOT
ATOM      1  C   UNL     1      -6.338  17.743  68.142  0.00  0.00    +0.144 C 
ATOM      2  C   UNL     1      -5.145  16.568  68.463  0.00  0.00    +0.072 C 
ATOM      3  C   UNL     1      -4.254  16.730  67.137  0.00  0.00    +0.007 C 
ATOM      4  C   UNL     1      -4.205  17.565  69.437  0.00  0.00    +0.174 C 
ATOM      5  C   UNL     1      -3.504  16.323  70.358  0.00  0.00    +0.071 C 
ATOM      6  C   UNL     1      -3.094  15.402  69.112  0.00  0.00    +0.006 C 
ATOM      7  C   UNL     1      -4.929  15.553  70.876  0.00  0.00    +0.158 C 
ATOM      8  O   UNL     1      -4.115  14.813  71.902  0.00  0.00    -0.223 OA
ATOM      9  C   UNL     1      -4.972  14.292  69.768  0.00  0.00    +0.061 C 
ATOM     10  C   UNL     1      -6.598  14.322  69.734  0.00  0.00    +0.005 C 
ATOM     11  C   UNL     1      -5.119  12.967  70.802  0.00  0.00    +0.158 C 
ATOM     12  O   UNL     1      -5.559  12.232  69.565  0.00  0.00    -0.223 OA
ATOM     13  C   UNL     1      -3.483  12.487  70.715  0.00  0.00    +0.053 C 
ATOM     14  C   UNL     1      -3.527  11.880  72.227  0.00  0.00    +0.007 C 
ATOM     15  C   UNL     1      -3.675  11.048  70.067  0.00  0.00    -0.024 C 
ATOM     16  C   UNL     1      -4.529  10.205  70.489  0.00  0.00    -0.005 C 
ATOM     17  C   UNL     1      -5.380   9.263  69.955  0.00  0.00    -0.000 C 
ATOM     18  C   UNL     1      -6.646   9.135  69.585  0.00  0.00    +0.033 C 
ATOM     19  C   UNL     1      -7.741   9.187  70.635  0.00  0.00    +0.036 C 
ATOM     20  C   UNL     1      -7.045   8.769  68.201  0.00  0.00    +0.265 C 
ATOM     21  O   UNL     1      -7.088   7.508  67.976  0.00  0.00    -0.268 OA
ATOM     22  N   UNL     1      -7.419   9.647  67.186  0.00  0.00    -0.172 NA
ATOM     23  C   UNL     1      -8.740  10.048  66.736  0.00  0.00    +0.117 A 
ATOM     24  C   UNL     1      -8.837  10.730  65.511  0.00  0.00    +0.214 A 
ATOM     25  C   UNL     1      -9.534  11.945  65.429  0.00  0.00    +0.082 A 
ATOM     26  C   UNL     1      -9.651  12.691  66.625  0.00  0.00    +0.051 A 
ATOM     27  C   UNL     1      -9.757  11.920  67.778  0.00  0.00    +0.199 A 
ATOM     28  O   UNL     1      -9.558  12.281  69.121  0.00  0.00    -0.286 OA
ATOM     29  C   UNL     1     -10.206  13.949  66.405  0.00  0.00    +0.079 A 
ATOM     30  C   UNL     1      -9.758  15.242  66.908  0.00  0.00    +0.251 C 
ATOM     31  C   UNL     1      -9.874  16.294  65.843  0.00  0.00    +0.326 C 
ATOM     32  O   UNL     1     -10.670  15.636  64.924  0.00  0.00    -0.443 OA
ATOM     33  C   UNL     1     -10.647  17.505  66.277  0.00  0.00    +0.100 C 
ATOM     34  O   UNL     1      -8.621  16.694  65.385  0.00  0.00    -0.440 OA
ATOM     35  C   UNL     1      -7.744  17.452  66.119  0.00  0.00    +0.174 C 
ATOM     36  O   UNL     1      -9.713  15.719  68.089  0.00  0.00    -0.284 OA
ATOM     37  C   UNL     1     -10.728  14.292  65.156  0.00  0.00    +0.145 A 
ATOM     38  C   UNL     1     -11.145  13.314  64.256  0.00  0.00    +0.051 A 
ATOM     39  C   UNL     1     -12.432  13.436  63.559  0.00  0.00    +0.038 C 
ATOM     40  C   UNL     1     -10.422  12.133  64.363  0.00  0.00    +0.198 A 
ATOM     41  O   UNL     1     -10.937  11.063  63.620  0.00  0.00    -0.287 OA
ATOM     42  O   UNL     1      -8.620  10.158  64.246  0.00  0.00    -0.285 OA
ATOM     43  C   UNL     1      -9.676  10.515  67.683  0.00  0.00    +0.078 A 
ATOM     44  C   UNL     1      -6.891  16.865  66.905  0.00  0.00    +0.043 C 
ENDROOT
BRANCH   1  46
ATOM     45  C   UNL     1      -5.704  19.083  67.159  0.00  0.00    +0.174 C 
ATOM     46  O   UNL     1      -5.512  18.622  67.228  0.00  0.00    -0.349 OA
ENDBRANCH   1  46
BRANCH  43  47
ATOM     47  C   UNL     1     -10.783   9.705  68.247  0.00  0.00    +0.122 C 
ATOM     48  N   UNL     1     -10.688   8.501  68.638  0.00  0.00    -0.180 NA
BRANCH  48  49
ATOM     49  N   UNL     1     -10.782   8.034  69.949  0.00  0.00    -0.230 N 
ATOM     50  C   UNL     1     -11.287   8.970  70.949  0.00  0.00    +0.128 C 
ATOM     51  C   UNL     1     -11.230   8.440  72.341  0.00  0.00    +0.096 C 
ATOM     52  N   UNL     1     -11.669   7.080  72.482  0.00  0.00    -0.268 NA
ATOM     53  C   UNL     1     -10.563   6.306  72.992  0.00  0.00    +0.090 C 
ATOM     54  C   UNL     1     -12.151   6.563  71.224  0.00  0.00    +0.096 C 
ATOM     55  C   UNL     1     -10.972   6.622  70.259  0.00  0.00    +0.128 C 
ENDBRANCH  48  49
ENDBRANCH  43  47
BRANCH   4  56
ATOM     56  O   UNL     1      -5.309  17.845  70.444  0.00  0.00    -0.452 OA
BRANCH  56  57
ATOM     57  C   UNL     1      -5.287  19.109  71.030  0.00  0.00    +0.317 C 
ATOM     58  O   UNL     1      -4.702  19.192  72.125  0.00  0.00    -0.250 OA
ATOM     59  C   UNL     1      -6.063  20.274  70.562  0.00  0.00    +0.121 C 
ENDBRANCH  56  57
ENDBRANCH   4  56
TORSDOF 5
ENDMDL
MODEL 2
REMARK VINA RESULT:      -8.7      3.232      7.804
REMARK  Name = 
REMARK  5 active torsions:
REMARK  status: ('A' for Active; 'I' for Inactive)
REMARK    1  A    between atoms: O_2  and  C_3
REMARK    2  A    between atoms: C_15  and  C_16
REMARK    3  A    between atoms: N_17  and  N_18
REMARK    4  A    between atoms: C_51  and  O_52
REMARK    5  A    between atoms: O_52  and  C_53
REMARK                            x       y       z     vdW  Elec       q    Type
REMARK                         _______ _______ _______ _____ _____    ______ ____
ROOT
ATOM      1  C   UNL     1      -3.700  11.416  68.809  0.00  0.00    +0.144 C 
ATOM      2  C   UNL     1      -4.504  11.000  67.365  0.00  0.00    +0.072 C 
ATOM      3  C   UNL     1      -3.395  11.467  66.302  0.00  0.00    +0.007 C 
ATOM      4  C   UNL     1      -4.053   9.380  67.399  0.00  0.00    +0.174 C 
ATOM      5  C   UNL     1      -5.376   8.796  66.510  0.00  0.00    +0.071 C 
ATOM      6  C   UNL     1      -5.277   9.878  65.331  0.00  0.00    +0.006 C 
ATOM      7  C   UNL     1      -6.628   9.456  67.453  0.00  0.00    +0.158 C 
ATOM      8  O   UNL     1      -7.593   8.538  66.752  0.00  0.00    -0.223 OA
ATOM      9  C   UNL     1      -6.986  10.805  66.518  0.00  0.00    +0.061 C 
ATOM     10  C   UNL     1      -7.347  11.679  67.843  0.00  0.00    +0.005 C 
ATOM     11  C   UNL     1      -8.650  10.615  66.313  0.00  0.00    +0.158 C 
ATOM     12  O   UNL     1      -8.623  12.068  65.920  0.00  0.00    -0.223 OA
ATOM     13  C   UNL     1      -8.568  10.003  64.722  0.00  0.00    +0.053 C 
ATOM     14  C   UNL     1      -9.921   9.120  64.937  0.00  0.00    +0.007 C 
ATOM     15  C   UNL     1      -9.366  11.153  63.967  0.00  0.00    -0.024 C 
ATOM     16  C   UNL     1     -10.479  11.612  64.379  0.00  0.00    -0.005 C 
ATOM     17  C   UNL     1     -11.118  12.830  64.439  0.00  0.00    -0.000 C 
ATOM     18  C   UNL     1     -11.319  13.828  65.287  0.00  0.00    +0.033 C 
ATOM     19  C   UNL     1     -12.154  13.593  66.534  0.00  0.00    +0.036 C 
ATOM     20  C   UNL     1     -10.909  15.226  64.995  0.00  0.00    +0.265 C 
ATOM     21  O   UNL     1     -11.774  15.908  64.340  0.00  0.00    -0.268 OA
ATOM     22  N   UNL     1      -9.734  15.850  65.409  0.00  0.00    -0.172 NA
ATOM     23  C   UNL     1      -9.491  16.732  66.537  0.00  0.00    +0.117 A 
ATOM     24  C   UNL     1      -8.280  17.444  66.563  0.00  0.00    +0.214 A 
ATOM     25  C   UNL     1      -7.458  17.403  67.700  0.00  0.00    +0.082 A 
ATOM     26  C   UNL     1      -7.592  16.272  68.539  0.00  0.00    +0.051 A 
ATOM     27  C   UNL     1      -8.882  15.756  68.611  0.00  0.00    +0.199 A 
ATOM     28  O   UNL     1      -9.322  14.497  69.050  0.00  0.00    -0.286 OA
ATOM     29  C   UNL     1      -6.623  16.243  69.538  0.00  0.00    +0.079 A 
ATOM     30  C   UNL     1      -5.791  15.126  69.968  0.00  0.00    +0.251 C 
ATOM     31  C   UNL     1      -4.388  15.583  70.242  0.00  0.00    +0.326 C 
ATOM     32  O   UNL     1      -4.571  16.953  70.276  0.00  0.00    -0.443 OA
ATOM     33  C   UNL     1      -3.885  15.193  71.601  0.00  0.00    +0.100 C 
ATOM     34  O   UNL     1      -3.501  15.112  69.277  0.00  0.00    -0.440 OA
ATOM     35  C   UNL     1      -3.115  13.800  69.169  0.00  0.00    +0.174 C 
ATOM     36  O   UNL     1      -6.086  14.024  70.538  0.00  0.00    -0.284 OA
ATOM     37  C   UNL     1      -5.767  17.329  69.736  0.00  0.00    +0.145 A 
ATOM     38  C   UNL     1      -6.116  18.608  69.310  0.00  0.00    +0.051 A 
ATOM     39  C   UNL     1      -5.940  19.768  70.195  0.00  0.00    +0.038 C 
ATOM     40  C   UNL     1      -6.920  18.605  68.177  0.00  0.00    +0.198 A 
ATOM     41  O   UNL     1      -7.456  19.853  67.835  0.00  0.00    -0.287 OA
ATOM     42  O   UNL     1      -7.946  18.506  65.707  0.00  0.00    -0.285 OA
ATOM     43  C   UNL     1      -9.903  16.330  67.825  0.00  0.00    +0.078 A 
ATOM     44  C   UNL     1      -3.811  12.983  68.436  0.00  0.00    +0.043 C 
ENDROOT
BRANCH   1  46
ATOM     45  C   UNL     1      -1.938  11.245  68.638  0.00  0.00    +0.174 C 
ATOM     46  O   UNL     1      -2.284  11.329  68.281  0.00  0.00    -0.349 OA
ENDBRANCH   1  46
BRANCH  43  47
ATOM     47  C   UNL     1     -11.134  16.803  68.504  0.00  0.00    +0.122 C 
ATOM     48  N   UNL     1     -12.078  16.060  68.916  0.00  0.00    -0.180 NA
BRANCH  48  49
ATOM     49  N   UNL     1     -12.434  15.812  70.242  0.00  0.00    -0.230 N 
ATOM     50  C   UNL     1     -13.183  14.587  70.506  0.00  0.00    +0.128 C 
ATOM     51  C   UNL     1     -13.641  14.463  71.919  0.00  0.00    +0.096 C 
ATOM     52  N   UNL     1     -12.653  14.815  72.901  0.00  0.00    -0.268 NA
ATOM     53  C   UNL     1     -13.164  15.924  73.669  0.00  0.00    +0.090 C 
ATOM     54  C   UNL     1     -11.393  15.133  72.271  0.00  0.00    +0.096 C 
ATOM     55  C   UNL     1     -11.661  16.329  71.364  0.00  0.00    +0.128 C 
ENDBRANCH  48  49
ENDBRANCH  43  47
BRANCH   4  56
ATOM     56  O   UNL     1      -4.687   9.094  68.751  0.00  0.00    -0.452 OA
BRANCH  56  57
ATOM     57  C   UNL     1      -4.020   8.165  69.547  0.00  0.00    +0.317 C 
ATOM     58  O   UNL     1      -4.523   7.945  70.663  0.00  0.00    -0.250 OA
ATOM     59  C   UNL     1      -2.689   7.600  69.257  0.00  0.00    +0.121 C 
ENDBRANCH  56  57
ENDBRANCH   4  56
TORSDOF 5
ENDMDL
MODEL 3
REMARK VINA RESULT:      -7.7      3.004      8.837
REMARK  Name = 
REMARK  5 active torsions:
REMARK  status: ('A' for Active; 'I' for Inactive)
REMARK    1  A    between atoms: O_2  and  C_3
REMARK    2  A    between atoms: C_15  and  C_16
REMARK    3  A    between atoms: N_17  and  N_18
REMARK    4  A    between atoms: C_51  and  O_52
REMARK    5  A    between atoms: O_52  and  C_53
REMARK                            x       y       z     vdW  Elec       q    Type
REMARK                         _______ _______ _______ _____ _____    ______ ____
ROOT
ATOM      1  C   UNL     1      -9.100   7.942  68.691  0.00  0.00    +0.144 C 
ATOM      2  C   UNL     1      -8.352   8.395  70.156  0.00  0.00    +0.072 C 
ATOM      3  C   UNL     1      -9.649   8.482  71.097  0.00  0.00    +0.007 C 
ATOM      4  C   UNL     1      -7.914   6.832  70.594  0.00  0.00    +0.174 C 
ATOM      5  C   UNL     1      -6.579   7.269  71.546  0.00  0.00    +0.071 C 
ATOM      6  C   UNL     1      -7.336   8.409  72.382  0.00  0.00    +0.006 C 
ATOM      7  C   UNL     1      -5.743   8.207  70.400  0.00  0.00    +0.158 C 
ATOM      8  O   UNL     1      -4.526   8.138  71.282  0.00  0.00    -0.223 OA
ATOM      9  C   UNL     1      -6.219   9.737  70.906  0.00  0.00    +0.061 C 
ATOM     10  C   UNL     1      -6.214  10.290  69.375  0.00  0.00    +0.005 C 
ATOM     11  C   UNL     1      -4.720  10.493  71.077  0.00  0.00    +0.158 C 
ATOM     12  O   UNL     1      -5.521  11.767  71.053  0.00  0.00    -0.223 OA
ATOM     13  C   UNL     1      -4.647  10.367  72.778  0.00  0.00    +0.053 C 
ATOM     14  C   UNL     1      -3.020  10.288  72.754  0.00  0.00    +0.007 C 
ATOM     15  C   UNL     1      -4.627  11.914  73.146  0.00  0.00    -0.024 C 
ATOM     16  C   UNL     1      -3.864  12.754  72.571  0.00  0.00    -0.005 C 
ATOM     17  C   UNL     1      -3.928  14.062  72.145  0.00  0.00    -0.000 C 
ATOM     18  C   UNL     1      -4.173  14.759  71.045  0.00  0.00    +0.033 C 
ATOM     19  C   UNL     1      -3.209  14.672  69.875  0.00  0.00    +0.036 C 
ATOM     20  C   UNL     1      -5.263  15.765  70.956  0.00  0.00    +0.265 C 
ATOM     21  O   UNL     1      -4.937  16.939  71.356  0.00  0.00    -0.268 OA
ATOM     22  N   UNL     1      -6.541  15.560  70.441  0.00  0.00    -0.172 NA
ATOM     23  C   UNL     1      -7.078  15.860  69.125  0.00  0.00    +0.117 A 
ATOM     24  C   UNL     1      -8.472  15.810  68.959  0.00  0.00    +0.214 A 
ATOM     25  C   UNL     1      -9.035  15.055  67.918  0.00  0.00    +0.082 A 
ATOM     26  C   UNL     1      -8.259  13.983  67.421  0.00  0.00    +0.051 A 
ATOM     27  C   UNL     1      -6.886  14.208  67.435  0.00  0.00    +0.199 A 
ATOM     28  O   UNL     1      -5.825  13.292  67.343  0.00  0.00    -0.286 OA
ATOM     29  C   UNL     1      -8.969  13.198  66.516  0.00  0.00    +0.079 A 
ATOM     30  C   UNL     1      -9.069  11.746  66.452  0.00  0.00    +0.251 C 
ATOM     31  C   UNL     1     -10.473  11.324  66.127  0.00  0.00    +0.326 C 
ATOM     32  O   UNL     1     -11.007  12.527  65.706  0.00  0.00    -0.443 OA
ATOM     33  C   UNL     1     -10.563  10.391  64.955  0.00  0.00    +0.100 C 
ATOM     34  O   UNL     1     -11.094  10.734  67.226  0.00  0.00    -0.440 OA
ATOM     35  C   UNL     1     -10.771   9.492  67.712  0.00  0.00    +0.174 C 
ATOM     36  O   UNL     1      -8.198  10.849  66.197  0.00  0.00    -0.284 OA
ATOM     37  C   UNL     1     -10.231  13.592  66.064  0.00  0.00    +0.145 A 
ATOM     38  C   UNL     1     -10.625  14.927  66.101  0.00  0.00    +0.051 A 
ATOM     39  C   UNL     1     -11.271  15.552  64.938  0.00  0.00    +0.038 C 
ATOM     40  C   UNL     1     -10.055  15.634  67.152  0.00  0.00    +0.198 A 
ATOM     41  O   UNL     1     -10.264  17.019  67.108  0.00  0.00    -0.287 OA
ATOM     42  O   UNL     1      -9.386  16.728  69.501  0.00  0.00    -0.285 OA
ATOM     43  C   UNL     1      -6.386  15.408  67.982  0.00  0.00    +0.078 A 
ATOM     44  C   UNL     1      -9.838   9.376  68.609  0.00  0.00    +0.043 C 
ENDROOT
BRANCH   1  46
ATOM     45  C   UNL     1     -10.561   6.968  68.972  0.00  0.00    +0.174 C 
ATOM     46  O   UNL     1     -10.322   7.280  69.289  0.00  0.00    -0.349 OA
ENDBRANCH   1  46
BRANCH  43  47
ATOM     47  C   UNL     1      -5.502  16.251  67.141  0.00  0.00    +0.122 C 
ATOM     48  N   UNL     1      -5.894  17.063  66.247  0.00  0.00    -0.180 NA
BRANCH  48  49
ATOM     49  N   UNL     1      -5.807  18.455  66.280  0.00  0.00    -0.230 N 
ATOM     50  C   UNL     1      -6.438  19.183  65.183  0.00  0.00    +0.128 C 
ATOM     51  C   UNL     1      -6.185  20.651  65.221  0.00  0.00    +0.096 C 
ATOM     52  N   UNL     1      -6.316  21.248  66.521  0.00  0.00    -0.268 NA
ATOM     53  C   UNL     1      -5.042  21.825  66.875  0.00  0.00    +0.090 C 
ATOM     54  C   UNL     1      -6.753  20.272  67.491  0.00  0.00    +0.096 C 
ATOM     55  C   UNL     1      -5.674  19.196  67.529  0.00  0.00    +0.128 C 
ENDBRANCH  48  49
ENDBRANCH  43  47
BRANCH   4  56
ATOM     56  O   UNL     1      -7.084   6.572  69.346  0.00  0.00    -0.452 OA
BRANCH  56  57
ATOM     57  C   UNL     1      -7.137   5.273  68.845  0.00  0.00    +0.317 C 
ATOM     58  O   UNL     1      -6.496   5.068  67.798  0.00  0.00    -0.250 OA
ATOM     59  C   UNL     1      -8.037   4.211  69.333  0.00  0.00    +0.121 C 
ENDBRANCH  56  57
ENDBRANCH   4  56
TORSDOF 5
ENDMDL
MODEL 4
REMARK VINA RESULT:      -7.2      2.469      6.677
REMARK  Name = 
REMARK  5 active torsions:
REMARK  status: ('A' for Active; 'I' for Inactive)
REMARK    1  A    between atoms: O_2  and  C_3
REMARK    2  A    between atoms: C_15  and  C_16
REMARK    3  A    between atoms: N_17  and  N_18
REMARK    4  A    between atoms: C_51  and  O_52
REMARK    5  A    between atoms: O_52  and  C_53
REMARK                            x       y       z     vdW  Elec       q    Type
REMARK                         _______ _______ _______ _____ _____    ______ ____
ROOT
ATOM      1  C   UNL     1      -6.505  18.176  68.258  0.00  0.00    +0.144 C 
ATOM      2  C   UNL     1      -8.115  17.620  68.176  0.00  0.00    +0.072 C 
ATOM      3  C   UNL     1      -8.594  17.981  69.666  0.00  0.00    +0.007 C 
ATOM      4  C   UNL     1      -8.721  19.011  67.449  0.00  0.00    +0.174 C 
ATOM      5  C   UNL     1     -10.032  18.262  66.674  0.00  0.00    +0.071 C 
ATOM      6  C   UNL     1     -10.547  17.453  67.958  0.00  0.00    +0.006 C 
ATOM      7  C   UNL     1      -9.180  17.047  65.845  0.00  0.00    +0.158 C 
ATOM      8  O   UNL     1     -10.404  16.812  65.001  0.00  0.00    -0.223 OA
ATOM      9  C   UNL     1      -9.457  15.762  66.889  0.00  0.00    +0.061 C 
ATOM     10  C   UNL     1      -7.990  15.134  66.573  0.00  0.00    +0.005 C 
ATOM     11  C   UNL     1     -10.070  14.610  65.818  0.00  0.00    +0.158 C 
ATOM     12  O   UNL     1      -9.751  13.630  66.915  0.00  0.00    -0.223 OA
ATOM     13  C   UNL     1     -11.710  14.821  66.245  0.00  0.00    +0.053 C 
ATOM     14  C   UNL     1     -12.205  14.415  64.746  0.00  0.00    +0.007 C 
ATOM     15  C   UNL     1     -12.013  13.364  66.805  0.00  0.00    -0.024 C 
ATOM     16  C   UNL     1     -11.683  12.300  66.190  0.00  0.00    -0.005 C 
ATOM     17  C   UNL     1     -11.215  11.044  66.507  0.00  0.00    -0.000 C 
ATOM     18  C   UNL     1     -10.072  10.380  66.594  0.00  0.00    +0.033 C 
ATOM     19  C   UNL     1      -9.272  10.103  65.333  0.00  0.00    +0.036 C 
ATOM     20  C   UNL     1      -9.609   9.736  67.850  0.00  0.00    +0.265 C 
ATOM     21  O   UNL     1     -10.052   8.547  68.033  0.00  0.00    -0.268 OA
ATOM     22  N   UNL     1      -8.723  10.274  68.780  0.00  0.00    -0.172 NA
ATOM     23  C   UNL     1      -7.296  10.060  68.944  0.00  0.00    +0.117 A 
ATOM     24  C   UNL     1      -6.698  10.508  70.134  0.00  0.00    +0.214 A 
ATOM     25  C   UNL     1      -5.558  11.325  70.091  0.00  0.00    +0.082 A 
ATOM     26  C   UNL     1      -5.368  12.087  68.915  0.00  0.00    +0.051 A 
ATOM     27  C   UNL     1      -5.809  11.469  67.749  0.00  0.00    +0.199 A 
ATOM     28  O   UNL     1      -6.088  12.024  66.489  0.00  0.00    -0.286 OA
ATOM     29  C   UNL     1      -4.310  12.985  69.037  0.00  0.00    +0.079 A 
ATOM     30  C   UNL     1      -4.266  14.395  68.672  0.00  0.00    +0.251 C 
ATOM     31  C   UNL     1      -3.528  15.189  69.710  0.00  0.00    +0.326 C 
ATOM     32  O   UNL     1      -2.920  14.172  70.421  0.00  0.00    -0.443 OA
ATOM     33  C   UNL     1      -2.419  16.029  69.146  0.00  0.00    +0.100 C 
ATOM     34  O   UNL     1      -4.392  16.007  70.436  0.00  0.00    -0.440 OA
ATOM     35  C   UNL     1      -4.996  17.127  69.924  0.00  0.00    +0.174 C 
ATOM     36  O   UNL     1      -4.330  14.977  67.539  0.00  0.00    -0.284 OA
ATOM     37  C   UNL     1      -3.470  12.952  70.152  0.00  0.00    +0.145 A 
ATOM     38  C   UNL     1      -3.336  11.797  70.919  0.00  0.00    +0.051 A 
ATOM     39  C   UNL     1      -2.008  11.316  71.326  0.00  0.00    +0.038 C 
ATOM     40  C   UNL     1      -4.489  11.024  70.945  0.00  0.00    +0.198 A 
ATOM     41  O   UNL     1      -4.336   9.763  71.535  0.00  0.00    -0.287 OA
ATOM     42  O   UNL     1      -6.891   9.937  71.403  0.00  0.00    -0.285 OA
ATOM     43  C   UNL     1      -6.446  10.213  67.828  0.00  0.00    +0.078 A 
ATOM     44  C   UNL     1      -6.146  17.021  69.328  0.00  0.00    +0.043 C 
ENDROOT
BRANCH   1  46
ATOM     45  C   UNL     1      -6.311  19.513  69.415  0.00  0.00    +0.174 C 
ATOM     46  O   UNL     1      -6.706  19.207  69.348  0.00  0.00    -0.349 OA
ENDBRANCH   1  46
BRANCH  43  47
ATOM     47  C   UNL     1      -5.901   9.094  67.021  0.00  0.00    +0.122 C 
ATOM     48  N   UNL     1      -5.852   7.879  67.389  0.00  0.00    -0.180 NA
BRANCH  48  49
ATOM     49  N   UNL     1      -6.580   6.813  66.862  0.00  0.00    -0.230 N 
ATOM     50  C   UNL     1      -7.365   6.020  67.804  0.00  0.00    +0.128 C 
ATOM     51  C   UNL     1      -8.003   4.823  67.186  0.00  0.00    +0.096 C 
ATOM     52  N   UNL     1      -8.617   5.064  65.910  0.00  0.00    -0.268 NA
ATOM     53  C   UNL     1      -7.960   4.229  64.934  0.00  0.00    +0.090 C 
ATOM     54  C   UNL     1      -8.541   6.462  65.559  0.00  0.00    +0.096 C 
ATOM     55  C   UNL     1      -7.057   6.802  65.484  0.00  0.00    +0.128 C 
ENDBRANCH  48  49
ENDBRANCH  43  47
BRANCH   4  56
ATOM     56  O   UNL     1      -7.809  18.932  66.235  0.00  0.00    -0.452 OA
BRANCH  56  57
ATOM     57  C   UNL     1      -7.160  20.116  65.888  0.00  0.00    +0.317 C 
ATOM     58  O   UNL     1      -7.365  21.088  66.638  0.00  0.00    -0.250 OA
ATOM     59  C   UNL     1      -6.440  20.349  64.622  0.00  0.00    +0.121 C 
ENDBRANCH  56  57
ENDBRANCH   4  56
TORSDOF 5
ENDMDL
MODEL 5
REMARK VINA RESULT:      -7.1      4.730      7.803
REMARK  Name = 
REMARK  5 active torsions:
REMARK  status: ('A' for Active; 'I' for Inactive)
REMARK    1  A    between atoms: O_2  and  C_3
REMARK    2  A    between atoms: C_15  and  C_16
REMARK    3  A    between atoms: N_17  and  N_18
REMARK    4  A    between atoms: C_51  and  O_52
REMARK    5  A    between atoms: O_52  and  C_53
REMARK                            x       y       z     vdW  Elec       q    Type
REMARK                         _______ _______ _______ _____ _____    ______ ____
ROOT
ATOM      1  C   UNL     1      -8.029  10.157  65.045  0.00  0.00    +0.144 C 
ATOM      2  C   UNL     1      -7.525   8.533  65.169  0.00  0.00    +0.072 C 
ATOM      3  C   UNL     1      -8.687   7.831  64.312  0.00  0.00    +0.007 C 
ATOM      4  C   UNL     1      -6.406   8.623  63.917  0.00  0.00    +0.174 C 
ATOM      5  C   UNL     1      -5.390   7.386  64.482  0.00  0.00    +0.071 C 
ATOM      6  C   UNL     1      -6.558   6.323  64.758  0.00  0.00    +0.006 C 
ATOM      7  C   UNL     1      -5.114   7.979  66.052  0.00  0.00    +0.158 C 
ATOM      8  O   UNL     1      -3.973   7.007  66.181  0.00  0.00    -0.223 OA
ATOM      9  C   UNL     1      -6.221   7.038  66.894  0.00  0.00    +0.061 C 
ATOM     10  C   UNL     1      -6.518   8.249  67.939  0.00  0.00    +0.005 C 
ATOM     11  C   UNL     1      -5.230   6.381  68.092  0.00  0.00    +0.158 C 
ATOM     12  O   UNL     1      -6.526   6.068  68.791  0.00  0.00    -0.223 OA
ATOM     13  C   UNL     1      -5.053   4.849  67.361  0.00  0.00    +0.053 C 
ATOM     14  C   UNL     1      -3.572   4.653  68.012  0.00  0.00    +0.007 C 
ATOM     15  C   UNL     1      -5.731   3.953  68.486  0.00  0.00    -0.024 C 
ATOM     16  C   UNL     1      -5.457   4.065  69.723  0.00  0.00    -0.005 C 
ATOM     17  C   UNL     1      -6.127   3.999  70.925  0.00  0.00    -0.000 C 
ATOM     18  C   UNL     1      -6.699   4.799  71.812  0.00  0.00    +0.033 C 
ATOM     19  C   UNL     1      -5.840   5.762  72.613  0.00  0.00    +0.036 C 
ATOM     20  C   UNL     1      -8.130   4.686  72.193  0.00  0.00    +0.265 C 
ATOM     21  O   UNL     1      -8.366   3.848  73.134  0.00  0.00    -0.268 OA
ATOM     22  N   UNL     1      -9.188   5.428  71.672  0.00  0.00    -0.172 NA
ATOM     23  C   UNL     1      -9.845   6.613  72.194  0.00  0.00    +0.117 A 
ATOM     24  C   UNL     1     -11.066   6.996  71.613  0.00  0.00    +0.214 A 
ATOM     25  C   UNL     1     -11.254   8.310  71.159  0.00  0.00    +0.082 A 
ATOM     26  C   UNL     1     -10.089   9.036  70.816  0.00  0.00    +0.051 A 
ATOM     27  C   UNL     1      -8.972   8.734  71.588  0.00  0.00    +0.199 A 
ATOM     28  O   UNL     1      -7.613   8.986  71.339  0.00  0.00    -0.286 OA
ATOM     29  C   UNL     1     -10.390  10.258  70.221  0.00  0.00    +0.079 A 
ATOM     30  C   UNL     1      -9.815  10.853  69.020  0.00  0.00    +0.251 C 
ATOM     31  C   UNL     1     -10.879  11.515  68.195  0.00  0.00    +0.326 C 
ATOM     32  O   UNL     1     -11.918  11.553  69.106  0.00  0.00    -0.443 OA
ATOM     33  C   UNL     1     -10.570  12.943  67.852  0.00  0.00    +0.100 C 
ATOM     34  O   UNL     1     -11.126  10.809  67.020  0.00  0.00    -0.440 OA
ATOM     35  C   UNL     1     -10.255  10.758  65.961  0.00  0.00    +0.174 C 
ATOM     36  O   UNL     1      -8.639  11.277  68.767  0.00  0.00    -0.284 OA
ATOM     37  C   UNL     1     -11.705  10.724  70.169  0.00  0.00    +0.145 A 
ATOM     38  C   UNL     1     -12.666  10.271  71.070  0.00  0.00    +0.051 A 
ATOM     39  C   UNL     1     -13.562  11.217  71.750  0.00  0.00    +0.038 C 
ATOM     40  C   UNL     1     -12.449   8.963  71.485  0.00  0.00    +0.198 A 
ATOM     41  O   UNL     1     -13.271   8.539  72.537  0.00  0.00    -0.287 OA
ATOM     42  O   UNL     1     -12.281   6.306  71.754  0.00  0.00    -0.285 OA
ATOM     43  C   UNL     1      -9.060   7.724  72.569  0.00  0.00    +0.078 A 
ATOM     44  C   UNL     1      -9.344   9.831  65.923  0.00  0.00    +0.043 C 
ENDROOT
BRANCH   1  46
ATOM     45  C   UNL     1      -8.881  10.470  63.515  0.00  0.00    +0.174 C 
ATOM     46  O   UNL     1      -8.793  10.030  63.744  0.00  0.00    -0.349 OA
ENDBRANCH   1  46
BRANCH  43  47
ATOM     47  C   UNL     1      -8.687   8.062  73.964  0.00  0.00    +0.122 C 
ATOM     48  N   UNL     1      -7.524   7.953  74.461  0.00  0.00    -0.180 NA
BRANCH  48  49
ATOM     49  N   UNL     1      -6.680   8.990  74.860  0.00  0.00    -0.230 N 
ATOM     50  C   UNL     1      -6.840   9.484  76.225  0.00  0.00    +0.128 C 
ATOM     51  C   UNL     1      -5.999  10.676  76.527  0.00  0.00    +0.096 C 
ATOM     52  N   UNL     1      -4.647  10.591  76.050  0.00  0.00    -0.268 NA
ATOM     53  C   UNL     1      -4.436  11.671  75.117  0.00  0.00    +0.090 C 
ATOM     54  C   UNL     1      -4.395   9.303  75.447  0.00  0.00    +0.096 C 
ATOM     55  C   UNL     1      -5.360   9.187  74.273  0.00  0.00    +0.128 C 
ENDBRANCH  48  49
ENDBRANCH  43  47
BRANCH   4  56
ATOM     56  O   UNL     1      -5.590   9.740  64.549  0.00  0.00    -0.452 OA
BRANCH  56  57
ATOM     57  C   UNL     1      -4.978  10.620  63.659  0.00  0.00    +0.317 C 
ATOM     58  O   UNL     1      -4.186  11.438  64.160  0.00  0.00    -0.250 OA
ATOM     59  C   UNL     1      -5.348  10.785  62.240  0.00  0.00    +0.121 C 
ENDBRANCH  56  57
ENDBRANCH   4  56
TORSDOF 5
ENDMDL
MODEL 6
REMARK VINA RESULT:      -7.0      3.055      8.932
REMARK  Name = 
REMARK  5 active torsions:
REMARK  status: ('A' for Active; 'I' for Inactive)
REMARK    1  A    between atoms: O_2  and  C_3
REMARK    2  A    between atoms: C_15  and  C_16
REMARK    3  A    between atoms: N_17  and  N_18
REMARK    4  A    between atoms: C_51  and  O_52
REMARK    5  A    between atoms: O_52  and  C_53
REMARK                            x       y       z     vdW  Elec       q    Type
REMARK                         _______ _______ _______ _____ _____    ______ ____
ROOT
ATOM      1  C   UNL     1      -8.821   7.569  69.266  0.00  0.00    +0.144 C 
ATOM      2  C   UNL     1      -8.131   8.137  70.718  0.00  0.00    +0.072 C 
ATOM      3  C   UNL     1      -9.461   8.268  71.608  0.00  0.00    +0.007 C 
ATOM      4  C   UNL     1      -7.686   6.616  71.281  0.00  0.00    +0.174 C 
ATOM      5  C   UNL     1      -6.390   7.143  72.244  0.00  0.00    +0.071 C 
ATOM      6  C   UNL     1      -7.193   8.327  72.971  0.00  0.00    +0.006 C 
ATOM      7  C   UNL     1      -5.530   8.012  71.063  0.00  0.00    +0.158 C 
ATOM      8  O   UNL     1      -4.343   8.027  71.988  0.00  0.00    -0.223 OA
ATOM      9  C   UNL     1      -6.045   9.565  71.442  0.00  0.00    +0.061 C 
ATOM     10  C   UNL     1      -5.995  10.008  69.877  0.00  0.00    +0.005 C 
ATOM     11  C   UNL     1      -4.564  10.357  71.609  0.00  0.00    +0.158 C 
ATOM     12  O   UNL     1      -5.383  11.612  71.467  0.00  0.00    -0.223 OA
ATOM     13  C   UNL     1      -4.549  10.353  73.316  0.00  0.00    +0.053 C 
ATOM     14  C   UNL     1      -2.920  10.300  73.352  0.00  0.00    +0.007 C 
ATOM     15  C   UNL     1      -4.563  11.922  73.572  0.00  0.00    -0.024 C 
ATOM     16  C   UNL     1      -3.794  12.733  72.965  0.00  0.00    -0.005 C 
ATOM     17  C   UNL     1      -3.863  14.006  72.445  0.00  0.00    -0.000 C 
ATOM     18  C   UNL     1      -4.079  14.619  71.290  0.00  0.00    +0.033 C 
ATOM     19  C   UNL     1      -3.074  14.465  70.163  0.00  0.00    +0.036 C 
ATOM     20  C   UNL     1      -5.180  15.597  71.094  0.00  0.00    +0.265 C 
ATOM     21  O   UNL     1      -4.886  16.802  71.419  0.00  0.00    -0.268 OA
ATOM     22  N   UNL     1      -6.436  15.334  70.552  0.00  0.00    -0.172 NA
ATOM     23  C   UNL     1      -6.932  15.531  69.201  0.00  0.00    +0.117 A 
ATOM     24  C   UNL     1      -8.319  15.445  68.992  0.00  0.00    +0.214 A 
ATOM     25  C   UNL     1      -8.834  14.609  67.990  0.00  0.00    +0.082 A 
ATOM     26  C   UNL     1      -8.026  13.518  67.596  0.00  0.00    +0.051 A 
ATOM     27  C   UNL     1      -6.658  13.766  67.640  0.00  0.00    +0.199 A 
ATOM     28  O   UNL     1      -5.581  12.865  67.649  0.00  0.00    -0.286 OA
ATOM     29  C   UNL     1      -8.692  12.659  66.726  0.00  0.00    +0.079 A 
ATOM     30  C   UNL     1      -8.769  11.204  66.763  0.00  0.00    +0.251 C 
ATOM     31  C   UNL     1     -10.154  10.736  66.422  0.00  0.00    +0.326 C 
ATOM     32  O   UNL     1     -10.691  11.897  65.899  0.00  0.00    -0.443 OA
ATOM     33  C   UNL     1     -10.189   9.722  65.317  0.00  0.00    +0.100 C 
ATOM     34  O   UNL     1     -10.804  10.215  67.539  0.00  0.00    -0.440 OA
ATOM     35  C   UNL     1     -10.480   9.017  68.123  0.00  0.00    +0.174 C 
ATOM     36  O   UNL     1      -7.877  10.307  66.602  0.00  0.00    -0.284 OA
ATOM     37  C   UNL     1      -9.944  12.998  66.206  0.00  0.00    +0.145 A 
ATOM     38  C   UNL     1     -10.358  14.325  66.134  0.00  0.00    +0.051 A 
ATOM     39  C   UNL     1     -10.972  14.855  64.908  0.00  0.00    +0.038 C 
ATOM     40  C   UNL     1      -9.835  15.115  67.150  0.00  0.00    +0.198 A 
ATOM     41  O   UNL     1     -10.063  16.489  67.001  0.00  0.00    -0.287 OA
ATOM     42  O   UNL     1      -9.265  16.384  69.436  0.00  0.00    -0.285 OA
ATOM     43  C   UNL     1      -6.195  15.011  68.116  0.00  0.00    +0.078 A 
ATOM     44  C   UNL     1      -9.577   8.981  69.057  0.00  0.00    +0.043 C 
ENDROOT
BRANCH   1  46
ATOM     45  C   UNL     1     -10.312   6.640  69.546  0.00  0.00    +0.174 C 
ATOM     46  O   UNL     1     -10.054   6.930  69.868  0.00  0.00    -0.349 OA
ENDBRANCH   1  46
BRANCH  43  47
ATOM     47  C   UNL     1      -5.294  15.807  67.247  0.00  0.00    +0.122 C 
ATOM     48  N   UNL     1      -5.644  16.806  66.546  0.00  0.00    -0.180 NA
BRANCH  48  49
ATOM     49  N   UNL     1      -5.278  18.139  66.740  0.00  0.00    -0.230 N 
ATOM     50  C   UNL     1      -5.126  18.588  68.121  0.00  0.00    +0.128 C 
ATOM     51  C   UNL     1      -4.868  20.050  68.245  0.00  0.00    +0.096 C 
ATOM     52  N   UNL     1      -3.908  20.569  67.311  0.00  0.00    -0.268 NA
ATOM     53  C   UNL     1      -4.569  21.564  66.501  0.00  0.00    +0.090 C 
ATOM     54  C   UNL     1      -3.347  19.509  66.508  0.00  0.00    +0.096 C 
ATOM     55  C   UNL     1      -4.513  18.886  65.750  0.00  0.00    +0.128 C 
ENDBRANCH  48  49
ENDBRANCH  43  47
BRANCH   4  56
ATOM     56  O   UNL     1      -6.809   6.284  70.084  0.00  0.00    -0.452 OA
BRANCH  56  57
ATOM     57  C   UNL     1      -6.743   4.935  69.740  0.00  0.00    +0.317 C 
ATOM     58  O   UNL     1      -5.790   4.605  69.012  0.00  0.00    -0.250 OA
ATOM     59  C   UNL     1      -7.804   3.942  69.994  0.00  0.00    +0.121 C 
ENDBRANCH  56  57
ENDBRANCH   4  56
TORSDOF 5
ENDMDL
MODEL 7
REMARK VINA RESULT:      -7.0      2.556      7.335
REMARK  Name = 
REMARK  5 active torsions:
REMARK  status: ('A' for Active; 'I' for Inactive)
REMARK    1  A    between atoms: O_2  and  C_3
REMARK    2  A    between atoms: C_15  and  C_16
REMARK    3  A    between atoms: N_17  and  N_18
REMARK    4  A    between atoms: C_51  and  O_52
REMARK    5  A    between atoms: O_52  and  C_53
REMARK                            x       y       z     vdW  Elec       q    Type
REMARK                         _______ _______ _______ _____ _____    ______ ____
ROOT
ATOM      1  C   UNL     1      -6.549  18.251  68.314  0.00  0.00    +0.144 C 
ATOM      2  C   UNL     1      -8.149  17.669  68.217  0.00  0.00    +0.072 C 
ATOM      3  C   UNL     1      -8.642  18.008  69.707  0.00  0.00    +0.007 C 
ATOM      4  C   UNL     1      -8.773  19.055  67.499  0.00  0.00    +0.174 C 
ATOM      5  C   UNL     1     -10.067  18.292  66.709  0.00  0.00    +0.071 C 
ATOM      6  C   UNL     1     -10.576  17.462  67.984  0.00  0.00    +0.006 C 
ATOM      7  C   UNL     1      -9.190  17.098  65.874  0.00  0.00    +0.158 C 
ATOM      8  O   UNL     1     -10.405  16.850  65.022  0.00  0.00    -0.223 OA
ATOM      9  C   UNL     1      -9.452  15.800  66.906  0.00  0.00    +0.061 C 
ATOM     10  C   UNL     1      -7.973  15.199  66.593  0.00  0.00    +0.005 C 
ATOM     11  C   UNL     1     -10.039  14.648  65.822  0.00  0.00    +0.158 C 
ATOM     12  O   UNL     1      -9.710  13.663  66.911  0.00  0.00    -0.223 OA
ATOM     13  C   UNL     1     -11.684  14.826  66.240  0.00  0.00    +0.053 C 
ATOM     14  C   UNL     1     -12.164  14.426  64.735  0.00  0.00    +0.007 C 
ATOM     15  C   UNL     1     -11.967  13.360  66.786  0.00  0.00    -0.024 C 
ATOM     16  C   UNL     1     -11.615  12.308  66.164  0.00  0.00    -0.005 C 
ATOM     17  C   UNL     1     -11.129  11.057  66.473  0.00  0.00    -0.000 C 
ATOM     18  C   UNL     1      -9.975  10.411  66.560  0.00  0.00    +0.033 C 
ATOM     19  C   UNL     1      -9.163  10.159  65.302  0.00  0.00    +0.036 C 
ATOM     20  C   UNL     1      -9.509   9.764  67.814  0.00  0.00    +0.265 C 
ATOM     21  O   UNL     1      -9.933   8.566  67.984  0.00  0.00    -0.268 OA
ATOM     22  N   UNL     1      -8.636  10.308  68.754  0.00  0.00    -0.172 NA
ATOM     23  C   UNL     1      -7.207  10.117  68.924  0.00  0.00    +0.117 A 
ATOM     24  C   UNL     1      -6.624  10.564  70.121  0.00  0.00    +0.214 A 
ATOM     25  C   UNL     1      -5.497  11.401  70.093  0.00  0.00    +0.082 A 
ATOM     26  C   UNL     1      -5.313  12.176  68.924  0.00  0.00    +0.051 A 
ATOM     27  C   UNL     1      -5.737  11.561  67.750  0.00  0.00    +0.199 A 
ATOM     28  O   UNL     1      -6.018  12.122  66.493  0.00  0.00    -0.286 OA
ATOM     29  C   UNL     1      -4.272  13.090  69.061  0.00  0.00    +0.079 A 
ATOM     30  C   UNL     1      -4.249  14.504  68.708  0.00  0.00    +0.251 C 
ATOM     31  C   UNL     1      -3.530  15.301  69.757  0.00  0.00    +0.326 C 
ATOM     32  O   UNL     1      -2.909  14.288  70.463  0.00  0.00    -0.443 OA
ATOM     33  C   UNL     1      -2.432  16.164  69.207  0.00  0.00    +0.100 C 
ATOM     34  O   UNL     1      -4.412  16.098  70.485  0.00  0.00    -0.440 OA
ATOM     35  C   UNL     1      -5.032  17.212  69.979  0.00  0.00    +0.174 C 
ATOM     36  O   UNL     1      -4.316  15.095  67.580  0.00  0.00    -0.284 OA
ATOM     37  C   UNL     1      -3.437  13.061  70.180  0.00  0.00    +0.145 A 
ATOM     38  C   UNL     1      -3.289  11.902  70.938  0.00  0.00    +0.051 A 
ATOM     39  C   UNL     1      -1.955  11.440  71.348  0.00  0.00    +0.038 C 
ATOM     40  C   UNL     1      -4.429  11.109  70.950  0.00  0.00    +0.198 A 
ATOM     41  O   UNL     1      -4.257   9.846  71.530  0.00  0.00    -0.287 OA
ATOM     42  O   UNL     1      -6.815   9.979  71.384  0.00  0.00    -0.285 OA
ATOM     43  C   UNL     1      -6.354  10.294  67.815  0.00  0.00    +0.078 A 
ATOM     44  C   UNL     1      -6.176  17.093  69.375  0.00  0.00    +0.043 C 
ENDROOT
BRANCH   1  46
ATOM     45  C   UNL     1      -6.387  19.587  69.477  0.00  0.00    +0.174 C 
ATOM     46  O   UNL     1      -6.773  19.268  69.412  0.00  0.00    -0.349 OA
ENDBRANCH   1  46
BRANCH  43  47
ATOM     47  C   UNL     1      -5.785   9.191  67.001  0.00  0.00    +0.122 C 
ATOM     48  N   UNL     1      -6.136   8.896  65.817  0.00  0.00    -0.180 NA
BRANCH  48  49
ATOM     49  N   UNL     1      -5.376   9.036  64.656  0.00  0.00    -0.230 N 
ATOM     50  C   UNL     1      -6.103   9.302  63.418  0.00  0.00    +0.128 C 
ATOM     51  C   UNL     1      -5.234   9.303  62.207  0.00  0.00    +0.096 C 
ATOM     52  N   UNL     1      -3.991  10.006  62.364  0.00  0.00    -0.268 NA
ATOM     53  C   UNL     1      -2.919   9.063  62.155  0.00  0.00    +0.090 C 
ATOM     54  C   UNL     1      -3.914  10.629  63.663  0.00  0.00    +0.096 C 
ATOM     55  C   UNL     1      -3.994   9.499  64.683  0.00  0.00    +0.128 C 
ENDBRANCH  48  49
ENDBRANCH  43  47
BRANCH   4  56
ATOM     56  O   UNL     1      -7.854  19.003  66.289  0.00  0.00    -0.452 OA
BRANCH  56  57
ATOM     57  C   UNL     1      -7.205  20.194  65.970  0.00  0.00    +0.317 C 
ATOM     58  O   UNL     1      -7.444  21.161  66.717  0.00  0.00    -0.250 OA
ATOM     59  C   UNL     1      -6.445  20.441  64.731  0.00  0.00    +0.121 C 
ENDBRANCH  56  57
ENDBRANCH   4  56
TORSDOF 5
ENDMDL
MODEL 8
REMARK VINA RESULT:      -6.8      4.466     10.169
REMARK  Name = 
REMARK  5 active torsions:
REMARK  status: ('A' for Active; 'I' for Inactive)
REMARK    1  A    between atoms: O_2  and  C_3
REMARK    2  A    between atoms: C_15  and  C_16
REMARK    3  A    between atoms: N_17  and  N_18
REMARK    4  A    between atoms: C_51  and  O_52
REMARK    5  A    between atoms: O_52  and  C_53
REMARK                            x       y       z     vdW  Elec       q    Type
REMARK                         _______ _______ _______ _____ _____    ______ ____
ROOT
ATOM      1  C   UNL     1      -6.356   3.380  64.983  0.00  0.00    +0.144 C 
ATOM      2  C   UNL     1      -7.694   3.294  66.037  0.00  0.00    +0.072 C 
ATOM      3  C   UNL     1      -8.791   2.707  65.023  0.00  0.00    +0.007 C 
ATOM      4  C   UNL     1      -7.262   1.815  66.711  0.00  0.00    +0.174 C 
ATOM      5  C   UNL     1      -8.040   2.052  68.202  0.00  0.00    +0.071 C 
ATOM      6  C   UNL     1      -9.435   2.545  67.585  0.00  0.00    +0.006 C 
ATOM      7  C   UNL     1      -7.330   3.537  68.627  0.00  0.00    +0.158 C 
ATOM      8  O   UNL     1      -7.833   3.336  70.031  0.00  0.00    -0.223 OA
ATOM      9  C   UNL     1      -8.569   4.571  68.162  0.00  0.00    +0.061 C 
ATOM     10  C   UNL     1      -7.502   5.720  67.725  0.00  0.00    +0.005 C 
ATOM     11  C   UNL     1      -8.789   5.459  69.580  0.00  0.00    +0.158 C 
ATOM     12  O   UNL     1      -9.512   6.433  68.689  0.00  0.00    -0.223 OA
ATOM     13  C   UNL     1     -10.187   4.628  70.098  0.00  0.00    +0.053 C 
ATOM     14  C   UNL     1      -9.825   4.889  71.665  0.00  0.00    +0.007 C 
ATOM     15  C   UNL     1     -11.222   5.834  70.073  0.00  0.00    -0.024 C 
ATOM     16  C   UNL     1     -10.975   6.973  70.585  0.00  0.00    -0.005 C 
ATOM     17  C   UNL     1     -11.228   8.295  70.296  0.00  0.00    -0.000 C 
ATOM     18  C   UNL     1     -10.648   9.336  69.715  0.00  0.00    +0.033 C 
ATOM     19  C   UNL     1      -9.415   9.954  70.351  0.00  0.00    +0.036 C 
ATOM     20  C   UNL     1     -11.244  10.044  68.553  0.00  0.00    +0.265 C 
ATOM     21  O   UNL     1     -12.075  10.969  68.864  0.00  0.00    -0.268 OA
ATOM     22  N   UNL     1     -10.942   9.834  67.210  0.00  0.00    -0.172 NA
ATOM     23  C   UNL     1     -10.044  10.560  66.328  0.00  0.00    +0.117 A 
ATOM     24  C   UNL     1     -10.138  10.312  64.949  0.00  0.00    +0.214 A 
ATOM     25  C   UNL     1      -8.992   9.987  64.207  0.00  0.00    +0.082 A 
ATOM     26  C   UNL     1      -7.916   9.411  64.923  0.00  0.00    +0.051 A 
ATOM     27  C   UNL     1      -7.776   9.873  66.228  0.00  0.00    +0.199 A 
ATOM     28  O   UNL     1      -7.072   9.317  67.307  0.00  0.00    -0.286 OA
ATOM     29  C   UNL     1      -6.901   8.971  64.078  0.00  0.00    +0.079 A 
ATOM     30  C   UNL     1      -6.187   7.700  64.096  0.00  0.00    +0.251 C 
ATOM     31  C   UNL     1      -5.973   7.192  62.700  0.00  0.00    +0.326 C 
ATOM     32  O   UNL     1      -6.269   8.328  61.970  0.00  0.00    -0.443 OA
ATOM     33  C   UNL     1      -4.541   6.860  62.396  0.00  0.00    +0.100 C 
ATOM     34  O   UNL     1      -6.764   6.076  62.437  0.00  0.00    -0.440 OA
ATOM     35  C   UNL     1      -6.544   4.837  62.984  0.00  0.00    +0.174 C 
ATOM     36  O   UNL     1      -5.386   7.193  64.949  0.00  0.00    -0.284 OA
ATOM     37  C   UNL     1      -6.930   9.263  62.712  0.00  0.00    +0.145 A 
ATOM     38  C   UNL     1      -7.658  10.345  62.223  0.00  0.00    +0.051 A 
ATOM     39  C   UNL     1      -7.064  11.270  61.247  0.00  0.00    +0.038 C 
ATOM     40  C   UNL     1      -8.790  10.626  62.978  0.00  0.00    +0.198 A 
ATOM     41  O   UNL     1      -9.436  11.822  62.640  0.00  0.00    -0.287 OA
ATOM     42  O   UNL     1     -11.206  10.706  64.125  0.00  0.00    -0.285 OA
ATOM     43  C   UNL     1      -8.716  10.792  66.741  0.00  0.00    +0.078 A 
ATOM     44  C   UNL     1      -7.092   4.532  64.122  0.00  0.00    +0.043 C 
ENDROOT
BRANCH   1  46
ATOM     45  C   UNL     1      -6.419   2.114  63.735  0.00  0.00    +0.174 C 
ATOM     46  O   UNL     1      -6.793   2.298  64.019  0.00  0.00    -0.349 OA
ENDBRANCH   1  46
BRANCH  43  47
ATOM     47  C   UNL     1      -8.216  12.072  67.301  0.00  0.00    +0.122 C 
ATOM     48  N   UNL     1      -8.521  13.229  66.875  0.00  0.00    -0.180 NA
BRANCH  48  49
ATOM     49  N   UNL     1      -9.283  14.193  67.536  0.00  0.00    -0.230 N 
ATOM     50  C   UNL     1      -9.415  15.492  66.882  0.00  0.00    +0.128 C 
ATOM     51  C   UNL     1     -10.127  16.505  67.712  0.00  0.00    +0.096 C 
ATOM     52  N   UNL     1     -11.306  16.016  68.371  0.00  0.00    -0.268 NA
ATOM     53  C   UNL     1     -11.111  16.155  69.793  0.00  0.00    +0.090 C 
ATOM     54  C   UNL     1     -11.573  14.647  67.997  0.00  0.00    +0.096 C 
ATOM     55  C   UNL     1     -10.363  13.839  68.449  0.00  0.00    +0.128 C 
ENDBRANCH  48  49
ENDBRANCH  43  47
BRANCH   4  56
ATOM     56  O   UNL     1      -5.907   2.289  67.213  0.00  0.00    -0.452 OA
BRANCH  56  57
ATOM     57  C   UNL     1      -4.941   1.297  67.373  0.00  0.00    +0.317 C 
ATOM     58  O   UNL     1      -4.291   1.337  68.434  0.00  0.00    -0.250 OA
ATOM     59  C   UNL     1      -4.503   0.362  66.320  0.00  0.00    +0.121 C 
ENDBRANCH  56  57
ENDBRANCH   4  56
TORSDOF 5
ENDMDL
MODEL 9
REMARK VINA RESULT:      -6.8      4.815     10.627
REMARK  Name = 
REMARK  5 active torsions:
REMARK  status: ('A' for Active; 'I' for Inactive)
REMARK    1  A    between atoms: O_2  and  C_3
REMARK    2  A    between atoms: C_15  and  C_16
REMARK    3  A    between atoms: N_17  and  N_18
REMARK    4  A    between atoms: C_51  and  O_52
REMARK    5  A    between atoms: O_52  and  C_53
REMARK                            x       y       z     vdW  Elec       q    Type
REMARK                         _______ _______ _______ _____ _____    ______ ____
ROOT
ATOM      1  C   UNL     1      -9.799   3.516  71.384  0.00  0.00    +0.144 C 
ATOM      2  C   UNL     1      -8.230   3.371  70.732  0.00  0.00    +0.072 C 
ATOM      3  C   UNL     1      -7.370   3.786  72.022  0.00  0.00    +0.007 C 
ATOM      4  C   UNL     1      -8.120   1.709  70.966  0.00  0.00    +0.174 C 
ATOM      5  C   UNL     1      -7.019   1.413  69.709  0.00  0.00    +0.071 C 
ATOM      6  C   UNL     1      -6.000   2.588  70.099  0.00  0.00    +0.006 C 
ATOM      7  C   UNL     1      -7.881   2.141  68.437  0.00  0.00    +0.158 C 
ATOM      8  O   UNL     1      -6.966   1.447  67.465  0.00  0.00    -0.223 OA
ATOM      9  C   UNL     1      -7.082   3.617  68.379  0.00  0.00    +0.061 C 
ATOM     10  C   UNL     1      -8.452   4.390  67.960  0.00  0.00    +0.005 C 
ATOM     11  C   UNL     1      -6.662   3.686  66.746  0.00  0.00    +0.158 C 
ATOM     12  O   UNL     1      -6.454   5.153  67.009  0.00  0.00    -0.223 OA
ATOM     13  C   UNL     1      -5.029   3.238  66.960  0.00  0.00    +0.053 C 
ATOM     14  C   UNL     1      -4.975   2.537  65.490  0.00  0.00    +0.007 C 
ATOM     15  C   UNL     1      -4.331   4.562  66.422  0.00  0.00    -0.024 C 
ATOM     16  C   UNL     1      -4.663   5.127  65.331  0.00  0.00    -0.005 C 
ATOM     17  C   UNL     1      -4.795   6.410  64.849  0.00  0.00    -0.000 C 
ATOM     18  C   UNL     1      -5.729   7.333  64.665  0.00  0.00    +0.033 C 
ATOM     19  C   UNL     1      -6.831   7.088  63.650  0.00  0.00    +0.036 C 
ATOM     20  C   UNL     1      -5.659   8.682  65.284  0.00  0.00    +0.265 C 
ATOM     21  O   UNL     1      -4.994   9.544  64.606  0.00  0.00    -0.268 OA
ATOM     22  N   UNL     1      -6.280   9.087  66.463  0.00  0.00    -0.172 NA
ATOM     23  C   UNL     1      -7.527   9.803  66.664  0.00  0.00    +0.117 A 
ATOM     24  C   UNL     1      -7.781  10.331  67.941  0.00  0.00    +0.214 A 
ATOM     25  C   UNL     1      -8.993  10.055  68.594  0.00  0.00    +0.082 A 
ATOM     26  C   UNL     1      -9.667   8.873  68.208  0.00  0.00    +0.051 A 
ATOM     27  C   UNL     1      -9.524   8.539  66.865  0.00  0.00    +0.199 A 
ATOM     28  O   UNL     1      -9.752   7.316  66.215  0.00  0.00    -0.286 OA
ATOM     29  C   UNL     1     -10.762   8.604  69.025  0.00  0.00    +0.079 A 
ATOM     30  C   UNL     1     -11.147   7.342  69.644  0.00  0.00    +0.251 C 
ATOM     31  C   UNL     1     -11.637   7.566  71.045  0.00  0.00    +0.326 C 
ATOM     32  O   UNL     1     -11.816   8.936  71.034  0.00  0.00    -0.443 OA
ATOM     33  C   UNL     1     -12.989   6.969  71.310  0.00  0.00    +0.100 C 
ATOM     34  O   UNL     1     -10.732   7.078  71.985  0.00  0.00    -0.440 OA
ATOM     35  C   UNL     1     -10.512   5.743  72.213  0.00  0.00    +0.174 C 
ATOM     36  O   UNL     1     -11.541   6.239  69.139  0.00  0.00    -0.284 OA
ATOM     37  C   UNL     1     -11.189   9.532  69.977  0.00  0.00    +0.145 A 
ATOM     38  C   UNL     1     -10.884  10.885  69.852  0.00  0.00    +0.051 A 
ATOM     39  C   UNL     1     -11.918  11.909  70.055  0.00  0.00    +0.038 C 
ATOM     40  C   UNL     1      -9.672  11.113  69.212  0.00  0.00    +0.198 A 
ATOM     41  O   UNL     1      -9.424  12.453  68.888  0.00  0.00    -0.287 OA
ATOM     42  O   UNL     1      -7.106  11.419  68.518  0.00  0.00    -0.285 OA
ATOM     43  C   UNL     1      -8.699   9.331  66.038  0.00  0.00    +0.078 A 
ATOM     44  C   UNL     1      -9.609   5.114  71.522  0.00  0.00    +0.043 C 
ENDROOT
BRANCH   1  46
ATOM     45  C   UNL     1      -9.827   3.175  73.129  0.00  0.00    +0.174 C 
ATOM     46  O   UNL     1      -9.434   3.287  72.835  0.00  0.00    -0.349 OA
ENDBRANCH   1  46
BRANCH  43  47
ATOM     47  C   UNL     1      -9.283   9.899  64.798  0.00  0.00    +0.122 C 
ATOM     48  N   UNL     1     -10.485  10.284  64.661  0.00  0.00    -0.180 NA
BRANCH  48  49
ATOM     49  N   UNL     1     -10.933  11.594  64.486  0.00  0.00    -0.230 N 
ATOM     50  C   UNL     1     -11.947  11.814  63.459  0.00  0.00    +0.128 C 
ATOM     51  C   UNL     1     -12.272  13.252  63.243  0.00  0.00    +0.096 C 
ATOM     52  N   UNL     1     -12.428  14.018  64.448  0.00  0.00    -0.268 NA
ATOM     53  C   UNL     1     -11.434  15.063  64.442  0.00  0.00    +0.090 C 
ATOM     54  C   UNL     1     -12.312  13.172  65.612  0.00  0.00    +0.096 C 
ATOM     55  C   UNL     1     -10.912  12.573  65.566  0.00  0.00    +0.128 C 
ENDBRANCH  48  49
ENDBRANCH  43  47
BRANCH   4  56
ATOM     56  O   UNL     1      -9.344   1.376  70.127  0.00  0.00    -0.452 OA
BRANCH  56  57
ATOM     57  C   UNL     1      -9.988   0.181  70.446  0.00  0.00    +0.317 C 
ATOM     58  O   UNL     1     -10.082  -0.649  69.524  0.00  0.00    -0.250 OA
ATOM     59  C   UNL     1     -10.727  -0.076  71.696  0.00  0.00    +0.121 C 
ENDBRANCH  56  57
ENDBRANCH   4  56
TORSDOF 5
ENDMDL
