MODEL 1
REMARK VINA RESULT:      -6.8      0.000      0.000
REMARK  Name = 
REMARK  7 active torsions:
REMARK  status: ('A' for Active; 'I' for Inactive)
REMARK    1  A    between atoms: C_7  and  C_8
REMARK    2  A    between atoms: C_8  and  C_9
REMARK    3  A    between atoms: C_8  and  C_18
REMARK    4  A    between atoms: C_9  and  C_10
REMARK    5  A    between atoms: C_10  and  N_11
REMARK    6  A    between atoms: N_11  and  C_12
REMARK    7  A    between atoms: N_11  and  C_15
REMARK                            x       y       z     vdW  Elec       q    Type
REMARK                         _______ _______ _______ _____ _____    ______ ____
ROOT
ATOM      1  C   UNL     1     -12.224  15.310  69.125  0.00  0.00    +0.049 C 
ENDROOT
BRANCH   1   5
ATOM      2  C   UNL     1     -11.748  10.698  70.629  0.00  0.00    +0.031 C 
ATOM      3  C   UNL     1     -11.835  11.542  69.585  0.00  0.00    -0.022 A 
ATOM      4  C   UNL     1     -12.000  12.882  69.802  0.00  0.00    -0.005 A 
ATOM      5  C   UNL     1     -11.596  13.822  68.868  0.00  0.00    +0.020 A 
ATOM      6  C   UNL     1     -11.753  13.437  67.540  0.00  0.00    +0.192 A 
ATOM      7  O   UNL     1     -12.378  14.240  66.588  0.00  0.00    -0.287 OA
ATOM      8  C   UNL     1     -11.574  12.087  67.261  0.00  0.00    +0.041 A 
ATOM      9  C   UNL     1     -11.486  11.163  68.294  0.00  0.00    -0.001 A 
ENDBRANCH   1   5
BRANCH   1  10
ATOM     10  C   UNL     1     -12.401  15.046  70.734  0.00  0.00    -0.018 A 
ATOM     11  C   UNL     1     -13.760  15.207  71.008  0.00  0.00    -0.004 A 
ATOM     12  C   UNL     1     -14.185  15.279  72.329  0.00  0.00    -0.000 A 
ATOM     13  C   UNL     1     -13.281  15.793  73.249  0.00  0.00    -0.000 A 
ATOM     14  C   UNL     1     -12.028  16.203  72.806  0.00  0.00    -0.000 A 
ATOM     15  C   UNL     1     -11.634  15.921  71.504  0.00  0.00    -0.004 A 
ENDBRANCH   1  10
BRANCH   1  16
ATOM     16  C   UNL     1     -10.697  15.949  69.337  0.00  0.00    +0.026 C 
BRANCH  16  17
ATOM     17  C   UNL     1     -10.543  16.923  68.201  0.00  0.00    +0.073 C 
BRANCH  17  18
ATOM     18  N   UNL     1      -9.160  17.115  67.864  0.00  0.00    -0.275 NA
BRANCH  18  19
ATOM     19  C   UNL     1      -8.981  16.604  66.507  0.00  0.00    +0.058 C 
ATOM     20  C   UNL     1      -8.663  15.115  66.585  0.00  0.00    +0.017 C 
ATOM     21  C   UNL     1     -10.302  16.705  65.765  0.00  0.00    +0.017 C 
ENDBRANCH  18  19
BRANCH  18  22
ATOM     22  C   UNL     1      -8.718  18.480  67.944  0.00  0.00    +0.058 C 
ATOM     23  C   UNL     1      -9.746  19.321  68.688  0.00  0.00    +0.017 C 
ATOM     24  C   UNL     1      -7.420  18.586  68.733  0.00  0.00    +0.017 C 
ENDBRANCH  18  22
ENDBRANCH  17  18
ENDBRANCH  16  17
ENDBRANCH   1  16
TORSDOF 7
ENDMDL
MODEL 2
REMARK VINA RESULT:      -6.8      0.729      1.725
REMARK  Name = 
REMARK  7 active torsions:
REMARK  status: ('A' for Active; 'I' for Inactive)
REMARK    1  A    between atoms: C_7  and  C_8
REMARK    2  A    between atoms: C_8  and  C_9
REMARK    3  A    between atoms: C_8  and  C_18
REMARK    4  A    between atoms: C_9  and  C_10
REMARK    5  A    between atoms: C_10  and  N_11
REMARK    6  A    between atoms: N_11  and  C_12
REMARK    7  A    between atoms: N_11  and  C_15
REMARK                            x       y       z     vdW  Elec       q    Type
REMARK                         _______ _______ _______ _____ _____    ______ ____
ROOT
ATOM      1  C   UNL     1     -12.039  15.337  69.198  0.00  0.00    +0.049 C 
ENDROOT
BRANCH   1   5
ATOM      2  C   UNL     1     -11.781  10.678  70.606  0.00  0.00    +0.031 C 
ATOM      3  C   UNL     1     -11.841  11.545  69.579  0.00  0.00    -0.022 A 
ATOM      4  C   UNL     1     -11.931  12.888  69.824  0.00  0.00    -0.005 A 
ATOM      5  C   UNL     1     -11.495  13.824  68.901  0.00  0.00    +0.020 A 
ATOM      6  C   UNL     1     -11.693  13.474  67.570  0.00  0.00    +0.192 A 
ATOM      7  O   UNL     1     -12.291  14.328  66.644  0.00  0.00    -0.287 OA
ATOM      8  C   UNL     1     -11.589  12.123  67.262  0.00  0.00    +0.041 A 
ATOM      9  C   UNL     1     -11.534  11.175  68.276  0.00  0.00    -0.001 A 
ENDBRANCH   1   5
BRANCH   1  10
ATOM     10  C   UNL     1     -12.340  15.007  70.776  0.00  0.00    -0.018 A 
ATOM     11  C   UNL     1     -13.704  15.239  70.969  0.00  0.00    -0.004 A 
ATOM     12  C   UNL     1     -14.212  15.273  72.262  0.00  0.00    -0.000 A 
ATOM     13  C   UNL     1     -13.344  15.684  73.264  0.00  0.00    -0.000 A 
ATOM     14  C   UNL     1     -12.042  16.037  72.926  0.00  0.00    -0.000 A 
ATOM     15  C   UNL     1     -11.578  15.794  71.639  0.00  0.00    -0.004 A 
ENDBRANCH   1  10
BRANCH   1  16
ATOM     16  C   UNL     1     -10.491  15.858  69.541  0.00  0.00    +0.026 C 
BRANCH  16  17
ATOM     17  C   UNL     1     -10.422  17.234  68.937  0.00  0.00    +0.073 C 
BRANCH  17  18
ATOM     18  N   UNL     1      -9.959  17.183  67.578  0.00  0.00    -0.275 NA
BRANCH  18  19
ATOM     19  C   UNL     1      -9.561  18.541  67.216  0.00  0.00    +0.058 C 
ATOM     20  C   UNL     1     -10.447  19.020  66.072  0.00  0.00    +0.017 C 
ATOM     21  C   UNL     1      -9.856  19.468  68.382  0.00  0.00    +0.017 C 
ENDBRANCH  18  19
BRANCH  18  22
ATOM     22  C   UNL     1      -8.871  16.270  67.360  0.00  0.00    +0.058 C 
ATOM     23  C   UNL     1      -9.064  15.528  66.046  0.00  0.00    +0.017 C 
ATOM     24  C   UNL     1      -7.549  17.018  67.245  0.00  0.00    +0.017 C 
ENDBRANCH  18  22
ENDBRANCH  17  18
ENDBRANCH  16  17
ENDBRANCH   1  16
TORSDOF 7
ENDMDL
MODEL 3
REMARK VINA RESULT:      -5.9      1.754      4.213
REMARK  Name = 
REMARK  7 active torsions:
REMARK  status: ('A' for Active; 'I' for Inactive)
REMARK    1  A    between atoms: C_7  and  C_8
REMARK    2  A    between atoms: C_8  and  C_9
REMARK    3  A    between atoms: C_8  and  C_18
REMARK    4  A    between atoms: C_9  and  C_10
REMARK    5  A    between atoms: C_10  and  N_11
REMARK    6  A    between atoms: N_11  and  C_12
REMARK    7  A    between atoms: N_11  and  C_15
REMARK                            x       y       z     vdW  Elec       q    Type
REMARK                         _______ _______ _______ _____ _____    ______ ____
ROOT
ATOM      1  C   UNL     1     -10.726  14.561  69.027  0.00  0.00    +0.049 C 
ENDROOT
BRANCH   1   5
ATOM      2  C   UNL     1     -13.399  11.695  71.925  0.00  0.00    +0.031 C 
ATOM      3  C   UNL     1     -13.031  12.949  71.605  0.00  0.00    -0.022 A 
ATOM      4  C   UNL     1     -12.129  13.160  70.599  0.00  0.00    -0.005 A 
ATOM      5  C   UNL     1     -12.095  14.354  69.896  0.00  0.00    +0.020 A 
ATOM      6  C   UNL     1     -12.386  15.488  70.647  0.00  0.00    +0.192 A 
ATOM      7  O   UNL     1     -11.583  16.627  70.639  0.00  0.00    -0.287 OA
ATOM      8  C   UNL     1     -13.315  15.333  71.670  0.00  0.00    +0.041 A 
ATOM      9  C   UNL     1     -13.728  14.063  72.055  0.00  0.00    -0.001 A 
ENDBRANCH   1   5
BRANCH   1  10
ATOM     10  C   UNL     1     -10.755  13.022  68.460  0.00  0.00    -0.018 A 
ATOM     11  C   UNL     1      -9.444  12.718  68.091  0.00  0.00    -0.004 A 
ATOM     12  C   UNL     1      -9.194  11.566  67.355  0.00  0.00    -0.000 A 
ATOM     13  C   UNL     1     -10.213  11.122  66.523  0.00  0.00    -0.000 A 
ATOM     14  C   UNL     1     -11.401  11.842  66.470  0.00  0.00    -0.000 A 
ATOM     15  C   UNL     1     -11.622  12.870  67.378  0.00  0.00    -0.004 A 
ENDBRANCH   1  10
BRANCH   1  16
ATOM     16  C   UNL     1     -11.604  15.121  67.722  0.00  0.00    +0.026 C 
BRANCH  16  17
ATOM     17  C   UNL     1     -10.617  15.942  66.937  0.00  0.00    +0.073 C 
BRANCH  17  18
ATOM     18  N   UNL     1      -9.994  16.937  67.764  0.00  0.00    -0.275 NA
BRANCH  18  19
ATOM     19  C   UNL     1      -8.578  16.960  67.404  0.00  0.00    +0.058 C 
ATOM     20  C   UNL     1      -7.758  16.553  68.624  0.00  0.00    +0.017 C 
ATOM     21  C   UNL     1      -8.319  15.890  66.358  0.00  0.00    +0.017 C 
ENDBRANCH  18  19
BRANCH  18  22
ATOM     22  C   UNL     1     -10.562  18.251  67.634  0.00  0.00    +0.058 C 
ATOM     23  C   UNL     1      -9.839  19.228  68.551  0.00  0.00    +0.017 C 
ATOM     24  C   UNL     1     -10.389  18.779  66.216  0.00  0.00    +0.017 C 
ENDBRANCH  18  22
ENDBRANCH  17  18
ENDBRANCH  16  17
ENDBRANCH   1  16
TORSDOF 7
ENDMDL
MODEL 4
REMARK VINA RESULT:      -5.9      2.093      6.017
REMARK  Name = 
REMARK  7 active torsions:
REMARK  status: ('A' for Active; 'I' for Inactive)
REMARK    1  A    between atoms: C_7  and  C_8
REMARK    2  A    between atoms: C_8  and  C_9
REMARK    3  A    between atoms: C_8  and  C_18
REMARK    4  A    between atoms: C_9  and  C_10
REMARK    5  A    between atoms: C_10  and  N_11
REMARK    6  A    between atoms: N_11  and  C_12
REMARK    7  A    between atoms: N_11  and  C_15
REMARK                            x       y       z     vdW  Elec       q    Type
REMARK                         _______ _______ _______ _____ _____    ______ ____
ROOT
ATOM      1  C   UNL     1     -11.860  12.447  67.655  0.00  0.00    +0.049 C 
ENDROOT
BRANCH   1   5
ATOM      2  C   UNL     1      -8.750  15.917  66.228  0.00  0.00    +0.031 C 
ATOM      3  C   UNL     1      -9.858  15.208  65.945  0.00  0.00    -0.022 A 
ATOM      4  C   UNL     1     -10.290  14.242  66.812  0.00  0.00    -0.005 A 
ATOM      5  C   UNL     1     -11.619  13.855  66.861  0.00  0.00    +0.020 A 
ATOM      6  C   UNL     1     -12.278  13.856  65.635  0.00  0.00    +0.192 A 
ATOM      7  O   UNL     1     -13.027  12.773  65.178  0.00  0.00    -0.287 OA
ATOM      8  C   UNL     1     -11.892  14.834  64.725  0.00  0.00    +0.041 A 
ATOM      9  C   UNL     1     -10.751  15.593  64.954  0.00  0.00    -0.001 A 
ENDBRANCH   1   5
BRANCH   1  10
ATOM     10  C   UNL     1     -10.377  11.873  67.256  0.00  0.00    -0.018 A 
ATOM     11  C   UNL     1     -10.597  10.744  66.465  0.00  0.00    -0.004 A 
ATOM     12  C   UNL     1      -9.531   9.903  66.168  0.00  0.00    -0.000 A 
ATOM     13  C   UNL     1      -8.504   9.841  67.102  0.00  0.00    -0.000 A 
ATOM     14  C   UNL     1      -8.600  10.605  68.259  0.00  0.00    -0.000 A 
ATOM     15  C   UNL     1      -9.613  11.550  68.377  0.00  0.00    -0.004 A 
ENDBRANCH   1  10
BRANCH   1  16
ATOM     16  C   UNL     1     -11.286  13.115  69.073  0.00  0.00    +0.026 C 
BRANCH  16  17
ATOM     17  C   UNL     1     -12.469  13.851  69.640  0.00  0.00    +0.073 C 
BRANCH  17  18
ATOM     18  N   UNL     1     -12.207  14.305  70.978  0.00  0.00    -0.275 NA
BRANCH  18  19
ATOM     19  C   UNL     1     -12.232  15.765  70.941  0.00  0.00    +0.058 C 
ATOM     20  C   UNL     1     -11.871  16.293  72.325  0.00  0.00    +0.017 C 
ATOM     21  C   UNL     1     -11.132  16.252  70.014  0.00  0.00    +0.017 C 
ENDBRANCH  18  19
BRANCH  18  22
ATOM     22  C   UNL     1     -13.137  13.816  71.959  0.00  0.00    +0.058 C 
ATOM     23  C   UNL     1     -14.535  14.340  71.663  0.00  0.00    +0.017 C 
ATOM     24  C   UNL     1     -13.226  12.296  71.913  0.00  0.00    +0.017 C 
ENDBRANCH  18  22
ENDBRANCH  17  18
ENDBRANCH  16  17
ENDBRANCH   1  16
TORSDOF 7
ENDMDL
MODEL 5
REMARK VINA RESULT:      -5.8      3.281      5.983
REMARK  Name = 
REMARK  7 active torsions:
REMARK  status: ('A' for Active; 'I' for Inactive)
REMARK    1  A    between atoms: C_7  and  C_8
REMARK    2  A    between atoms: C_8  and  C_9
REMARK    3  A    between atoms: C_8  and  C_18
REMARK    4  A    between atoms: C_9  and  C_10
REMARK    5  A    between atoms: C_10  and  N_11
REMARK    6  A    between atoms: N_11  and  C_12
REMARK    7  A    between atoms: N_11  and  C_15
REMARK                            x       y       z     vdW  Elec       q    Type
REMARK                         _______ _______ _______ _____ _____    ______ ____
ROOT
ATOM      1  C   UNL     1     -10.466  11.917  68.722  0.00  0.00    +0.049 C 
ENDROOT
BRANCH   1   5
ATOM      2  C   UNL     1     -11.359   8.012  71.498  0.00  0.00    +0.031 C 
ATOM      3  C   UNL     1     -11.628   9.307  71.251  0.00  0.00    -0.022 A 
ATOM      4  C   UNL     1     -10.980   9.957  70.237  0.00  0.00    -0.005 A 
ATOM      5  C   UNL     1     -11.537  11.061  69.612  0.00  0.00    +0.020 A 
ATOM      6  C   UNL     1     -12.277  11.897  70.443  0.00  0.00    +0.192 A 
ATOM      7  O   UNL     1     -12.090  13.277  70.488  0.00  0.00    -0.287 OA
ATOM      8  C   UNL     1     -12.974  11.283  71.478  0.00  0.00    +0.041 A 
ATOM      9  C   UNL     1     -12.735   9.950  71.790  0.00  0.00    -0.001 A 
ENDBRANCH   1   5
BRANCH   1  10
ATOM     10  C   UNL     1      -9.774  10.565  68.104  0.00  0.00    -0.018 A 
ATOM     11  C   UNL     1      -8.629  10.989  67.427  0.00  0.00    -0.004 A 
ATOM     12  C   UNL     1      -7.959  10.096  66.599  0.00  0.00    -0.000 A 
ATOM     13  C   UNL     1      -8.723   9.100  66.006  0.00  0.00    -0.000 A 
ATOM     14  C   UNL     1     -10.088   9.054  66.264  0.00  0.00    -0.000 A 
ATOM     15  C   UNL     1     -10.629   9.874  67.247  0.00  0.00    -0.004 A 
ENDBRANCH   1  10
BRANCH   1  16
ATOM     16  C   UNL     1     -11.550  12.013  67.457  0.00  0.00    +0.026 C 
BRANCH  16  17
ATOM     17  C   UNL     1     -11.480  13.451  67.018  0.00  0.00    +0.073 C 
BRANCH  17  18
ATOM     18  N   UNL     1     -11.559  13.563  65.589  0.00  0.00    -0.275 NA
BRANCH  18  19
ATOM     19  C   UNL     1     -10.474  14.448  65.173  0.00  0.00    +0.058 C 
ATOM     20  C   UNL     1     -11.075  15.765  64.695  0.00  0.00    +0.017 C 
ATOM     21  C   UNL     1      -9.632  14.796  66.388  0.00  0.00    +0.017 C 
ENDBRANCH  18  19
BRANCH  18  22
ATOM     22  C   UNL     1     -11.471  12.308  64.894  0.00  0.00    +0.058 C 
ATOM     23  C   UNL     1     -12.567  12.214  63.841  0.00  0.00    +0.017 C 
ATOM     24  C   UNL     1     -10.147  12.189  64.151  0.00  0.00    +0.017 C 
ENDBRANCH  18  22
ENDBRANCH  17  18
ENDBRANCH  16  17
ENDBRANCH   1  16
TORSDOF 7
ENDMDL
MODEL 6
REMARK VINA RESULT:      -5.8      2.176      4.808
REMARK  Name = 
REMARK  7 active torsions:
REMARK  status: ('A' for Active; 'I' for Inactive)
REMARK    1  A    between atoms: C_7  and  C_8
REMARK    2  A    between atoms: C_8  and  C_9
REMARK    3  A    between atoms: C_8  and  C_18
REMARK    4  A    between atoms: C_9  and  C_10
REMARK    5  A    between atoms: C_10  and  N_11
REMARK    6  A    between atoms: N_11  and  C_12
REMARK    7  A    between atoms: N_11  and  C_15
REMARK                            x       y       z     vdW  Elec       q    Type
REMARK                         _______ _______ _______ _____ _____    ______ ____
ROOT
ATOM      1  C   UNL     1     -10.845  13.061  68.796  0.00  0.00    +0.049 C 
ENDROOT
BRANCH   1   5
ATOM      2  C   UNL     1     -13.179  10.027  71.813  0.00  0.00    +0.031 C 
ATOM      3  C   UNL     1     -12.839  11.298  71.530  0.00  0.00    -0.022 A 
ATOM      4  C   UNL     1     -12.063  11.569  70.437  0.00  0.00    -0.005 A 
ATOM      5  C   UNL     1     -12.102  12.804  69.810  0.00  0.00    +0.020 A 
ATOM      6  C   UNL     1     -12.288  13.890  70.660  0.00  0.00    +0.192 A 
ATOM      7  O   UNL     1     -11.480  15.025  70.625  0.00  0.00    -0.287 OA
ATOM      8  C   UNL     1     -13.089  13.674  71.775  0.00  0.00    +0.041 A 
ATOM      9  C   UNL     1     -13.466  12.384  72.128  0.00  0.00    -0.001 A 
ENDBRANCH   1   5
BRANCH   1  10
ATOM     10  C   UNL     1     -10.562  11.457  68.609  0.00  0.00    -0.018 A 
ATOM     11  C   UNL     1      -9.174  11.306  68.588  0.00  0.00    -0.004 A 
ATOM     12  C   UNL     1      -8.628  10.087  68.204  0.00  0.00    -0.000 A 
ATOM     13  C   UNL     1      -9.369   9.322  67.314  0.00  0.00    -0.000 A 
ATOM     14  C   UNL     1     -10.589   9.810  66.860  0.00  0.00    -0.000 A 
ATOM     15  C   UNL     1     -11.132  10.949  67.442  0.00  0.00    -0.004 A 
ENDBRANCH   1  10
BRANCH   1  16
ATOM     16  C   UNL     1     -11.874  13.094  67.482  0.00  0.00    +0.026 C 
BRANCH  16  17
ATOM     17  C   UNL     1     -11.546  14.389  66.789  0.00  0.00    +0.073 C 
BRANCH  17  18
ATOM     18  N   UNL     1     -10.309  14.293  66.066  0.00  0.00    -0.275 NA
BRANCH  18  19
ATOM     19  C   UNL     1     -10.653  14.207  64.649  0.00  0.00    +0.058 C 
ATOM     20  C   UNL     1     -10.533  12.753  64.206  0.00  0.00    +0.017 C 
ATOM     21  C   UNL     1     -12.117  14.571  64.476  0.00  0.00    +0.017 C 
ENDBRANCH  18  19
BRANCH  18  22
ATOM     22  C   UNL     1      -9.407  15.389  66.294  0.00  0.00    +0.058 C 
ATOM     23  C   UNL     1     -10.075  16.445  67.162  0.00  0.00    +0.017 C 
ATOM     24  C   UNL     1      -8.169  14.926  67.050  0.00  0.00    +0.017 C 
ENDBRANCH  18  22
ENDBRANCH  17  18
ENDBRANCH  16  17
ENDBRANCH   1  16
TORSDOF 7
ENDMDL
MODEL 7
REMARK VINA RESULT:      -5.8      2.058      6.547
REMARK  Name = 
REMARK  7 active torsions:
REMARK  status: ('A' for Active; 'I' for Inactive)
REMARK    1  A    between atoms: C_7  and  C_8
REMARK    2  A    between atoms: C_8  and  C_9
REMARK    3  A    between atoms: C_8  and  C_18
REMARK    4  A    between atoms: C_9  and  C_10
REMARK    5  A    between atoms: C_10  and  N_11
REMARK    6  A    between atoms: N_11  and  C_12
REMARK    7  A    between atoms: N_11  and  C_15
REMARK                            x       y       z     vdW  Elec       q    Type
REMARK                         _______ _______ _______ _____ _____    ______ ____
ROOT
ATOM      1  C   UNL     1     -11.236  16.269  68.418  0.00  0.00    +0.049 C 
ENDROOT
BRANCH   1   5
ATOM      2  C   UNL     1      -6.410  16.508  69.061  0.00  0.00    +0.031 C 
ATOM      3  C   UNL     1      -7.540  17.163  68.737  0.00  0.00    -0.022 A 
ATOM      4  C   UNL     1      -8.731  16.492  68.700  0.00  0.00    -0.005 A 
ATOM      5  C   UNL     1      -9.938  17.149  68.883  0.00  0.00    +0.020 A 
ATOM      6  C   UNL     1      -9.993  18.436  68.358  0.00  0.00    +0.192 A 
ATOM      7  O   UNL     1     -11.032  18.875  67.539  0.00  0.00    -0.287 OA
ATOM      8  C   UNL     1      -8.814  19.170  68.392  0.00  0.00    +0.041 A 
ATOM      9  C   UNL     1      -7.611  18.551  68.709  0.00  0.00    -0.001 A 
ENDBRANCH   1   5
BRANCH   1  10
ATOM     10  C   UNL     1     -10.358  15.382  67.355  0.00  0.00    -0.018 A 
ATOM     11  C   UNL     1     -10.816  15.732  66.084  0.00  0.00    -0.004 A 
ATOM     12  C   UNL     1     -10.426  14.973  64.987  0.00  0.00    -0.000 A 
ATOM     13  C   UNL     1     -10.147  13.633  65.221  0.00  0.00    -0.000 A 
ATOM     14  C   UNL     1     -10.276  13.134  66.512  0.00  0.00    -0.000 A 
ATOM     15  C   UNL     1     -10.492  14.010  67.569  0.00  0.00    -0.004 A 
ENDBRANCH   1  10
BRANCH   1  16
ATOM     16  C   UNL     1     -10.968  15.172  69.647  0.00  0.00    +0.026 C 
BRANCH  16  17
ATOM     17  C   UNL     1     -12.327  14.965  70.260  0.00  0.00    +0.073 C 
BRANCH  17  18
ATOM     18  N   UNL     1     -12.297  13.928  71.254  0.00  0.00    -0.275 NA
BRANCH  18  19
ATOM     19  C   UNL     1     -13.047  14.424  72.405  0.00  0.00    +0.058 C 
ATOM     20  C   UNL     1     -12.140  15.340  73.219  0.00  0.00    +0.017 C 
ATOM     21  C   UNL     1     -14.182  15.302  71.910  0.00  0.00    +0.017 C 
ENDBRANCH  18  19
BRANCH  18  22
ATOM     22  C   UNL     1     -12.837  12.672  70.811  0.00  0.00    +0.058 C 
ATOM     23  C   UNL     1     -11.771  11.872  70.076  0.00  0.00    +0.017 C 
ATOM     24  C   UNL     1     -13.277  11.821  71.996  0.00  0.00    +0.017 C 
ENDBRANCH  18  22
ENDBRANCH  17  18
ENDBRANCH  16  17
ENDBRANCH   1  16
TORSDOF 7
ENDMDL
MODEL 8
REMARK VINA RESULT:      -5.7      2.383      5.000
REMARK  Name = 
REMARK  7 active torsions:
REMARK  status: ('A' for Active; 'I' for Inactive)
REMARK    1  A    between atoms: C_7  and  C_8
REMARK    2  A    between atoms: C_8  and  C_9
REMARK    3  A    between atoms: C_8  and  C_18
REMARK    4  A    between atoms: C_9  and  C_10
REMARK    5  A    between atoms: C_10  and  N_11
REMARK    6  A    between atoms: N_11  and  C_12
REMARK    7  A    between atoms: N_11  and  C_15
REMARK                            x       y       z     vdW  Elec       q    Type
REMARK                         _______ _______ _______ _____ _____    ______ ____
ROOT
ATOM      1  C   UNL     1     -11.454  13.581  68.195  0.00  0.00    +0.049 C 
ENDROOT
BRANCH   1   5
ATOM      2  C   UNL     1     -13.331  14.085  72.666  0.00  0.00    +0.031 C 
ATOM      3  C   UNL     1     -13.026  13.249  71.657  0.00  0.00    -0.022 A 
ATOM      4  C   UNL     1     -12.471  13.740  70.507  0.00  0.00    -0.005 A 
ATOM      5  C   UNL     1     -11.691  12.945  69.683  0.00  0.00    +0.020 A 
ATOM      6  C   UNL     1     -12.089  11.615  69.600  0.00  0.00    +0.192 A 
ATOM      7  O   UNL     1     -12.262  10.951  68.386  0.00  0.00    -0.287 OA
ATOM      8  C   UNL     1     -12.640  11.059  70.749  0.00  0.00    +0.041 A 
ATOM      9  C   UNL     1     -12.986  11.870  71.823  0.00  0.00    -0.001 A 
ENDBRANCH   1   5
BRANCH   1  10
ATOM     10  C   UNL     1     -10.848  14.980  68.800  0.00  0.00    -0.018 A 
ATOM     11  C   UNL     1     -11.172  15.976  67.877  0.00  0.00    -0.004 A 
ATOM     12  C   UNL     1     -10.588  17.231  67.997  0.00  0.00    -0.000 A 
ATOM     13  C   UNL     1      -9.327  17.281  68.577  0.00  0.00    -0.000 A 
ATOM     14  C   UNL     1      -8.730  16.096  68.994  0.00  0.00    -0.000 A 
ATOM     15  C   UNL     1      -9.469  14.919  68.999  0.00  0.00    -0.004 A 
ENDBRANCH   1  10
BRANCH   1  16
ATOM     16  C   UNL     1      -9.937  12.891  68.109  0.00  0.00    +0.026 C 
BRANCH  16  17
ATOM     17  C   UNL     1      -9.605  12.911  66.642  0.00  0.00    +0.073 C 
BRANCH  17  18
ATOM     18  N   UNL     1     -10.339  11.903  65.929  0.00  0.00    -0.275 NA
BRANCH  18  19
ATOM     19  C   UNL     1     -10.914  12.551  64.752  0.00  0.00    +0.058 C 
ATOM     20  C   UNL     1     -12.430  12.589  64.909  0.00  0.00    +0.017 C 
ATOM     21  C   UNL     1     -10.466  14.002  64.723  0.00  0.00    +0.017 C 
ENDBRANCH  18  19
BRANCH  18  22
ATOM     22  C   UNL     1      -9.549  10.768  65.535  0.00  0.00    +0.058 C 
ATOM     23  C   UNL     1     -10.040   9.516  66.250  0.00  0.00    +0.017 C 
ATOM     24  C   UNL     1      -9.691  10.498  64.043  0.00  0.00    +0.017 C 
ENDBRANCH  18  22
ENDBRANCH  17  18
ENDBRANCH  16  17
ENDBRANCH   1  16
TORSDOF 7
ENDMDL
MODEL 9
REMARK VINA RESULT:      -5.7      1.879      5.042
REMARK  Name = 
REMARK  7 active torsions:
REMARK  status: ('A' for Active; 'I' for Inactive)
REMARK    1  A    between atoms: C_7  and  C_8
REMARK    2  A    between atoms: C_8  and  C_9
REMARK    3  A    between atoms: C_8  and  C_18
REMARK    4  A    between atoms: C_9  and  C_10
REMARK    5  A    between atoms: C_10  and  N_11
REMARK    6  A    between atoms: N_11  and  C_12
REMARK    7  A    between atoms: N_11  and  C_15
REMARK                            x       y       z     vdW  Elec       q    Type
REMARK                         _______ _______ _______ _____ _____    ______ ____
ROOT
ATOM      1  C   UNL     1     -10.659  14.629  69.158  0.00  0.00    +0.049 C 
ENDROOT
BRANCH   1   5
ATOM      2  C   UNL     1     -10.008  19.450  68.843  0.00  0.00    +0.031 C 
ATOM      3  C   UNL     1      -9.677  18.232  68.374  0.00  0.00    -0.022 A 
ATOM      4  C   UNL     1     -10.230  17.113  68.932  0.00  0.00    -0.005 A 
ATOM      5  C   UNL     1     -10.348  15.931  68.219  0.00  0.00    +0.020 A 
ATOM      6  C   UNL     1      -9.307  15.671  67.334  0.00  0.00    +0.192 A 
ATOM      7  O   UNL     1      -8.636  14.450  67.293  0.00  0.00    -0.287 OA
ATOM      8  C   UNL     1      -8.724  16.774  66.721  0.00  0.00    +0.041 A 
ATOM      9  C   UNL     1      -9.016  18.058  67.165  0.00  0.00    -0.001 A 
ENDBRANCH   1   5
BRANCH   1  10
ATOM     10  C   UNL     1     -11.583  15.498  70.198  0.00  0.00    -0.018 A 
ATOM     11  C   UNL     1     -11.087  15.231  71.476  0.00  0.00    -0.004 A 
ATOM     12  C   UNL     1     -11.815  15.638  72.587  0.00  0.00    -0.000 A 
ATOM     13  C   UNL     1     -13.193  15.715  72.438  0.00  0.00    -0.000 A 
ATOM     14  C   UNL     1     -13.758  15.382  71.212  0.00  0.00    -0.000 A 
ATOM     15  C   UNL     1     -12.935  15.166  70.113  0.00  0.00    -0.004 A 
ENDBRANCH   1  10
BRANCH   1  16
ATOM     16  C   UNL     1     -11.982  14.232  68.221  0.00  0.00    +0.026 C 
BRANCH  16  17
ATOM     17  C   UNL     1     -11.696  12.831  67.754  0.00  0.00    +0.073 C 
BRANCH  17  18
ATOM     18  N   UNL     1     -11.283  12.816  66.378  0.00  0.00    -0.275 NA
BRANCH  18  19
ATOM     19  C   UNL     1     -10.900  11.441  66.066  0.00  0.00    +0.058 C 
ATOM     20  C   UNL     1      -9.412  11.412  65.739  0.00  0.00    +0.017 C 
ATOM     21  C   UNL     1     -11.064  10.591  67.314  0.00  0.00    +0.017 C 
ENDBRANCH  18  19
BRANCH  18  22
ATOM     22  C   UNL     1     -12.287  13.274  65.457  0.00  0.00    +0.058 C 
ATOM     23  C   UNL     1     -11.822  14.549  64.767  0.00  0.00    +0.017 C 
ATOM     24  C   UNL     1     -12.523  12.248  64.356  0.00  0.00    +0.017 C 
ENDBRANCH  18  22
ENDBRANCH  17  18
ENDBRANCH  16  17
ENDBRANCH   1  16
TORSDOF 7
ENDMDL
