MODEL 1
REMARK VINA RESULT:      -7.9      0.000      0.000
REMARK  Name = 
REMARK  1 active torsions:
REMARK  status: ('A' for Active; 'I' for Inactive)
REMARK    1  A    between atoms: C_2  and  C_3
REMARK                            x       y       z     vdW  Elec       q    Type
REMARK                         _______ _______ _______ _____ _____    ______ ____
ROOT
ATOM      1  O   UNL     1     -12.322  15.995  68.872  0.00  0.00    -0.275 OA
ATOM      2  C   UNL     1     -11.664  15.710  69.203  0.00  0.00    +0.226 C 
ATOM      3  N   UNL     1     -10.510  15.523  68.370  0.00  0.00    -0.269 N 
ATOM      4  C   UNL     1     -10.720  15.223  66.951  0.00  0.00    +0.118 C 
ATOM      5  C   UNL     1     -11.923  14.083  66.960  0.00  0.00    +0.117 C 
ATOM      6  N   UNL     1     -11.182  13.086  67.931  0.00  0.00    -0.274 N 
ATOM      7  C   UNL     1     -11.630  11.700  67.771  0.00  0.00    +0.098 C 
ATOM      8  C   UNL     1     -10.611  11.214  66.746  0.00  0.00    +0.048 C 
ATOM      9  C   UNL     1     -10.660  12.249  65.664  0.00  0.00    -0.023 A 
ATOM     10  C   UNL     1     -10.335  11.735  64.406  0.00  0.00    -0.004 A 
ATOM     11  C   UNL     1     -11.123  12.005  63.289  0.00  0.00    -0.000 A 
ATOM     12  C   UNL     1     -12.176  12.908  63.384  0.00  0.00    -0.000 A 
ATOM     13  C   UNL     1     -12.175  13.684  64.539  0.00  0.00    -0.003 A 
ATOM     14  C   UNL     1      -9.910  13.300  68.388  0.00  0.00    +0.246 C 
ATOM     15  O   UNL     1      -9.126  12.354  68.620  0.00  0.00    -0.273 OA
ATOM     16  C   UNL     1     -11.349  13.383  65.621  0.00  0.00    -0.007 A 
ATOM     17  C   UNL     1      -9.490  14.633  68.931  0.00  0.00    +0.179 C 
ENDROOT
BRANCH   2  18
ATOM     18  C   UNL     1     -11.761  15.099  70.565  0.00  0.00    +0.077 C 
ATOM     19  C   UNL     1     -12.914  14.153  70.634  0.00  0.00    +0.009 C 
ATOM     20  C   UNL     1     -13.046  13.593  72.024  0.00  0.00    +0.000 C 
ATOM     21  C   UNL     1     -13.201  14.697  73.037  0.00  0.00    +0.000 C 
ATOM     22  C   UNL     1     -11.952  15.568  72.983  0.00  0.00    +0.000 C 
ATOM     23  C   UNL     1     -11.794  16.178  71.621  0.00  0.00    +0.009 C 
ENDBRANCH   2  18
TORSDOF 1
ENDMDL
MODEL 2
REMARK VINA RESULT:      -7.6      1.301      6.407
REMARK  Name = 
REMARK  1 active torsions:
REMARK  status: ('A' for Active; 'I' for Inactive)
REMARK    1  A    between atoms: C_2  and  C_3
REMARK                            x       y       z     vdW  Elec       q    Type
REMARK                         _______ _______ _______ _____ _____    ______ ____
ROOT
ATOM      1  O   UNL     1     -12.104  11.327  67.473  0.00  0.00    -0.275 OA
ATOM      2  C   UNL     1     -11.392  11.638  67.332  0.00  0.00    +0.226 C 
ATOM      3  N   UNL     1     -10.515  11.860  68.447  0.00  0.00    -0.269 N 
ATOM      4  C   UNL     1     -11.114  12.142  69.754  0.00  0.00    +0.118 C 
ATOM      5  C   UNL     1     -12.311  13.238  69.415  0.00  0.00    +0.117 C 
ATOM      6  N   UNL     1     -11.371  14.269  68.679  0.00  0.00    -0.274 N 
ATOM      7  C   UNL     1     -11.897  15.635  68.707  0.00  0.00    +0.098 C 
ATOM      8  C   UNL     1     -11.213  16.151  69.970  0.00  0.00    +0.048 C 
ATOM      9  C   UNL     1     -11.516  15.107  71.000  0.00  0.00    -0.023 A 
ATOM     10  C   UNL     1     -11.565  15.623  72.297  0.00  0.00    -0.004 A 
ATOM     11  C   UNL     1     -12.616  15.317  73.159  0.00  0.00    -0.000 A 
ATOM     12  C   UNL     1     -13.569  14.376  72.784  0.00  0.00    -0.000 A 
ATOM     13  C   UNL     1     -13.226  13.609  71.675  0.00  0.00    -0.003 A 
ATOM     14  C   UNL     1     -10.016  14.103  68.586  0.00  0.00    +0.246 C 
ATOM     15  O   UNL     1      -9.234  15.080  68.573  0.00  0.00    -0.273 OA
ATOM     16  C   UNL     1     -12.149  13.948  70.858  0.00  0.00    -0.007 A 
ATOM     17  C   UNL     1      -9.414  12.791  68.181  0.00  0.00    +0.179 C 
ENDROOT
BRANCH   2  18
ATOM     18  C   UNL     1     -11.137  12.255  65.992  0.00  0.00    +0.077 C 
ATOM     19  C   UNL     1     -12.334  13.021  65.533  0.00  0.00    +0.009 C 
ATOM     20  C   UNL     1     -12.096  13.583  64.159  0.00  0.00    +0.000 C 
ATOM     21  C   UNL     1     -11.756  12.488  63.180  0.00  0.00    +0.000 C 
ATOM     22  C   UNL     1     -10.476  11.811  63.654  0.00  0.00    +0.000 C 
ATOM     23  C   UNL     1     -10.673  11.204  65.012  0.00  0.00    +0.009 C 
ENDBRANCH   2  18
TORSDOF 1
ENDMDL
MODEL 3
REMARK VINA RESULT:      -6.7      4.011      6.206
REMARK  Name = 
REMARK  1 active torsions:
REMARK  status: ('A' for Active; 'I' for Inactive)
REMARK    1  A    between atoms: C_2  and  C_3
REMARK                            x       y       z     vdW  Elec       q    Type
REMARK                         _______ _______ _______ _____ _____    ______ ____
ROOT
ATOM      1  O   UNL     1      -8.051  18.405  68.835  0.00  0.00    -0.275 OA
ATOM      2  C   UNL     1      -8.438  18.781  68.259  0.00  0.00    +0.226 C 
ATOM      3  N   UNL     1      -9.859  18.607  68.168  0.00  0.00    -0.269 N 
ATOM      4  C   UNL     1     -10.434  17.342  68.634  0.00  0.00    +0.118 C 
ATOM      5  C   UNL     1      -9.420  16.190  68.005  0.00  0.00    +0.117 C 
ATOM      6  N   UNL     1      -9.548  16.674  66.509  0.00  0.00    -0.274 N 
ATOM      7  C   UNL     1      -9.267  15.608  65.544  0.00  0.00    +0.098 C 
ATOM      8  C   UNL     1     -10.680  15.074  65.328  0.00  0.00    +0.048 C 
ATOM      9  C   UNL     1     -11.198  14.844  66.715  0.00  0.00    -0.023 A 
ATOM     10  C   UNL     1     -12.144  13.818  66.777  0.00  0.00    -0.004 A 
ATOM     11  C   UNL     1     -12.063  12.816  67.742  0.00  0.00    -0.000 A 
ATOM     12  C   UNL     1     -11.108  12.900  68.750  0.00  0.00    -0.000 A 
ATOM     13  C   UNL     1     -10.490  14.141  68.865  0.00  0.00    -0.003 A 
ATOM     14  C   UNL     1     -10.384  17.686  66.124  0.00  0.00    +0.246 C 
ATOM     15  O   UNL     1     -10.937  17.691  65.002  0.00  0.00    -0.273 OA
ATOM     16  C   UNL     1     -10.623  15.117  67.880  0.00  0.00    -0.007 A 
ATOM     17  C   UNL     1     -10.439  18.982  66.875  0.00  0.00    +0.179 C 
ENDROOT
BRANCH   2  18
ATOM     18  C   UNL     1      -7.642  19.375  67.139  0.00  0.00    +0.077 C 
ATOM     19  C   UNL     1      -6.729  18.353  66.545  0.00  0.00    +0.009 C 
ATOM     20  C   UNL     1      -5.887  18.972  65.465  0.00  0.00    +0.000 C 
ATOM     21  C   UNL     1      -5.101  20.142  65.999  0.00  0.00    +0.000 C 
ATOM     22  C   UNL     1      -6.089  21.188  66.500  0.00  0.00    +0.000 C 
ATOM     23  C   UNL     1      -6.936  20.626  67.605  0.00  0.00    +0.009 C 
ENDBRANCH   2  18
TORSDOF 1
ENDMDL
MODEL 4
REMARK VINA RESULT:      -6.6      3.992      6.522
REMARK  Name = 
REMARK  1 active torsions:
REMARK  status: ('A' for Active; 'I' for Inactive)
REMARK    1  A    between atoms: C_2  and  C_3
REMARK                            x       y       z     vdW  Elec       q    Type
REMARK                         _______ _______ _______ _____ _____    ______ ____
ROOT
ATOM      1  O   UNL     1      -8.071  14.769  68.931  0.00  0.00    -0.275 OA
ATOM      2  C   UNL     1      -8.535  14.824  68.294  0.00  0.00    +0.226 C 
ATOM      3  N   UNL     1      -8.008  15.467  67.124  0.00  0.00    -0.269 N 
ATOM      4  C   UNL     1      -7.001  16.517  67.302  0.00  0.00    +0.118 C 
ATOM      5  C   UNL     1      -7.600  17.434  68.547  0.00  0.00    +0.117 C 
ATOM      6  N   UNL     1      -8.999  17.713  67.872  0.00  0.00    -0.274 N 
ATOM      7  C   UNL     1      -9.632  18.937  68.367  0.00  0.00    +0.098 C 
ATOM      8  C   UNL     1      -9.110  19.934  67.336  0.00  0.00    +0.048 C 
ATOM      9  C   UNL     1      -7.632  19.696  67.315  0.00  0.00    -0.023 A 
ATOM     10  C   UNL     1      -6.903  20.838  66.973  0.00  0.00    -0.004 A 
ATOM     11  C   UNL     1      -5.795  21.239  67.716  0.00  0.00    -0.000 A 
ATOM     12  C   UNL     1      -5.313  20.427  68.737  0.00  0.00    -0.000 A 
ATOM     13  C   UNL     1      -5.824  19.133  68.742  0.00  0.00    -0.003 A 
ATOM     14  C   UNL     1      -9.310  17.294  66.608  0.00  0.00    +0.246 C 
ATOM     15  O   UNL     1     -10.074  17.952  65.866  0.00  0.00    -0.273 OA
ATOM     16  C   UNL     1      -6.922  18.778  67.960  0.00  0.00    -0.007 A 
ATOM     17  C   UNL     1      -9.021  15.895  66.154  0.00  0.00    +0.179 C 
ENDROOT
BRANCH   2  18
ATOM     18  C   UNL     1      -9.998  14.552  68.454  0.00  0.00    +0.077 C 
ATOM     19  C   UNL     1     -10.514  15.182  69.706  0.00  0.00    +0.009 C 
ATOM     20  C   UNL     1     -11.968  14.850  69.894  0.00  0.00    +0.000 C 
ATOM     21  C   UNL     1     -12.181  13.358  69.922  0.00  0.00    +0.000 C 
ATOM     22  C   UNL     1     -11.724  12.790  68.584  0.00  0.00    +0.000 C 
ATOM     23  C   UNL     1     -10.266  13.069  68.363  0.00  0.00    +0.009 C 
ENDBRANCH   2  18
TORSDOF 1
ENDMDL
MODEL 5
REMARK VINA RESULT:      -6.5      2.666      5.710
REMARK  Name = 
REMARK  1 active torsions:
REMARK  status: ('A' for Active; 'I' for Inactive)
REMARK    1  A    between atoms: C_2  and  C_3
REMARK                            x       y       z     vdW  Elec       q    Type
REMARK                         _______ _______ _______ _____ _____    ______ ____
ROOT
ATOM      1  O   UNL     1     -12.052  14.126  66.849  0.00  0.00    -0.275 OA
ATOM      2  C   UNL     1     -11.621  13.874  67.460  0.00  0.00    +0.226 C 
ATOM      3  N   UNL     1     -11.433  14.762  68.571  0.00  0.00    -0.269 N 
ATOM      4  C   UNL     1     -11.436  16.205  68.314  0.00  0.00    +0.118 C 
ATOM      5  C   UNL     1     -10.494  16.368  66.959  0.00  0.00    +0.117 C 
ATOM      6  N   UNL     1      -9.239  15.621  67.554  0.00  0.00    -0.274 N 
ATOM      7  C   UNL     1      -7.985  16.019  66.909  0.00  0.00    +0.098 C 
ATOM      8  C   UNL     1      -7.561  17.149  67.843  0.00  0.00    +0.048 C 
ATOM      9  C   UNL     1      -8.776  18.019  67.939  0.00  0.00    -0.023 A 
ATOM     10  C   UNL     1      -8.466  19.360  68.180  0.00  0.00    -0.004 A 
ATOM     11  C   UNL     1      -9.047  20.382  67.435  0.00  0.00    -0.000 A 
ATOM     12  C   UNL     1     -10.056  20.090  66.523  0.00  0.00    -0.000 A 
ATOM     13  C   UNL     1     -10.595  18.812  66.641  0.00  0.00    -0.003 A 
ATOM     14  C   UNL     1      -9.184  15.173  68.845  0.00  0.00    +0.246 C 
ATOM     15  O   UNL     1      -8.110  15.144  69.486  0.00  0.00    -0.273 OA
ATOM     16  C   UNL     1      -9.983  17.831  67.420  0.00  0.00    -0.007 A 
ATOM     17  C   UNL     1     -10.318  14.407  69.456  0.00  0.00    +0.179 C 
ENDROOT
BRANCH   2  18
ATOM     18  C   UNL     1     -10.785  12.644  67.282  0.00  0.00    +0.077 C 
ATOM     19  C   UNL     1     -10.229  12.585  65.898  0.00  0.00    +0.009 C 
ATOM     20  C   UNL     1      -9.446  11.316  65.706  0.00  0.00    +0.000 C 
ATOM     21  C   UNL     1     -10.301  10.107  65.989  0.00  0.00    +0.000 C 
ATOM     22  C   UNL     1     -10.756  10.179  67.441  0.00  0.00    +0.000 C 
ATOM     23  C   UNL     1     -11.572  11.417  67.677  0.00  0.00    +0.009 C 
ENDBRANCH   2  18
TORSDOF 1
ENDMDL
MODEL 6
REMARK VINA RESULT:      -6.4      3.920      6.029
REMARK  Name = 
REMARK  1 active torsions:
REMARK  status: ('A' for Active; 'I' for Inactive)
REMARK    1  A    between atoms: C_2  and  C_3
REMARK                            x       y       z     vdW  Elec       q    Type
REMARK                         _______ _______ _______ _____ _____    ______ ____
ROOT
ATOM      1  O   UNL     1      -9.499  19.434  68.874  0.00  0.00    -0.275 OA
ATOM      2  C   UNL     1      -9.154  19.204  68.202  0.00  0.00    +0.226 C 
ATOM      3  N   UNL     1      -9.878  18.318  67.335  0.00  0.00    -0.269 N 
ATOM      4  C   UNL     1     -10.837  17.388  67.937  0.00  0.00    +0.118 C 
ATOM      5  C   UNL     1     -10.029  16.779  69.250  0.00  0.00    +0.117 C 
ATOM      6  N   UNL     1      -8.770  16.283  68.439  0.00  0.00    -0.274 N 
ATOM      7  C   UNL     1      -8.060  15.191  69.107  0.00  0.00    +0.098 C 
ATOM      8  C   UNL     1      -8.754  13.996  68.460  0.00  0.00    +0.048 C 
ATOM      9  C   UNL     1     -10.213  14.285  68.632  0.00  0.00    -0.023 A 
ATOM     10  C   UNL     1     -10.990  13.126  68.713  0.00  0.00    -0.004 A 
ATOM     11  C   UNL     1     -11.950  12.967  69.709  0.00  0.00    -0.000 A 
ATOM     12  C   UNL     1     -12.246  14.024  70.563  0.00  0.00    -0.000 A 
ATOM     13  C   UNL     1     -11.743  15.257  70.160  0.00  0.00    -0.003 A 
ATOM     14  C   UNL     1      -8.685  16.366  67.076  0.00  0.00    +0.246 C 
ATOM     15  O   UNL     1      -8.063  15.514  66.402  0.00  0.00    -0.273 OA
ATOM     16  C   UNL     1     -10.799  15.362  69.140  0.00  0.00    -0.007 A 
ATOM     17  C   UNL     1      -9.050  17.623  66.345  0.00  0.00    +0.179 C 
ENDROOT
BRANCH   2  18
ATOM     18  C   UNL     1      -7.686  19.444  68.039  0.00  0.00    +0.077 C 
ATOM     19  C   UNL     1      -6.981  19.289  69.346  0.00  0.00    +0.009 C 
ATOM     20  C   UNL     1      -5.518  19.595  69.188  0.00  0.00    +0.000 C 
ATOM     21  C   UNL     1      -5.314  20.982  68.635  0.00  0.00    +0.000 C 
ATOM     22  C   UNL     1      -5.973  21.046  67.262  0.00  0.00    +0.000 C 
ATOM     23  C   UNL     1      -7.445  20.777  67.371  0.00  0.00    +0.009 C 
ENDBRANCH   2  18
TORSDOF 1
ENDMDL
MODEL 7
REMARK VINA RESULT:      -6.3      2.552      4.403
REMARK  Name = 
REMARK  1 active torsions:
REMARK  status: ('A' for Active; 'I' for Inactive)
REMARK    1  A    between atoms: C_2  and  C_3
REMARK                            x       y       z     vdW  Elec       q    Type
REMARK                         _______ _______ _______ _____ _____    ______ ____
ROOT
ATOM      1  O   UNL     1      -7.847  16.198  67.401  0.00  0.00    -0.275 OA
ATOM      2  C   UNL     1      -8.425  16.294  67.930  0.00  0.00    +0.226 C 
ATOM      3  N   UNL     1      -8.690  15.223  68.849  0.00  0.00    -0.269 N 
ATOM      4  C   UNL     1      -8.412  13.852  68.414  0.00  0.00    +0.118 C 
ATOM      5  C   UNL     1      -9.029  13.790  66.876  0.00  0.00    +0.117 C 
ATOM      6  N   UNL     1     -10.478  14.272  67.272  0.00  0.00    -0.274 N 
ATOM      7  C   UNL     1     -11.501  13.828  66.323  0.00  0.00    +0.098 C 
ATOM      8  C   UNL     1     -11.922  12.521  66.987  0.00  0.00    +0.048 C 
ATOM      9  C   UNL     1     -10.631  11.804  67.233  0.00  0.00    -0.023 A 
ATOM     10  C   UNL     1     -10.771  10.415  67.225  0.00  0.00    -0.004 A 
ATOM     11  C   UNL     1      -9.901   9.604  66.500  0.00  0.00    -0.000 A 
ATOM     12  C   UNL     1      -8.789  10.161  65.878  0.00  0.00    -0.000 A 
ATOM     13  C   UNL     1      -8.490  11.460  66.274  0.00  0.00    -0.003 A 
ATOM     14  C   UNL     1     -10.857  14.498  68.567  0.00  0.00    +0.246 C 
ATOM     15  O   UNL     1     -12.029  14.292  68.955  0.00  0.00    -0.273 OA
ATOM     16  C   UNL     1      -9.388  12.221  67.020  0.00  0.00    -0.007 A 
ATOM     17  C   UNL     1      -9.999  15.292  69.505  0.00  0.00    +0.179 C 
ENDROOT
BRANCH   2  18
ATOM     18  C   UNL     1      -9.389  17.422  67.734  0.00  0.00    +0.077 C 
ATOM     19  C   UNL     1      -9.598  17.686  66.279  0.00  0.00    +0.009 C 
ATOM     20  C   UNL     1     -10.515  18.862  66.090  0.00  0.00    +0.000 C 
ATOM     21  C   UNL     1      -9.971  20.086  66.780  0.00  0.00    +0.000 C 
ATOM     22  C   UNL     1      -9.872  19.785  68.270  0.00  0.00    +0.000 C 
ATOM     23  C   UNL     1      -8.939  18.635  68.515  0.00  0.00    +0.009 C 
ENDBRANCH   2  18
TORSDOF 1
ENDMDL
MODEL 8
REMARK VINA RESULT:      -6.1      3.974      6.759
REMARK  Name = 
REMARK  1 active torsions:
REMARK  status: ('A' for Active; 'I' for Inactive)
REMARK    1  A    between atoms: C_2  and  C_3
REMARK                            x       y       z     vdW  Elec       q    Type
REMARK                         _______ _______ _______ _____ _____    ______ ____
ROOT
ATOM      1  O   UNL     1     -10.811  17.260  66.424  0.00  0.00    -0.275 OA
ATOM      2  C   UNL     1     -10.691  16.733  66.999  0.00  0.00    +0.226 C 
ATOM      3  N   UNL     1     -10.279  17.214  68.287  0.00  0.00    -0.269 N 
ATOM      4  C   UNL     1      -9.491  18.448  68.348  0.00  0.00    +0.118 C 
ATOM      5  C   UNL     1      -8.371  18.263  67.139  0.00  0.00    +0.117 C 
ATOM      6  N   UNL     1      -7.814  16.881  67.658  0.00  0.00    -0.274 N 
ATOM      7  C   UNL     1      -6.441  16.623  67.217  0.00  0.00    +0.098 C 
ATOM      8  C   UNL     1      -5.675  17.201  68.403  0.00  0.00    +0.048 C 
ATOM      9  C   UNL     1      -6.261  18.566  68.586  0.00  0.00    -0.023 A 
ATOM     10  C   UNL     1      -5.355  19.477  69.135  0.00  0.00    -0.004 A 
ATOM     11  C   UNL     1      -5.179  20.744  68.584  0.00  0.00    -0.000 A 
ATOM     12  C   UNL     1      -6.007  21.173  67.553  0.00  0.00    -0.000 A 
ATOM     13  C   UNL     1      -7.138  20.388  67.348  0.00  0.00    -0.003 A 
ATOM     14  C   UNL     1      -8.235  16.300  68.822  0.00  0.00    +0.246 C 
ATOM     15  O   UNL     1      -7.467  15.605  69.526  0.00  0.00    -0.273 OA
ATOM     16  C   UNL     1      -7.274  19.136  67.944  0.00  0.00    -0.007 A 
ATOM     17  C   UNL     1      -9.691  16.193  69.160  0.00  0.00    +0.179 C 
ENDROOT
BRANCH   2  18
ATOM     18  C   UNL     1     -10.592  15.286  66.628  0.00  0.00    +0.077 C 
ATOM     19  C   UNL     1     -10.434  15.134  65.151  0.00  0.00    +0.009 C 
ATOM     20  C   UNL     1     -10.401  13.677  64.779  0.00  0.00    +0.000 C 
ATOM     21  C   UNL     1     -11.644  12.971  65.257  0.00  0.00    +0.000 C 
ATOM     22  C   UNL     1     -11.696  13.081  66.775  0.00  0.00    +0.000 C 
ATOM     23  C   UNL     1     -11.762  14.519  67.198  0.00  0.00    +0.009 C 
ENDBRANCH   2  18
TORSDOF 1
ENDMDL
MODEL 9
REMARK VINA RESULT:      -6.1      2.637      5.786
REMARK  Name = 
REMARK  1 active torsions:
REMARK  status: ('A' for Active; 'I' for Inactive)
REMARK    1  A    between atoms: C_2  and  C_3
REMARK                            x       y       z     vdW  Elec       q    Type
REMARK                         _______ _______ _______ _____ _____    ______ ____
ROOT
ATOM      1  O   UNL     1      -9.519  13.351  65.408  0.00  0.00    -0.275 OA
ATOM      2  C   UNL     1     -10.175  13.264  65.839  0.00  0.00    +0.226 C 
ATOM      3  N   UNL     1     -11.154  14.312  65.806  0.00  0.00    -0.269 N 
ATOM      4  C   UNL     1     -10.694  15.684  65.571  0.00  0.00    +0.118 C 
ATOM      5  C   UNL     1      -9.363  15.829  66.548  0.00  0.00    +0.117 C 
ATOM      6  N   UNL     1     -10.101  15.404  67.876  0.00  0.00    -0.274 N 
ATOM      7  C   UNL     1      -9.450  15.929  69.079  0.00  0.00    +0.098 C 
ATOM      8  C   UNL     1     -10.228  17.231  69.247  0.00  0.00    +0.048 C 
ATOM      9  C   UNL     1     -10.157  17.876  67.898  0.00  0.00    -0.023 A 
ATOM     10  C   UNL     1     -10.216  19.270  67.958  0.00  0.00    -0.004 A 
ATOM     11  C   UNL     1      -9.313  20.064  67.255  0.00  0.00    -0.000 A 
ATOM     12  C   UNL     1      -8.419  19.477  66.367  0.00  0.00    -0.000 A 
ATOM     13  C   UNL     1      -8.698  18.151  66.049  0.00  0.00    -0.003 A 
ATOM     14  C   UNL     1     -11.444  15.150  67.931  0.00  0.00    +0.246 C 
ATOM     15  O   UNL     1     -12.119  15.398  68.955  0.00  0.00    -0.273 OA
ATOM     16  C   UNL     1      -9.629  17.408  66.773  0.00  0.00    -0.007 A 
ATOM     17  C   UNL     1     -12.118  14.283  66.911  0.00  0.00    +0.179 C 
ENDROOT
BRANCH   2  18
ATOM     18  C   UNL     1     -10.202  12.190  66.882  0.00  0.00    +0.077 C 
ATOM     19  C   UNL     1      -8.870  12.070  67.545  0.00  0.00    +0.009 C 
ATOM     20  C   UNL     1      -8.886  10.947  68.545  0.00  0.00    +0.000 C 
ATOM     21  C   UNL     1      -9.273   9.647  67.888  0.00  0.00    +0.000 C 
ATOM     22  C   UNL     1     -10.677   9.805  67.317  0.00  0.00    +0.000 C 
ATOM     23  C   UNL     1     -10.707  10.897  66.287  0.00  0.00    +0.009 C 
ENDBRANCH   2  18
TORSDOF 1
ENDMDL
