MODEL 1
REMARK VINA RESULT:      -6.2      0.000      0.000
REMARK  Name = 
REMARK  9 active torsions:
REMARK  status: ('A' for Active; 'I' for Inactive)
REMARK    1  A    between atoms: O_2  and  C_3
REMARK    2  A    between atoms: C_5  and  C_6
REMARK    3  A    between atoms: C_6  and  C_7
REMARK    4  A    between atoms: C_7  and  C_9
REMARK    5  A    between atoms: C_20  and  O_21
REMARK    6  A    between atoms: C_37  and  O_38
REMARK    7  A    between atoms: C_64  and  O_65
REMARK    8  A    between atoms: O_65  and  C_66
REMARK    9  A    between atoms: C_66  and  C_67
REMARK                            x       y       z     vdW  Elec       q    Type
REMARK                         _______ _______ _______ _____ _____    ______ ____
ROOT
ATOM      1  C   UNL     1      -5.042  14.275  69.923  0.00  0.00    +0.176 C 
ATOM      2  O   UNL     1      -5.956  15.009  68.961  0.00  0.00    -0.451 OA
ATOM      3  C   UNL     1      -6.564  14.373  68.078  0.00  0.00    +0.335 C 
ATOM      4  O   UNL     1      -6.324  13.717  67.013  0.00  0.00    -0.248 OA
ATOM      5  C   UNL     1      -7.932  13.937  68.847  0.00  0.00    +0.175 C 
ATOM      6  N   UNL     1      -8.800  14.330  67.595  0.00  0.00    -0.265 N 
ATOM      7  C   UNL     1      -8.411  15.324  66.689  0.00  0.00    +0.094 C 
ATOM      8  C   UNL     1      -8.086  16.607  67.339  0.00  0.00    +0.022 C 
ATOM      9  C   UNL     1      -7.977  16.481  68.773  0.00  0.00    +0.004 C 
ATOM     10  C   UNL     1     -10.164  14.190  67.969  0.00  0.00    +0.289 C 
ATOM     11  O   UNL     1     -11.038  14.783  67.258  0.00  0.00    -0.267 OA
ATOM     12  C   UNL     1     -10.489  12.797  68.345  0.00  0.00    +0.279 C 
ATOM     13  O   UNL     1     -11.696  12.469  68.505  0.00  0.00    -0.281 OA
ATOM     14  C   UNL     1      -9.516  11.721  68.339  0.00  0.00    +0.279 C 
ATOM     15  O   UNL     1      -9.804  10.909  69.297  0.00  0.00    -0.329 OA
ATOM     16  C   UNL     1      -8.813   9.798  69.554  0.00  0.00    +0.121 C 
ATOM     17  C   UNL     1      -7.927   9.814  68.159  0.00  0.00    +0.030 C 
ATOM     18  C   UNL     1      -8.740   9.797  67.003  0.00  0.00    +0.008 C 
ATOM     19  C   UNL     1      -9.785   8.668  68.860  0.00  0.00    +0.063 C 
ATOM     20  C   UNL     1     -10.894   8.293  70.017  0.00  0.00    +0.136 C 
ATOM     21  C   UNL     1      -9.867   7.339  70.853  0.00  0.00    -0.017 C 
ATOM     22  C   UNL     1     -10.160   6.003  70.215  0.00  0.00    +0.029 C 
ATOM     23  C   UNL     1      -8.698   7.722  71.041  0.00  0.00    -0.006 C 
ATOM     24  C   UNL     1      -7.953   8.122  72.203  0.00  0.00    -0.001 C 
ATOM     25  C   UNL     1      -8.380   7.534  73.322  0.00  0.00    -0.000 C 
ATOM     26  C   UNL     1      -7.450   6.463  73.721  0.00  0.00    -0.005 C 
ATOM     27  C   UNL     1      -6.336   6.942  74.258  0.00  0.00    -0.026 C 
ATOM     28  C   UNL     1      -6.718   7.691  75.628  0.00  0.00    +0.022 C 
ATOM     29  C   UNL     1      -6.514   9.176  74.976  0.00  0.00    +0.005 C 
ATOM     30  C   UNL     1      -5.213   7.650  76.260  0.00  0.00    +0.012 C 
ATOM     31  C   UNL     1      -4.253   7.916  74.969  0.00  0.00    +0.061 C 
ATOM     32  C   UNL     1      -3.240   6.707  75.408  0.00  0.00    +0.008 C 
ATOM     33  C   UNL     1      -3.316   9.051  75.633  0.00  0.00    +0.180 C 
ATOM     34  O   UNL     1      -3.446   9.294  76.772  0.00  0.00    -0.293 OA
ATOM     35  C   UNL     1      -3.515  10.219  74.532  0.00  0.00    +0.206 C 
ATOM     36  C   UNL     1      -2.202  11.209  75.050  0.00  0.00    +0.204 C 
ATOM     37  O   UNL     1      -2.745  11.406  76.446  0.00  0.00    -0.216 OA
ATOM     38  C   UNL     1      -2.934  12.574  74.588  0.00  0.00    -0.015 C 
ATOM     39  C   UNL     1      -1.938  13.633  75.025  0.00  0.00    +0.029 C 
ATOM     40  C   UNL     1      -3.428  12.760  73.474  0.00  0.00    -0.025 C 
ATOM     41  C   UNL     1      -4.891  12.419  72.921  0.00  0.00    +0.079 C 
ATOM     42  C   UNL     1      -5.662  12.643  74.355  0.00  0.00    +0.012 C 
ATOM     43  C   UNL     1      -5.156  13.923  72.399  0.00  0.00    +0.158 C 
ATOM     44  O   UNL     1      -5.143  14.806  73.179  0.00  0.00    -0.296 OA
ATOM     45  O   UNL     1      -8.333  11.819  68.014  0.00  0.00    -0.187 OA
ATOM     46  C   UNL     1     -10.031  10.789  67.074  0.00  0.00    +0.062 C 
ATOM     47  C   UNL     1      -9.441  11.753  65.897  0.00  0.00    +0.006 C 
ATOM     48  C   UNL     1      -8.303  15.380  69.559  0.00  0.00    +0.031 C 
ATOM     49  C   UNL     1      -6.044  14.071  71.208  0.00  0.00    +0.108 C 
ENDROOT
BRANCH  35  50
ATOM     50  O   UNL     1      -2.606   9.510  73.554  0.00  0.00    -0.343 OA
ATOM     51  C   UNL     1      -3.322   9.330  72.392  0.00  0.00    +0.175 C 
ENDBRANCH  35  50
BRANCH   1  52
ATOM     52  C   UNL     1      -4.533  15.824  70.486  0.00  0.00    +0.041 C 
ATOM     53  C   UNL     1      -3.001  15.349  70.649  0.00  0.00    +0.004 C 
BRANCH  52  54
ATOM     54  C   UNL     1      -4.242  16.454  69.016  0.00  0.00    +0.004 C 
BRANCH  54  59
ATOM     55  C   UNL     1      -3.266  18.176  66.887  0.00  0.00    +0.142 C 
ATOM     56  C   UNL     1      -3.956  19.768  66.747  0.00  0.00    +0.142 C 
ATOM     57  C   UNL     1      -4.421  19.936  68.298  0.00  0.00    +0.032 C 
ATOM     58  C   UNL     1      -5.134  18.771  68.792  0.00  0.00    +0.003 C 
ATOM     59  C   UNL     1      -3.918  17.974  69.545  0.00  0.00    +0.003 C 
ATOM     60  C   UNL     1      -2.808  18.260  68.434  0.00  0.00    +0.032 C 
BRANCH  55  62
ATOM     61  C   UNL     1      -4.742  17.111  66.213  0.00  0.00    +0.174 C 
ATOM     62  O   UNL     1      -4.629  17.523  66.960  0.00  0.00    -0.351 OA
ENDBRANCH  55  62
BRANCH  56  63
ATOM     63  O   UNL     1      -2.604  20.376  67.039  0.00  0.00    -0.351 OA
BRANCH  63  64
ATOM     64  C   UNL     1      -2.606  21.644  66.497  0.00  0.00    +0.178 C 
BRANCH  64  65
ATOM     65  C   UNL     1      -3.230  21.559  65.131  0.00  0.00    +0.214 C 
ATOM     66  O   UNL     1      -3.063  22.758  64.463  0.00  0.00    -0.218 OA
ENDBRANCH  64  65
ENDBRANCH  63  64
ENDBRANCH  56  63
ENDBRANCH  54  59
ENDBRANCH  52  54
ENDBRANCH   1  52
BRANCH  20  67
ATOM     67  O   UNL     1     -10.669   9.491  70.937  0.00  0.00    -0.349 OA
ATOM     68  C   UNL     1     -11.895   9.445  71.625  0.00  0.00    +0.174 C 
ENDBRANCH  20  67
TORSDOF 9
ENDMDL
MODEL 2
REMARK VINA RESULT:      -5.9      5.746     10.489
REMARK  Name = 
REMARK  9 active torsions:
REMARK  status: ('A' for Active; 'I' for Inactive)
REMARK    1  A    between atoms: O_2  and  C_3
REMARK    2  A    between atoms: C_5  and  C_6
REMARK    3  A    between atoms: C_6  and  C_7
REMARK    4  A    between atoms: C_7  and  C_9
REMARK    5  A    between atoms: C_20  and  O_21
REMARK    6  A    between atoms: C_37  and  O_38
REMARK    7  A    between atoms: C_64  and  O_65
REMARK    8  A    between atoms: O_65  and  C_66
REMARK    9  A    between atoms: C_66  and  C_67
REMARK                            x       y       z     vdW  Elec       q    Type
REMARK                         _______ _______ _______ _____ _____    ______ ____
ROOT
ATOM      1  C   UNL     1      -9.173   8.938  65.760  0.00  0.00    +0.176 C 
ATOM      2  O   UNL     1      -9.584   9.110  67.209  0.00  0.00    -0.451 OA
ATOM      3  C   UNL     1      -9.962   8.123  67.867  0.00  0.00    +0.335 C 
ATOM      4  O   UNL     1     -10.935   7.301  67.914  0.00  0.00    -0.248 OA
ATOM      5  C   UNL     1      -8.561   7.546  68.463  0.00  0.00    +0.175 C 
ATOM      6  N   UNL     1      -9.211   7.340  69.881  0.00  0.00    -0.265 N 
ATOM      7  C   UNL     1     -10.272   8.126  70.346  0.00  0.00    +0.094 C 
ATOM      8  C   UNL     1     -10.001   9.573  70.264  0.00  0.00    +0.022 C 
ATOM      9  C   UNL     1      -8.827   9.865  69.477  0.00  0.00    +0.004 C 
ATOM     10  C   UNL     1      -8.174   6.934  70.763  0.00  0.00    +0.289 C 
ATOM     11  O   UNL     1      -8.378   7.054  72.015  0.00  0.00    -0.267 OA
ATOM     12  C   UNL     1      -7.562   5.656  70.340  0.00  0.00    +0.279 C 
ATOM     13  O   UNL     1      -6.771   5.063  71.123  0.00  0.00    -0.281 OA
ATOM     14  C   UNL     1      -7.975   4.927  69.155  0.00  0.00    +0.279 C 
ATOM     15  O   UNL     1      -6.939   4.351  68.652  0.00  0.00    -0.329 OA
ATOM     16  C   UNL     1      -7.135   3.664  67.320  0.00  0.00    +0.121 C 
ATOM     17  C   UNL     1      -8.782   3.554  67.243  0.00  0.00    +0.030 C 
ATOM     18  C   UNL     1      -9.343   3.009  68.421  0.00  0.00    +0.008 C 
ATOM     19  C   UNL     1      -7.121   2.169  68.004  0.00  0.00    +0.063 C 
ATOM     20  C   UNL     1      -5.529   1.823  68.237  0.00  0.00    +0.136 C 
ATOM     21  C   UNL     1      -5.266   1.445  66.672  0.00  0.00    -0.017 C 
ATOM     22  C   UNL     1      -5.538  -0.040  66.703  0.00  0.00    +0.029 C 
ATOM     23  C   UNL     1      -5.746   2.169  65.782  0.00  0.00    -0.006 C 
ATOM     24  C   UNL     1      -5.179   3.051  64.799  0.00  0.00    -0.001 C 
ATOM     25  C   UNL     1      -3.954   2.686  64.418  0.00  0.00    -0.000 C 
ATOM     26  C   UNL     1      -4.000   2.057  63.086  0.00  0.00    -0.005 C 
ATOM     27  C   UNL     1      -4.164   2.948  62.117  0.00  0.00    -0.026 C 
ATOM     28  C   UNL     1      -2.866   3.897  62.082  0.00  0.00    +0.022 C 
ATOM     29  C   UNL     1      -3.659   5.154  62.764  0.00  0.00    +0.005 C 
ATOM     30  C   UNL     1      -3.106   4.440  60.560  0.00  0.00    +0.012 C 
ATOM     31  C   UNL     1      -4.724   4.609  60.469  0.00  0.00    +0.061 C 
ATOM     32  C   UNL     1      -4.769   3.886  59.000  0.00  0.00    +0.008 C 
ATOM     33  C   UNL     1      -4.746   6.091  59.829  0.00  0.00    +0.180 C 
ATOM     34  O   UNL     1      -3.731   6.581  59.506  0.00  0.00    -0.293 OA
ATOM     35  C   UNL     1      -5.683   6.825  60.924  0.00  0.00    +0.206 C 
ATOM     36  C   UNL     1      -6.011   8.239  59.992  0.00  0.00    +0.204 C 
ATOM     37  O   UNL     1      -4.559   8.640  59.870  0.00  0.00    -0.216 OA
ATOM     38  C   UNL     1      -6.145   9.178  61.301  0.00  0.00    -0.015 C 
ATOM     39  C   UNL     1      -6.384  10.546  60.688  0.00  0.00    +0.029 C 
ATOM     40  C   UNL     1      -6.854   8.919  62.277  0.00  0.00    -0.025 C 
ATOM     41  C   UNL     1      -6.537   8.055  63.586  0.00  0.00    +0.079 C 
ATOM     42  C   UNL     1      -4.937   8.430  63.642  0.00  0.00    +0.012 C 
ATOM     43  C   UNL     1      -6.977   9.235  64.595  0.00  0.00    +0.158 C 
ATOM     44  O   UNL     1      -6.399  10.261  64.558  0.00  0.00    -0.296 OA
ATOM     45  O   UNL     1      -8.874   5.258  68.381  0.00  0.00    -0.187 OA
ATOM     46  C   UNL     1      -8.702   3.590  69.802  0.00  0.00    +0.062 C 
ATOM     47  C   UNL     1     -10.095   4.333  70.216  0.00  0.00    +0.006 C 
ATOM     48  C   UNL     1      -7.891   8.966  68.976  0.00  0.00    +0.031 C 
ATOM     49  C   UNL     1      -7.543   8.813  65.912  0.00  0.00    +0.108 C 
ENDROOT
BRANCH  35  50
ATOM     50  O   UNL     1      -6.923   6.163  60.369  0.00  0.00    -0.343 OA
ATOM     51  C   UNL     1      -7.529   5.498  61.412  0.00  0.00    +0.175 C 
ENDBRANCH  35  50
BRANCH   1  52
ATOM     52  C   UNL     1      -9.095  10.658  65.666  0.00  0.00    +0.041 C 
ATOM     53  C   UNL     1      -9.557  10.674  64.121  0.00  0.00    +0.004 C 
BRANCH  52  54
ATOM     54  C   UNL     1     -10.614  10.927  66.182  0.00  0.00    +0.004 C 
BRANCH  54  59
ATOM     55  C   UNL     1     -11.241  13.702  65.585  0.00  0.00    +0.142 C 
ATOM     56  C   UNL     1     -12.040  14.639  66.816  0.00  0.00    +0.142 C 
ATOM     57  C   UNL     1     -11.530  13.781  68.102  0.00  0.00    +0.032 C 
ATOM     58  C   UNL     1     -11.699  12.351  67.917  0.00  0.00    +0.003 C 
ATOM     59  C   UNL     1     -10.199  11.936  67.409  0.00  0.00    +0.003 C 
ATOM     60  C   UNL     1      -9.979  13.203  66.462  0.00  0.00    +0.032 C 
BRANCH  55  62
ATOM     61  C   UNL     1     -12.653  12.522  64.968  0.00  0.00    +0.174 C 
ATOM     62  O   UNL     1     -12.231  12.566  65.717  0.00  0.00    -0.351 OA
ENDBRANCH  55  62
BRANCH  56  63
ATOM     63  O   UNL     1     -10.842  15.555  66.893  0.00  0.00    -0.351 OA
BRANCH  63  64
ATOM     64  C   UNL     1     -11.000  16.334  68.020  0.00  0.00    +0.178 C 
BRANCH  64  65
ATOM     65  C   UNL     1     -10.188  17.586  67.830  0.00  0.00    +0.214 C 
ATOM     66  O   UNL     1     -11.028  18.667  67.634  0.00  0.00    -0.218 OA
ENDBRANCH  64  65
ENDBRANCH  63  64
ENDBRANCH  56  63
ENDBRANCH  54  59
ENDBRANCH  52  54
ENDBRANCH   1  52
BRANCH  20  67
ATOM     67  O   UNL     1      -4.970   3.235  68.081  0.00  0.00    -0.349 OA
ATOM     68  C   UNL     1      -3.705   3.011  68.655  0.00  0.00    +0.174 C 
ENDBRANCH  20  67
TORSDOF 9
ENDMDL
MODEL 3
REMARK VINA RESULT:      -5.8      5.979     11.181
REMARK  Name = 
REMARK  9 active torsions:
REMARK  status: ('A' for Active; 'I' for Inactive)
REMARK    1  A    between atoms: O_2  and  C_3
REMARK    2  A    between atoms: C_5  and  C_6
REMARK    3  A    between atoms: C_6  and  C_7
REMARK    4  A    between atoms: C_7  and  C_9
REMARK    5  A    between atoms: C_20  and  O_21
REMARK    6  A    between atoms: C_37  and  O_38
REMARK    7  A    between atoms: C_64  and  O_65
REMARK    8  A    between atoms: O_65  and  C_66
REMARK    9  A    between atoms: C_66  and  C_67
REMARK                            x       y       z     vdW  Elec       q    Type
REMARK                         _______ _______ _______ _____ _____    ______ ____
ROOT
ATOM      1  C   UNL     1      -9.275   8.341  66.164  0.00  0.00    +0.176 C 
ATOM      2  O   UNL     1      -9.135   8.737  67.621  0.00  0.00    -0.451 OA
ATOM      3  C   UNL     1      -9.439   7.925  68.515  0.00  0.00    +0.335 C 
ATOM      4  O   UNL     1     -10.469   7.348  68.995  0.00  0.00    -0.248 OA
ATOM      5  C   UNL     1      -8.046   7.111  68.733  0.00  0.00    +0.175 C 
ATOM      6  N   UNL     1      -8.206   7.189  70.296  0.00  0.00    -0.265 N 
ATOM      7  C   UNL     1      -8.888   8.232  70.933  0.00  0.00    +0.094 C 
ATOM      8  C   UNL     1      -8.407   9.568  70.537  0.00  0.00    +0.022 C 
ATOM      9  C   UNL     1      -7.535   9.516  69.387  0.00  0.00    +0.004 C 
ATOM     10  C   UNL     1      -7.021   6.648  70.866  0.00  0.00    +0.289 C 
ATOM     11  O   UNL     1      -6.767   6.928  72.082  0.00  0.00    -0.267 OA
ATOM     12  C   UNL     1      -6.827   5.232  70.487  0.00  0.00    +0.279 C 
ATOM     13  O   UNL     1      -5.939   4.555  71.071  0.00  0.00    -0.281 OA
ATOM     14  C   UNL     1      -7.740   4.504  69.624  0.00  0.00    +0.279 C 
ATOM     15  O   UNL     1      -7.055   3.667  68.925  0.00  0.00    -0.329 OA
ATOM     16  C   UNL     1      -7.808   2.918  67.850  0.00  0.00    +0.121 C 
ATOM     17  C   UNL     1      -9.376   3.170  68.307  0.00  0.00    +0.030 C 
ATOM     18  C   UNL     1      -9.594   2.878  69.673  0.00  0.00    +0.008 C 
ATOM     19  C   UNL     1      -7.832   1.529  68.729  0.00  0.00    +0.063 C 
ATOM     20  C   UNL     1      -6.344   0.861  68.509  0.00  0.00    +0.136 C 
ATOM     21  C   UNL     1      -6.696   0.287  67.023  0.00  0.00    -0.017 C 
ATOM     22  C   UNL     1      -7.203  -1.090  67.378  0.00  0.00    +0.029 C 
ATOM     23  C   UNL     1      -7.310   1.013  66.221  0.00  0.00    -0.006 C 
ATOM     24  C   UNL     1      -6.960   1.650  64.981  0.00  0.00    -0.001 C 
ATOM     25  C   UNL     1      -6.022   0.987  64.303  0.00  0.00    -0.000 C 
ATOM     26  C   UNL     1      -6.627   0.261  63.172  0.00  0.00    -0.005 C 
ATOM     27  C   UNL     1      -6.946   1.070  62.171  0.00  0.00    -0.026 C 
ATOM     28  C   UNL     1      -5.589   1.699  61.581  0.00  0.00    +0.022 C 
ATOM     29  C   UNL     1      -5.867   3.159  62.261  0.00  0.00    +0.005 C 
ATOM     30  C   UNL     1      -6.226   2.135  60.142  0.00  0.00    +0.012 C 
ATOM     31  C   UNL     1      -7.723   2.650  60.531  0.00  0.00    +0.061 C 
ATOM     32  C   UNL     1      -8.389   1.819  59.287  0.00  0.00    +0.008 C 
ATOM     33  C   UNL     1      -7.694   4.033  59.698  0.00  0.00    +0.180 C 
ATOM     34  O   UNL     1      -6.777   4.252  59.001  0.00  0.00    -0.293 OA
ATOM     35  C   UNL     1      -8.059   5.057  60.894  0.00  0.00    +0.206 C 
ATOM     36  C   UNL     1      -8.424   6.414  59.894  0.00  0.00    +0.204 C 
ATOM     37  O   UNL     1      -7.052   6.469  59.264  0.00  0.00    -0.216 OA
ATOM     38  C   UNL     1      -7.938   7.478  61.009  0.00  0.00    -0.015 C 
ATOM     39  C   UNL     1      -8.122   8.801  60.287  0.00  0.00    +0.029 C 
ATOM     40  C   UNL     1      -8.310   7.477  62.185  0.00  0.00    -0.025 C 
ATOM     41  C   UNL     1      -7.729   6.693  63.454  0.00  0.00    +0.079 C 
ATOM     42  C   UNL     1      -6.165   6.705  62.948  0.00  0.00    +0.012 C 
ATOM     43  C   UNL     1      -7.585   8.031  64.343  0.00  0.00    +0.158 C 
ATOM     44  O   UNL     1      -6.880   8.894  63.962  0.00  0.00    -0.296 OA
ATOM     45  O   UNL     1      -8.772   4.952  69.125  0.00  0.00    -0.187 OA
ATOM     46  C   UNL     1      -8.432   3.429  70.673  0.00  0.00    +0.062 C 
ATOM     47  C   UNL     1      -9.447   4.499  71.373  0.00  0.00    +0.006 C 
ATOM     48  C   UNL     1      -7.000   8.388  68.774  0.00  0.00    +0.031 C 
ATOM     49  C   UNL     1      -7.740   7.872  65.821  0.00  0.00    +0.108 C 
ENDROOT
BRANCH  35  50
ATOM     50  O   UNL     1      -9.511   4.637  60.868  0.00  0.00    -0.343 OA
ATOM     51  C   UNL     1      -9.833   4.210  62.137  0.00  0.00    +0.175 C 
ENDBRANCH  35  50
BRANCH   1  52
ATOM     52  C   UNL     1      -8.927   9.984  65.772  0.00  0.00    +0.041 C 
ATOM     53  C   UNL     1      -9.869   9.955  64.464  0.00  0.00    +0.004 C 
BRANCH  52  54
ATOM     54  C   UNL     1     -10.111  10.632  66.680  0.00  0.00    +0.004 C 
BRANCH  54  59
ATOM     55  C   UNL     1     -11.819  12.486  68.126  0.00  0.00    +0.142 C 
ATOM     56  C   UNL     1     -11.053  13.732  69.070  0.00  0.00    +0.142 C 
ATOM     57  C   UNL     1      -9.654  13.798  68.241  0.00  0.00    +0.032 C 
ATOM     58  C   UNL     1      -9.089  12.482  68.001  0.00  0.00    +0.003 C 
ATOM     59  C   UNL     1      -9.638  12.191  66.487  0.00  0.00    +0.003 C 
ATOM     60  C   UNL     1     -11.099  12.795  66.713  0.00  0.00    +0.032 C 
BRANCH  55  62
ATOM     61  C   UNL     1     -11.474  10.914  69.210  0.00  0.00    +0.174 C 
ATOM     62  O   UNL     1     -10.952  11.405  68.732  0.00  0.00    -0.351 OA
ENDBRANCH  55  62
BRANCH  56  63
ATOM     63  O   UNL     1     -11.680  14.784  68.186  0.00  0.00    -0.351 OA
BRANCH  63  64
ATOM     64  C   UNL     1     -11.724  15.952  68.917  0.00  0.00    +0.178 C 
BRANCH  64  65
ATOM     65  C   UNL     1     -11.937  15.584  70.360  0.00  0.00    +0.214 C 
ATOM     66  O   UNL     1     -13.229  15.897  70.739  0.00  0.00    -0.218 OA
ENDBRANCH  64  65
ENDBRANCH  63  64
ENDBRANCH  56  63
ENDBRANCH  54  59
ENDBRANCH  52  54
ENDBRANCH   1  52
BRANCH  20  67
ATOM     67  O   UNL     1      -5.627   2.093  67.960  0.00  0.00    -0.349 OA
ATOM     68  C   UNL     1      -4.304   1.667  68.184  0.00  0.00    +0.174 C 
ENDBRANCH  20  67
TORSDOF 9
ENDMDL
MODEL 4
REMARK VINA RESULT:      -5.7      5.135      8.129
REMARK  Name = 
REMARK  9 active torsions:
REMARK  status: ('A' for Active; 'I' for Inactive)
REMARK    1  A    between atoms: O_2  and  C_3
REMARK    2  A    between atoms: C_5  and  C_6
REMARK    3  A    between atoms: C_6  and  C_7
REMARK    4  A    between atoms: C_7  and  C_9
REMARK    5  A    between atoms: C_20  and  O_21
REMARK    6  A    between atoms: C_37  and  O_38
REMARK    7  A    between atoms: C_64  and  O_65
REMARK    8  A    between atoms: O_65  and  C_66
REMARK    9  A    between atoms: C_66  and  C_67
REMARK                            x       y       z     vdW  Elec       q    Type
REMARK                         _______ _______ _______ _____ _____    ______ ____
ROOT
ATOM      1  C   UNL     1      -8.549   9.868  66.904  0.00  0.00    +0.176 C 
ATOM      2  O   UNL     1      -8.531  10.454  65.506  0.00  0.00    -0.451 OA
ATOM      3  C   UNL     1      -7.636  10.121  64.706  0.00  0.00    +0.335 C 
ATOM      4  O   UNL     1      -6.379  10.252  64.545  0.00  0.00    -0.248 OA
ATOM      5  C   UNL     1      -8.272   8.795  64.007  0.00  0.00    +0.175 C 
ATOM      6  N   UNL     1      -7.815   9.286  62.584  0.00  0.00    -0.265 N 
ATOM      7  C   UNL     1      -7.674  10.641  62.263  0.00  0.00    +0.094 C 
ATOM      8  C   UNL     1      -8.877  11.438  62.567  0.00  0.00    +0.022 C 
ATOM      9  C   UNL     1      -9.826  10.708  63.374  0.00  0.00    +0.004 C 
ATOM     10  C   UNL     1      -8.346   8.372  61.634  0.00  0.00    +0.289 C 
ATOM     11  O   UNL     1      -8.415   8.751  60.420  0.00  0.00    -0.267 OA
ATOM     12  C   UNL     1      -7.830   7.002  61.843  0.00  0.00    +0.279 C 
ATOM     13  O   UNL     1      -8.045   6.123  60.966  0.00  0.00    -0.281 OA
ATOM     14  C   UNL     1      -6.904   6.651  62.904  0.00  0.00    +0.279 C 
ATOM     15  O   UNL     1      -7.173   5.453  63.295  0.00  0.00    -0.329 OA
ATOM     16  C   UNL     1      -6.415   4.959  64.506  0.00  0.00    +0.121 C 
ATOM     17  C   UNL     1      -5.175   6.048  64.589  0.00  0.00    +0.030 C 
ATOM     18  C   UNL     1      -4.517   6.214  63.347  0.00  0.00    +0.008 C 
ATOM     19  C   UNL     1      -5.439   3.999  63.596  0.00  0.00    +0.063 C 
ATOM     20  C   UNL     1      -6.334   2.652  63.289  0.00  0.00    +0.136 C 
ATOM     21  C   UNL     1      -6.093   2.015  64.771  0.00  0.00    -0.017 C 
ATOM     22  C   UNL     1      -4.857   1.187  64.511  0.00  0.00    +0.029 C 
ATOM     23  C   UNL     1      -6.177   2.751  65.771  0.00  0.00    -0.006 C 
ATOM     24  C   UNL     1      -7.096   2.838  66.872  0.00  0.00    -0.001 C 
ATOM     25  C   UNL     1      -7.658   1.666  67.173  0.00  0.00    -0.000 C 
ATOM     26  C   UNL     1      -7.046   1.105  68.390  0.00  0.00    -0.005 C 
ATOM     27  C   UNL     1      -7.461   1.721  69.489  0.00  0.00    -0.026 C 
ATOM     28  C   UNL     1      -9.037   1.447  69.654  0.00  0.00    +0.022 C 
ATOM     29  C   UNL     1      -9.438   2.962  69.190  0.00  0.00    +0.005 C 
ATOM     30  C   UNL     1      -9.097   1.810  71.246  0.00  0.00    +0.012 C 
ATOM     31  C   UNL     1      -8.073   3.070  71.386  0.00  0.00    +0.061 C 
ATOM     32  C   UNL     1      -7.381   2.426  72.723  0.00  0.00    +0.008 C 
ATOM     33  C   UNL     1      -9.038   4.032  72.250  0.00  0.00    +0.180 C 
ATOM     34  O   UNL     1     -10.062   3.608  72.631  0.00  0.00    -0.293 OA
ATOM     35  C   UNL     1      -9.011   5.339  71.298  0.00  0.00    +0.206 C 
ATOM     36  C   UNL     1      -9.684   6.438  72.444  0.00  0.00    +0.204 C 
ATOM     37  O   UNL     1     -10.972   5.665  72.607  0.00  0.00    -0.216 OA
ATOM     38  C   UNL     1     -10.386   7.339  71.301  0.00  0.00    -0.015 C 
ATOM     39  C   UNL     1     -11.121   8.381  72.125  0.00  0.00    +0.029 C 
ATOM     40  C   UNL     1      -9.806   7.783  70.307  0.00  0.00    -0.025 C 
ATOM     41  C   UNL     1      -9.553   7.117  68.874  0.00  0.00    +0.079 C 
ATOM     42  C   UNL     1     -10.944   6.241  68.855  0.00  0.00    +0.012 C 
ATOM     43  C   UNL     1     -10.180   8.367  68.069  0.00  0.00    +0.158 C 
ATOM     44  O   UNL     1     -11.305   8.659  68.259  0.00  0.00    -0.296 OA
ATOM     45  O   UNL     1      -6.429   7.427  63.733  0.00  0.00    -0.187 OA
ATOM     46  C   UNL     1      -5.517   6.323  62.066  0.00  0.00    +0.062 C 
ATOM     47  C   UNL     1      -5.108   7.879  61.793  0.00  0.00    +0.006 C 
ATOM     48  C   UNL     1      -9.796   9.359  63.714  0.00  0.00    +0.031 C 
ATOM     49  C   UNL     1      -9.619   8.638  66.711  0.00  0.00    +0.108 C 
ENDROOT
BRANCH  35  50
ATOM     50  O   UNL     1      -7.617   5.699  71.760  0.00  0.00    -0.343 OA
ATOM     51  C   UNL     1      -6.831   5.800  70.633  0.00  0.00    +0.175 C 
ENDBRANCH  35  50
BRANCH   1  52
ATOM     52  C   UNL     1      -9.808  10.989  67.266  0.00  0.00    +0.041 C 
ATOM     53  C   UNL     1      -9.275  11.225  68.769  0.00  0.00    +0.004 C 
BRANCH  52  54
ATOM     54  C   UNL     1      -9.027  12.307  66.720  0.00  0.00    +0.004 C 
BRANCH  54  59
ATOM     55  C   UNL     1      -9.243  15.144  66.126  0.00  0.00    +0.142 C 
ATOM     56  C   UNL     1     -10.530  16.039  66.884  0.00  0.00    +0.142 C 
ATOM     57  C   UNL     1     -10.728  15.073  68.179  0.00  0.00    +0.032 C 
ATOM     58  C   UNL     1     -10.804  13.668  67.817  0.00  0.00    +0.003 C 
ATOM     59  C   UNL     1      -9.253  13.209  68.073  0.00  0.00    +0.003 C 
ATOM     60  C   UNL     1      -8.580  14.522  67.462  0.00  0.00    +0.032 C 
BRANCH  55  62
ATOM     61  C   UNL     1     -10.268  14.149  64.812  0.00  0.00    +0.174 C 
ATOM     62  O   UNL     1     -10.186  14.055  65.664  0.00  0.00    -0.351 OA
ENDBRANCH  55  62
BRANCH  56  63
ATOM     63  O   UNL     1      -9.511  16.883  67.611  0.00  0.00    -0.351 OA
BRANCH  63  64
ATOM     64  C   UNL     1     -10.189  17.582  68.588  0.00  0.00    +0.178 C 
BRANCH  64  65
ATOM     65  C   UNL     1      -9.923  19.047  68.372  0.00  0.00    +0.214 C 
ATOM     66  O   UNL     1     -10.936  19.602  67.612  0.00  0.00    -0.218 OA
ENDBRANCH  64  65
ENDBRANCH  63  64
ENDBRANCH  56  63
ENDBRANCH  54  59
ENDBRANCH  52  54
ENDBRANCH   1  52
BRANCH  20  67
ATOM     67  O   UNL     1      -7.707   3.211  63.656  0.00  0.00    -0.349 OA
ATOM     68  C   UNL     1      -8.494   2.214  63.050  0.00  0.00    +0.174 C 
ENDBRANCH  20  67
TORSDOF 9
ENDMDL
MODEL 5
REMARK VINA RESULT:      -5.6      5.712      9.151
REMARK  Name = 
REMARK  9 active torsions:
REMARK  status: ('A' for Active; 'I' for Inactive)
REMARK    1  A    between atoms: O_2  and  C_3
REMARK    2  A    between atoms: C_5  and  C_6
REMARK    3  A    between atoms: C_6  and  C_7
REMARK    4  A    between atoms: C_7  and  C_9
REMARK    5  A    between atoms: C_20  and  O_21
REMARK    6  A    between atoms: C_37  and  O_38
REMARK    7  A    between atoms: C_64  and  O_65
REMARK    8  A    between atoms: O_65  and  C_66
REMARK    9  A    between atoms: C_66  and  C_67
REMARK                            x       y       z     vdW  Elec       q    Type
REMARK                         _______ _______ _______ _____ _____    ______ ____
ROOT
ATOM      1  C   UNL     1      -8.463   9.100  66.322  0.00  0.00    +0.176 C 
ATOM      2  O   UNL     1      -8.436   9.853  65.006  0.00  0.00    -0.451 OA
ATOM      3  C   UNL     1      -7.379   9.913  64.349  0.00  0.00    +0.335 C 
ATOM      4  O   UNL     1      -6.217  10.431  64.421  0.00  0.00    -0.248 OA
ATOM      5  C   UNL     1      -7.464   8.569  63.433  0.00  0.00    +0.175 C 
ATOM      6  N   UNL     1      -6.992   9.365  62.161  0.00  0.00    -0.265 N 
ATOM      7  C   UNL     1      -7.241  10.732  61.992  0.00  0.00    +0.094 C 
ATOM      8  C   UNL     1      -8.662  11.088  62.152  0.00  0.00    +0.022 C 
ATOM      9  C   UNL     1      -9.436  10.006  62.712  0.00  0.00    +0.004 C 
ATOM     10  C   UNL     1      -7.072   8.476  61.056  0.00  0.00    +0.289 C 
ATOM     11  O   UNL     1      -7.087   8.982  59.887  0.00  0.00    -0.267 OA
ATOM     12  C   UNL     1      -6.186   7.305  61.228  0.00  0.00    +0.279 C 
ATOM     13  O   UNL     1      -5.991   6.531  60.252  0.00  0.00    -0.281 OA
ATOM     14  C   UNL     1      -5.354   7.099  62.399  0.00  0.00    +0.279 C 
ATOM     15  O   UNL     1      -5.284   5.834  62.629  0.00  0.00    -0.329 OA
ATOM     16  C   UNL     1      -4.584   5.422  63.904  0.00  0.00    +0.121 C 
ATOM     17  C   UNL     1      -3.773   6.807  64.299  0.00  0.00    +0.030 C 
ATOM     18  C   UNL     1      -3.035   7.330  63.212  0.00  0.00    +0.008 C 
ATOM     19  C   UNL     1      -3.240   4.929  63.096  0.00  0.00    +0.063 C 
ATOM     20  C   UNL     1      -3.616   3.434  62.519  0.00  0.00    +0.136 C 
ATOM     21  C   UNL     1      -3.394   2.698  63.958  0.00  0.00    -0.017 C 
ATOM     22  C   UNL     1      -1.938   2.317  63.845  0.00  0.00    +0.029 C 
ATOM     23  C   UNL     1      -3.843   3.230  64.989  0.00  0.00    -0.006 C 
ATOM     24  C   UNL     1      -4.887   2.889  65.916  0.00  0.00    -0.001 C 
ATOM     25  C   UNL     1      -5.088   1.573  66.009  0.00  0.00    -0.000 C 
ATOM     26  C   UNL     1      -4.506   1.055  67.260  0.00  0.00    -0.005 C 
ATOM     27  C   UNL     1      -5.241   1.362  68.319  0.00  0.00    -0.026 C 
ATOM     28  C   UNL     1      -6.659   0.615  68.182  0.00  0.00    +0.022 C 
ATOM     29  C   UNL     1      -7.446   1.993  67.792  0.00  0.00    +0.005 C 
ATOM     30  C   UNL     1      -7.050   0.719  69.764  0.00  0.00    +0.012 C 
ATOM     31  C   UNL     1      -6.502   2.194  70.193  0.00  0.00    +0.061 C 
ATOM     32  C   UNL     1      -5.836   1.604  71.568  0.00  0.00    +0.008 C 
ATOM     33  C   UNL     1      -7.831   2.698  70.958  0.00  0.00    +0.180 C 
ATOM     34  O   UNL     1      -8.712   1.942  71.115  0.00  0.00    -0.293 OA
ATOM     35  C   UNL     1      -8.084   4.073  70.146  0.00  0.00    +0.206 C 
ATOM     36  C   UNL     1      -9.220   4.754  71.250  0.00  0.00    +0.204 C 
ATOM     37  O   UNL     1     -10.209   3.621  71.116  0.00  0.00    -0.216 OA
ATOM     38  C   UNL     1     -10.003   5.557  70.087  0.00  0.00    -0.015 C 
ATOM     39  C   UNL     1     -11.135   6.211  70.860  0.00  0.00    +0.029 C 
ATOM     40  C   UNL     1      -9.460   6.286  69.253  0.00  0.00    -0.025 C 
ATOM     41  C   UNL     1      -8.815   5.930  67.833  0.00  0.00    +0.079 C 
ATOM     42  C   UNL     1      -9.844   4.694  67.493  0.00  0.00    +0.012 C 
ATOM     43  C   UNL     1      -9.685   7.038  67.046  0.00  0.00    +0.158 C 
ATOM     44  O   UNL     1     -10.860   6.955  67.061  0.00  0.00    -0.296 OA
ATOM     45  O   UNL     1      -5.266   7.858  63.365  0.00  0.00    -0.187 OA
ATOM     46  C   UNL     1      -3.831   7.315  61.790  0.00  0.00    +0.062 C 
ATOM     47  C   UNL     1      -3.898   8.945  61.733  0.00  0.00    +0.006 C 
ATOM     48  C   UNL     1      -9.032   8.693  62.930  0.00  0.00    +0.031 C 
ATOM     49  C   UNL     1      -9.055   7.647  65.836  0.00  0.00    +0.108 C 
ENDROOT
BRANCH  35  50
ATOM     50  O   UNL     1      -6.951   4.762  70.874  0.00  0.00    -0.343 OA
ATOM     51  C   UNL     1      -6.086   5.242  69.916  0.00  0.00    +0.175 C 
ENDBRANCH  35  50
BRANCH   1  52
ATOM     52  C   UNL     1     -10.048   9.738  66.557  0.00  0.00    +0.041 C 
ATOM     53  C   UNL     1      -9.832   9.901  68.146  0.00  0.00    +0.004 C 
BRANCH  52  54
ATOM     54  C   UNL     1      -9.650  11.291  66.285  0.00  0.00    +0.004 C 
BRANCH  54  59
ATOM     55  C   UNL     1      -9.695  14.196  66.352  0.00  0.00    +0.142 C 
ATOM     56  C   UNL     1     -11.149  14.975  66.910  0.00  0.00    +0.142 C 
ATOM     57  C   UNL     1     -11.708  13.752  67.826  0.00  0.00    +0.032 C 
ATOM     58  C   UNL     1     -11.672  12.477  67.132  0.00  0.00    +0.003 C 
ATOM     59  C   UNL     1     -10.259  11.870  67.695  0.00  0.00    +0.003 C 
ATOM     60  C   UNL     1      -9.443  13.241  67.631  0.00  0.00    +0.032 C 
BRANCH  55  62
ATOM     61  C   UNL     1     -10.224  13.542  64.603  0.00  0.00    +0.174 C 
ATOM     62  O   UNL     1     -10.461  13.308  65.397  0.00  0.00    -0.351 OA
ENDBRANCH  55  62
BRANCH  56  63
ATOM     63  O   UNL     1     -10.385  15.560  68.074  0.00  0.00    -0.351 OA
BRANCH  63  64
ATOM     64  C   UNL     1     -11.044  16.711  68.452  0.00  0.00    +0.178 C 
BRANCH  64  65
ATOM     65  C   UNL     1     -10.215  17.883  68.003  0.00  0.00    +0.214 C 
ATOM     66  O   UNL     1     -11.040  18.898  67.552  0.00  0.00    -0.218 OA
ENDBRANCH  64  65
ENDBRANCH  63  64
ENDBRANCH  56  63
ENDBRANCH  54  59
ENDBRANCH  52  54
ENDBRANCH   1  52
BRANCH  20  67
ATOM     67  O   UNL     1      -5.132   3.506  62.690  0.00  0.00    -0.349 OA
ATOM     68  C   UNL     1      -5.472   2.389  61.903  0.00  0.00    +0.174 C 
ENDBRANCH  20  67
TORSDOF 9
ENDMDL
MODEL 6
REMARK VINA RESULT:      -5.6      6.733     10.376
REMARK  Name = 
REMARK  9 active torsions:
REMARK  status: ('A' for Active; 'I' for Inactive)
REMARK    1  A    between atoms: O_2  and  C_3
REMARK    2  A    between atoms: C_5  and  C_6
REMARK    3  A    between atoms: C_6  and  C_7
REMARK    4  A    between atoms: C_7  and  C_9
REMARK    5  A    between atoms: C_20  and  O_21
REMARK    6  A    between atoms: C_37  and  O_38
REMARK    7  A    between atoms: C_64  and  O_65
REMARK    8  A    between atoms: O_65  and  C_66
REMARK    9  A    between atoms: C_66  and  C_67
REMARK                            x       y       z     vdW  Elec       q    Type
REMARK                         _______ _______ _______ _____ _____    ______ ____
ROOT
ATOM      1  C   UNL     1      -8.048   6.028  65.655  0.00  0.00    +0.176 C 
ATOM      2  O   UNL     1      -8.118   5.337  64.308  0.00  0.00    -0.451 OA
ATOM      3  C   UNL     1      -7.601   4.213  64.161  0.00  0.00    +0.335 C 
ATOM      4  O   UNL     1      -6.449   3.668  64.139  0.00  0.00    -0.248 OA
ATOM      5  C   UNL     1      -8.813   3.216  64.593  0.00  0.00    +0.175 C 
ATOM      6  N   UNL     1      -8.525   2.278  63.363  0.00  0.00    -0.265 N 
ATOM      7  C   UNL     1      -7.970   2.751  62.168  0.00  0.00    +0.094 C 
ATOM      8  C   UNL     1      -8.701   3.899  61.603  0.00  0.00    +0.022 C 
ATOM      9  C   UNL     1      -9.655   4.453  62.535  0.00  0.00    +0.004 C 
ATOM     10  C   UNL     1      -9.545   1.288  63.342  0.00  0.00    +0.289 C 
ATOM     11  O   UNL     1      -9.729   0.649  62.256  0.00  0.00    -0.267 OA
ATOM     12  C   UNL     1      -9.535   0.464  64.569  0.00  0.00    +0.279 C 
ATOM     13  O   UNL     1     -10.240  -0.580  64.616  0.00  0.00    -0.281 OA
ATOM     14  C   UNL     1      -8.597   0.666  65.659  0.00  0.00    +0.279 C 
ATOM     15  O   UNL     1      -9.195   0.383  66.764  0.00  0.00    -0.329 OA
ATOM     16  C   UNL     1      -8.430   0.680  68.034  0.00  0.00    +0.121 C 
ATOM     17  C   UNL     1      -6.890   0.857  67.460  0.00  0.00    +0.030 C 
ATOM     18  C   UNL     1      -6.501  -0.212  66.619  0.00  0.00    +0.008 C 
ATOM     19  C   UNL     1      -8.094  -0.909  68.291  0.00  0.00    +0.063 C 
ATOM     20  C   UNL     1      -9.463  -1.531  68.959  0.00  0.00    +0.136 C 
ATOM     21  C   UNL     1      -9.160  -0.912  70.437  0.00  0.00    -0.017 C 
ATOM     22  C   UNL     1      -8.400  -2.058  71.060  0.00  0.00    +0.029 C 
ATOM     23  C   UNL     1      -8.751   0.260  70.534  0.00  0.00    -0.006 C 
ATOM     24  C   UNL     1      -9.315   1.474  71.058  0.00  0.00    -0.001 C 
ATOM     25  C   UNL     1     -10.189   1.258  72.043  0.00  0.00    -0.000 C 
ATOM     26  C   UNL     1      -9.578   1.580  73.345  0.00  0.00    -0.005 C 
ATOM     27  C   UNL     1      -9.493   2.887  73.548  0.00  0.00    -0.026 C 
ATOM     28  C   UNL     1     -10.984   3.483  73.631  0.00  0.00    +0.022 C 
ATOM     29  C   UNL     1     -10.891   4.158  72.145  0.00  0.00    +0.005 C 
ATOM     30  C   UNL     1     -10.564   4.863  74.396  0.00  0.00    +0.012 C 
ATOM     31  C   UNL     1      -9.144   5.264  73.702  0.00  0.00    +0.061 C 
ATOM     32  C   UNL     1      -8.467   5.594  75.156  0.00  0.00    +0.008 C 
ATOM     33  C   UNL     1      -9.480   6.817  73.414  0.00  0.00    +0.180 C 
ATOM     34  O   UNL     1     -10.481   7.263  73.830  0.00  0.00    -0.293 OA
ATOM     35  C   UNL     1      -9.182   6.850  71.826  0.00  0.00    +0.206 C 
ATOM     36  C   UNL     1      -9.142   8.567  71.664  0.00  0.00    +0.204 C 
ATOM     37  O   UNL     1     -10.556   8.765  72.158  0.00  0.00    -0.216 OA
ATOM     38  C   UNL     1      -9.693   8.525  70.145  0.00  0.00    -0.015 C 
ATOM     39  C   UNL     1      -9.800  10.001  69.806  0.00  0.00    +0.029 C 
ATOM     40  C   UNL     1      -9.219   7.823  69.249  0.00  0.00    -0.025 C 
ATOM     41  C   UNL     1      -9.542   6.310  68.840  0.00  0.00    +0.079 C 
ATOM     42  C   UNL     1     -11.126   6.359  69.276  0.00  0.00    +0.012 C 
ATOM     43  C   UNL     1      -9.824   6.679  67.296  0.00  0.00    +0.158 C 
ATOM     44  O   UNL     1     -10.695   7.431  67.041  0.00  0.00    -0.296 OA
ATOM     45  O   UNL     1      -7.704   1.513  65.695  0.00  0.00    -0.187 OA
ATOM     46  C   UNL     1      -7.642  -0.680  65.553  0.00  0.00    +0.062 C 
ATOM     47  C   UNL     1      -6.759  -0.166  64.280  0.00  0.00    +0.006 C 
ATOM     48  C   UNL     1     -10.049   3.929  63.762  0.00  0.00    +0.031 C 
ATOM     49  C   UNL     1      -9.510   5.624  66.287  0.00  0.00    +0.108 C 
ENDROOT
BRANCH  35  50
ATOM     50  O   UNL     1      -7.689   6.830  72.062  0.00  0.00    -0.343 OA
ATOM     51  C   UNL     1      -7.187   5.737  71.392  0.00  0.00    +0.175 C 
ENDBRANCH  35  50
BRANCH   1  52
ATOM     52  C   UNL     1      -8.700   7.423  64.879  0.00  0.00    +0.041 C 
ATOM     53  C   UNL     1      -7.861   8.433  65.814  0.00  0.00    +0.004 C 
BRANCH  52  54
ATOM     54  C   UNL     1      -7.584   7.499  63.698  0.00  0.00    +0.004 C 
BRANCH  54  59
ATOM     55  C   UNL     1      -5.802   8.467  61.616  0.00  0.00    +0.142 C 
ATOM     56  C   UNL     1      -6.519   9.168  60.192  0.00  0.00    +0.142 C 
ATOM     57  C   UNL     1      -7.926   9.629  60.867  0.00  0.00    +0.032 C 
ATOM     58  C   UNL     1      -8.533   8.574  61.660  0.00  0.00    +0.003 C 
ATOM     59  C   UNL     1      -8.013   8.988  63.156  0.00  0.00    +0.003 C 
ATOM     60  C   UNL     1      -6.532   9.395  62.719  0.00  0.00    +0.032 C 
BRANCH  55  62
ATOM     61  C   UNL     1      -6.175   6.577  61.380  0.00  0.00    +0.174 C 
ATOM     62  O   UNL     1      -6.693   7.246  61.540  0.00  0.00    -0.351 OA
ENDBRANCH  55  62
BRANCH  56  63
ATOM     63  O   UNL     1      -5.873  10.493  60.523  0.00  0.00    -0.351 OA
BRANCH  63  64
ATOM     64  C   UNL     1      -5.311  10.970  59.358  0.00  0.00    +0.178 C 
BRANCH  64  65
ATOM     65  C   UNL     1      -5.297  12.473  59.437  0.00  0.00    +0.214 C 
ATOM     66  O   UNL     1      -6.064  12.894  60.508  0.00  0.00    -0.218 OA
ENDBRANCH  64  65
ENDBRANCH  63  64
ENDBRANCH  56  63
ENDBRANCH  54  59
ENDBRANCH  52  54
ENDBRANCH   1  52
BRANCH  20  67
ATOM     67  O   UNL     1     -10.423  -0.402  68.587  0.00  0.00    -0.349 OA
ATOM     68  C   UNL     1     -11.628  -1.119  68.711  0.00  0.00    +0.174 C 
ENDBRANCH  20  67
TORSDOF 9
ENDMDL
MODEL 7
REMARK VINA RESULT:      -5.4      5.090      8.170
REMARK  Name = 
REMARK  9 active torsions:
REMARK  status: ('A' for Active; 'I' for Inactive)
REMARK    1  A    between atoms: O_2  and  C_3
REMARK    2  A    between atoms: C_5  and  C_6
REMARK    3  A    between atoms: C_6  and  C_7
REMARK    4  A    between atoms: C_7  and  C_9
REMARK    5  A    between atoms: C_20  and  O_21
REMARK    6  A    between atoms: C_37  and  O_38
REMARK    7  A    between atoms: C_64  and  O_65
REMARK    8  A    between atoms: O_65  and  C_66
REMARK    9  A    between atoms: C_66  and  C_67
REMARK                            x       y       z     vdW  Elec       q    Type
REMARK                         _______ _______ _______ _____ _____    ______ ____
ROOT
ATOM      1  C   UNL     1      -8.805   9.516  67.458  0.00  0.00    +0.176 C 
ATOM      2  O   UNL     1      -8.505   9.971  66.043  0.00  0.00    -0.451 OA
ATOM      3  C   UNL     1      -7.336   9.933  65.615  0.00  0.00    +0.335 C 
ATOM      4  O   UNL     1      -6.212  10.502  65.806  0.00  0.00    -0.248 OA
ATOM      5  C   UNL     1      -7.236   8.422  65.015  0.00  0.00    +0.175 C 
ATOM      6  N   UNL     1      -6.510   8.948  63.722  0.00  0.00    -0.265 N 
ATOM      7  C   UNL     1      -6.713  10.236  63.214  0.00  0.00    +0.094 C 
ATOM      8  C   UNL     1      -8.136  10.559  63.003  0.00  0.00    +0.022 C 
ATOM      9  C   UNL     1      -9.013   9.591  63.618  0.00  0.00    +0.004 C 
ATOM     10  C   UNL     1      -6.365   7.841  62.843  0.00  0.00    +0.289 C 
ATOM     11  O   UNL     1      -6.139   8.085  61.614  0.00  0.00    -0.267 OA
ATOM     12  C   UNL     1      -5.538   6.770  63.440  0.00  0.00    +0.279 C 
ATOM     13  O   UNL     1      -5.150   5.815  62.715  0.00  0.00    -0.281 OA
ATOM     14  C   UNL     1      -4.965   6.853  64.771  0.00  0.00    +0.279 C 
ATOM     15  O   UNL     1      -4.949   5.670  65.279  0.00  0.00    -0.329 OA
ATOM     16  C   UNL     1      -4.527   5.569  66.727  0.00  0.00    +0.121 C 
ATOM     17  C   UNL     1      -3.809   7.037  66.967  0.00  0.00    +0.030 C 
ATOM     18  C   UNL     1      -2.862   7.346  65.963  0.00  0.00    +0.008 C 
ATOM     19  C   UNL     1      -3.048   4.969  66.333  0.00  0.00    +0.063 C 
ATOM     20  C   UNL     1      -3.303   3.372  66.030  0.00  0.00    +0.136 C 
ATOM     21  C   UNL     1      -3.385   2.969  67.609  0.00  0.00    -0.017 C 
ATOM     22  C   UNL     1      -1.938   2.632  67.877  0.00  0.00    +0.029 C 
ATOM     23  C   UNL     1      -4.033   3.691  68.389  0.00  0.00    -0.006 C 
ATOM     24  C   UNL     1      -5.246   3.512  69.138  0.00  0.00    -0.001 C 
ATOM     25  C   UNL     1      -5.468   2.239  69.472  0.00  0.00    -0.000 C 
ATOM     26  C   UNL     1      -5.156   2.024  70.896  0.00  0.00    -0.005 C 
ATOM     27  C   UNL     1      -6.092   2.519  71.694  0.00  0.00    -0.026 C 
ATOM     28  C   UNL     1      -7.455   1.703  71.440  0.00  0.00    +0.022 C 
ATOM     29  C   UNL     1      -8.140   2.933  70.609  0.00  0.00    +0.005 C 
ATOM     30  C   UNL     1      -8.162   2.127  72.850  0.00  0.00    +0.012 C 
ATOM     31  C   UNL     1      -7.708   3.680  73.050  0.00  0.00    +0.061 C 
ATOM     32  C   UNL     1      -7.340   3.424  74.625  0.00  0.00    +0.008 C 
ATOM     33  C   UNL     1      -9.164   4.281  73.403  0.00  0.00    +0.180 C 
ATOM     34  O   UNL     1     -10.061   3.541  73.540  0.00  0.00    -0.293 OA
ATOM     35  C   UNL     1      -9.239   5.440  72.278  0.00  0.00    +0.206 C 
ATOM     36  C   UNL     1     -10.574   6.294  72.957  0.00  0.00    +0.204 C 
ATOM     37  O   UNL     1     -11.520   5.119  72.875  0.00  0.00    -0.216 OA
ATOM     38  C   UNL     1     -11.099   6.798  71.514  0.00  0.00    -0.015 C 
ATOM     39  C   UNL     1     -12.363   7.554  71.882  0.00  0.00    +0.029 C 
ATOM     40  C   UNL     1     -10.394   7.353  70.669  0.00  0.00    -0.025 C 
ATOM     41  C   UNL     1      -9.472   6.729  69.518  0.00  0.00    +0.079 C 
ATOM     42  C   UNL     1     -10.415   5.408  69.256  0.00  0.00    +0.012 C 
ATOM     43  C   UNL     1     -10.157   7.607  68.351  0.00  0.00    +0.158 C 
ATOM     44  O   UNL     1     -11.311   7.482  68.148  0.00  0.00    -0.296 OA
ATOM     45  O   UNL     1      -5.074   7.804  65.546  0.00  0.00    -0.187 OA
ATOM     46  C   UNL     1      -3.349   6.996  64.448  0.00  0.00    +0.062 C 
ATOM     47  C   UNL     1      -3.396   8.572  64.027  0.00  0.00    +0.006 C 
ATOM     48  C   UNL     1      -8.667   8.372  64.192  0.00  0.00    +0.031 C 
ATOM     49  C   UNL     1      -9.290   7.970  67.190  0.00  0.00    +0.108 C 
ENDROOT
BRANCH  35  50
ATOM     50  O   UNL     1      -8.277   6.313  73.052  0.00  0.00    -0.343 OA
ATOM     51  C   UNL     1      -7.226   6.603  72.210  0.00  0.00    +0.175 C 
ENDBRANCH  35  50
BRANCH   1  52
ATOM     52  C   UNL     1     -10.401  10.124  67.225  0.00  0.00    +0.041 C 
ATOM     53  C   UNL     1     -10.511  10.643  68.748  0.00  0.00    +0.004 C 
BRANCH  52  54
ATOM     54  C   UNL     1      -9.950  11.594  66.697  0.00  0.00    +0.004 C 
BRANCH  54  59
ATOM     55  C   UNL     1      -9.489  14.454  66.465  0.00  0.00    +0.142 C 
ATOM     56  C   UNL     1     -10.797  15.526  66.881  0.00  0.00    +0.142 C 
ATOM     57  C   UNL     1     -11.580  14.522  67.895  0.00  0.00    +0.032 C 
ATOM     58  C   UNL     1     -11.752  13.193  67.336  0.00  0.00    +0.003 C 
ATOM     59  C   UNL     1     -10.480  12.417  68.014  0.00  0.00    +0.003 C 
ATOM     60  C   UNL     1      -9.436  13.613  67.843  0.00  0.00    +0.032 C 
BRANCH  55  62
ATOM     61  C   UNL     1     -10.185  13.830  64.765  0.00  0.00    +0.174 C 
ATOM     62  O   UNL     1     -10.377  13.613  65.575  0.00  0.00    -0.351 OA
ENDBRANCH  55  62
BRANCH  56  63
ATOM     63  O   UNL     1      -9.969  16.094  68.010  0.00  0.00    -0.351 OA
BRANCH  63  64
ATOM     64  C   UNL     1     -10.561  17.279  68.389  0.00  0.00    +0.178 C 
BRANCH  64  65
ATOM     65  C   UNL     1     -10.407  18.253  67.253  0.00  0.00    +0.214 C 
ATOM     66  O   UNL     1     -10.941  19.479  67.609  0.00  0.00    -0.218 OA
ENDBRANCH  64  65
ENDBRANCH  63  64
ENDBRANCH  56  63
ENDBRANCH  54  59
ENDBRANCH  52  54
ENDBRANCH   1  52
BRANCH  20  67
ATOM     67  O   UNL     1      -4.821   3.416  65.873  0.00  0.00    -0.349 OA
ATOM     68  C   UNL     1      -4.991   2.170  65.242  0.00  0.00    +0.174 C 
ENDBRANCH  20  67
TORSDOF 9
ENDMDL
MODEL 8
REMARK VINA RESULT:      -5.3      5.508      9.073
REMARK  Name = 
REMARK  9 active torsions:
REMARK  status: ('A' for Active; 'I' for Inactive)
REMARK    1  A    between atoms: O_2  and  C_3
REMARK    2  A    between atoms: C_5  and  C_6
REMARK    3  A    between atoms: C_6  and  C_7
REMARK    4  A    between atoms: C_7  and  C_9
REMARK    5  A    between atoms: C_20  and  O_21
REMARK    6  A    between atoms: C_37  and  O_38
REMARK    7  A    between atoms: C_64  and  O_65
REMARK    8  A    between atoms: O_65  and  C_66
REMARK    9  A    between atoms: C_66  and  C_67
REMARK                            x       y       z     vdW  Elec       q    Type
REMARK                         _______ _______ _______ _____ _____    ______ ____
ROOT
ATOM      1  C   UNL     1      -8.104   8.048  67.903  0.00  0.00    +0.176 C 
ATOM      2  O   UNL     1      -7.729   8.283  66.453  0.00  0.00    -0.451 OA
ATOM      3  C   UNL     1      -6.560   8.079  66.074  0.00  0.00    +0.335 C 
ATOM      4  O   UNL     1      -5.390   8.561  66.230  0.00  0.00    -0.248 OA
ATOM      5  C   UNL     1      -6.594   6.500  65.679  0.00  0.00    +0.175 C 
ATOM      6  N   UNL     1      -5.790   6.781  64.355  0.00  0.00    -0.265 N 
ATOM      7  C   UNL     1      -5.855   8.004  63.678  0.00  0.00    +0.094 C 
ATOM      8  C   UNL     1      -7.234   8.428  63.377  0.00  0.00    +0.022 C 
ATOM      9  C   UNL     1      -8.216   7.636  64.080  0.00  0.00    +0.004 C 
ATOM     10  C   UNL     1      -5.733   5.559  63.632  0.00  0.00    +0.289 C 
ATOM     11  O   UNL     1      -5.456   5.617  62.390  0.00  0.00    -0.267 OA
ATOM     12  C   UNL     1      -5.029   4.504  64.391  0.00  0.00    +0.279 C 
ATOM     13  O   UNL     1      -4.719   3.429  63.809  0.00  0.00    -0.281 OA
ATOM     14  C   UNL     1      -4.481   4.707  65.720  0.00  0.00    +0.279 C 
ATOM     15  O   UNL     1      -4.592   3.605  66.376  0.00  0.00    -0.329 OA
ATOM     16  C   UNL     1      -4.215   3.656  67.840  0.00  0.00    +0.121 C 
ATOM     17  C   UNL     1      -3.363   5.070  67.913  0.00  0.00    +0.030 C 
ATOM     18  C   UNL     1      -2.367   5.154  66.912  0.00  0.00    +0.008 C 
ATOM     19  C   UNL     1      -2.793   2.875  67.579  0.00  0.00    +0.063 C 
ATOM     20  C   UNL     1      -3.195   1.283  67.475  0.00  0.00    +0.136 C 
ATOM     21  C   UNL     1      -3.352   1.100  69.089  0.00  0.00    -0.017 C 
ATOM     22  C   UNL     1      -1.951   0.668  69.450  0.00  0.00    +0.029 C 
ATOM     23  C   UNL     1      -3.945   1.976  69.745  0.00  0.00    -0.006 C 
ATOM     24  C   UNL     1      -5.186   2.011  70.468  0.00  0.00    -0.001 C 
ATOM     25  C   UNL     1      -5.539   0.820  70.955  0.00  0.00    -0.000 C 
ATOM     26  C   UNL     1      -5.282   0.766  72.405  0.00  0.00    -0.005 C 
ATOM     27  C   UNL     1      -6.184   1.448  73.099  0.00  0.00    -0.026 C 
ATOM     28  C   UNL     1      -7.613   0.736  72.904  0.00  0.00    +0.022 C 
ATOM     29  C   UNL     1      -8.155   1.905  71.898  0.00  0.00    +0.005 C 
ATOM     30  C   UNL     1      -8.307   1.406  74.222  0.00  0.00    +0.012 C 
ATOM     31  C   UNL     1      -7.709   2.922  74.235  0.00  0.00    +0.061 C 
ATOM     32  C   UNL     1      -7.404   2.843  75.842  0.00  0.00    +0.008 C 
ATOM     33  C   UNL     1      -9.107   3.699  74.457  0.00  0.00    +0.180 C 
ATOM     34  O   UNL     1     -10.076   3.070  74.656  0.00  0.00    -0.293 OA
ATOM     35  C   UNL     1      -9.043   4.701  73.190  0.00  0.00    +0.206 C 
ATOM     36  C   UNL     1     -10.305   5.758  73.705  0.00  0.00    +0.204 C 
ATOM     37  O   UNL     1     -11.358   4.676  73.742  0.00  0.00    -0.216 OA
ATOM     38  C   UNL     1     -10.745   6.115  72.191  0.00  0.00    -0.015 C 
ATOM     39  C   UNL     1     -11.937   7.028  72.414  0.00  0.00    +0.029 C 
ATOM     40  C   UNL     1      -9.969   6.485  71.307  0.00  0.00    -0.025 C 
ATOM     41  C   UNL     1      -9.086   5.632  70.280  0.00  0.00    +0.079 C 
ATOM     42  C   UNL     1     -10.147   4.382  70.157  0.00  0.00    +0.012 C 
ATOM     43  C   UNL     1      -9.656   6.409  68.986  0.00  0.00    +0.158 C 
ATOM     44  O   UNL     1     -10.811   6.366  68.760  0.00  0.00    -0.296 OA
ATOM     45  O   UNL     1      -4.514   5.757  66.361  0.00  0.00    -0.187 OA
ATOM     46  C   UNL     1      -2.852   4.655  65.439  0.00  0.00    +0.062 C 
ATOM     47  C   UNL     1      -2.735   6.159  64.816  0.00  0.00    +0.006 C 
ATOM     48  C   UNL     1      -8.003   6.476  64.819  0.00  0.00    +0.031 C 
ATOM     49  C   UNL     1      -8.731   6.533  67.819  0.00  0.00    +0.108 C 
ENDROOT
BRANCH  35  50
ATOM     50  O   UNL     1      -8.019   5.575  73.878  0.00  0.00    -0.343 OA
ATOM     51  C   UNL     1      -6.934   5.669  73.035  0.00  0.00    +0.175 C 
ENDBRANCH  35  50
BRANCH   1  52
ATOM     52  C   UNL     1      -9.628   8.767  67.537  0.00  0.00    +0.041 C 
ATOM     53  C   UNL     1      -9.744   9.451  68.992  0.00  0.00    +0.004 C 
BRANCH  52  54
ATOM     54  C   UNL     1      -9.024  10.127  66.882  0.00  0.00    +0.004 C 
BRANCH  54  59
ATOM     55  C   UNL     1     -10.186  12.790  66.813  0.00  0.00    +0.142 C 
ATOM     56  C   UNL     1     -10.359  13.563  65.262  0.00  0.00    +0.142 C 
ATOM     57  C   UNL     1     -10.417  12.212  64.356  0.00  0.00    +0.032 C 
ATOM     58  C   UNL     1      -9.363  11.272  64.694  0.00  0.00    +0.003 C 
ATOM     59  C   UNL     1     -10.168  10.275  65.715  0.00  0.00    +0.003 C 
ATOM     60  C   UNL     1     -10.977  11.422  66.476  0.00  0.00    +0.032 C 
BRANCH  55  62
ATOM     61  C   UNL     1      -8.273  12.863  67.127  0.00  0.00    +0.174 C 
ATOM     62  O   UNL     1      -8.740  12.434  66.546  0.00  0.00    -0.351 OA
ENDBRANCH  55  62
BRANCH  56  63
ATOM     63  O   UNL     1     -11.860  13.567  65.435  0.00  0.00    -0.351 OA
BRANCH  63  64
ATOM     64  C   UNL     1     -12.349  14.621  64.692  0.00  0.00    +0.178 C 
BRANCH  64  65
ATOM     65  C   UNL     1     -11.201  15.546  64.396  0.00  0.00    +0.214 C 
ATOM     66  O   UNL     1     -11.682  16.787  64.019  0.00  0.00    -0.218 OA
ENDBRANCH  64  65
ENDBRANCH  63  64
ENDBRANCH  56  63
ENDBRANCH  54  59
ENDBRANCH  52  54
ENDBRANCH   1  52
BRANCH  20  67
ATOM     67  O   UNL     1      -4.698   1.447  67.260  0.00  0.00    -0.349 OA
ATOM     68  C   UNL     1      -4.974   0.150  66.789  0.00  0.00    +0.174 C 
ENDBRANCH  20  67
TORSDOF 9
ENDMDL
MODEL 9
REMARK VINA RESULT:      -5.2      6.099     10.618
REMARK  Name = 
REMARK  9 active torsions:
REMARK  status: ('A' for Active; 'I' for Inactive)
REMARK    1  A    between atoms: O_2  and  C_3
REMARK    2  A    between atoms: C_5  and  C_6
REMARK    3  A    between atoms: C_6  and  C_7
REMARK    4  A    between atoms: C_7  and  C_9
REMARK    5  A    between atoms: C_20  and  O_21
REMARK    6  A    between atoms: C_37  and  O_38
REMARK    7  A    between atoms: C_64  and  O_65
REMARK    8  A    between atoms: O_65  and  C_66
REMARK    9  A    between atoms: C_66  and  C_67
REMARK                            x       y       z     vdW  Elec       q    Type
REMARK                         _______ _______ _______ _____ _____    ______ ____
ROOT
ATOM      1  C   UNL     1      -8.756   6.786  68.194  0.00  0.00    +0.176 C 
ATOM      2  O   UNL     1      -9.268   7.407  69.478  0.00  0.00    -0.451 OA
ATOM      3  C   UNL     1      -9.894   6.708  70.298  0.00  0.00    +0.335 C 
ATOM      4  O   UNL     1     -11.007   6.096  70.403  0.00  0.00    -0.248 OA
ATOM      5  C   UNL     1      -8.697   6.099  71.218  0.00  0.00    +0.175 C 
ATOM      6  N   UNL     1      -9.513   6.390  72.531  0.00  0.00    -0.265 N 
ATOM      7  C   UNL     1     -10.444   7.432  72.625  0.00  0.00    +0.094 C 
ATOM      8  C   UNL     1      -9.893   8.740  72.227  0.00  0.00    +0.022 C 
ATOM      9  C   UNL     1      -8.611   8.617  71.574  0.00  0.00    +0.004 C 
ATOM     10  C   UNL     1      -8.667   6.078  73.629  0.00  0.00    +0.289 C 
ATOM     11  O   UNL     1      -8.969   6.563  74.768  0.00  0.00    -0.267 OA
ATOM     12  C   UNL     1      -8.273   4.653  73.631  0.00  0.00    +0.279 C 
ATOM     13  O   UNL     1      -7.695   4.175  74.644  0.00  0.00    -0.281 OA
ATOM     14  C   UNL     1      -8.699   3.706  72.617  0.00  0.00    +0.279 C 
ATOM     15  O   UNL     1      -7.748   2.857  72.431  0.00  0.00    -0.329 OA
ATOM     16  C   UNL     1      -7.939   1.876  71.297  0.00  0.00    +0.121 C 
ATOM     17  C   UNL     1      -9.560   2.014  71.008  0.00  0.00    +0.030 C 
ATOM     18  C   UNL     1     -10.330   1.905  72.189  0.00  0.00    +0.008 C 
ATOM     19  C   UNL     1      -8.281   0.640  72.325  0.00  0.00    +0.063 C 
ATOM     20  C   UNL     1      -6.818   0.120  72.868  0.00  0.00    +0.136 C 
ATOM     21  C   UNL     1      -6.476  -0.705  71.503  0.00  0.00    -0.017 C 
ATOM     22  C   UNL     1      -7.031  -2.062  71.861  0.00  0.00    +0.029 C 
ATOM     23  C   UNL     1      -6.716  -0.181  70.400  0.00  0.00    -0.006 C 
ATOM     24  C   UNL     1      -5.895   0.300  69.323  0.00  0.00    -0.001 C 
ATOM     25  C   UNL     1      -4.731  -0.346  69.229  0.00  0.00    -0.000 C 
ATOM     26  C   UNL     1      -4.764  -1.296  68.103  0.00  0.00    -0.005 C 
ATOM     27  C   UNL     1      -4.655  -0.686  66.931  0.00  0.00    -0.026 C 
ATOM     28  C   UNL     1      -3.202  -0.002  66.852  0.00  0.00    +0.022 C 
ATOM     29  C   UNL     1      -3.802   1.502  67.076  0.00  0.00    +0.005 C 
ATOM     30  C   UNL     1      -3.179   0.140  65.225  0.00  0.00    +0.012 C 
ATOM     31  C   UNL     1      -4.717   0.534  64.857  0.00  0.00    +0.061 C 
ATOM     32  C   UNL     1      -4.753  -0.543  63.624  0.00  0.00    +0.008 C 
ATOM     33  C   UNL     1      -4.389   1.772  63.874  0.00  0.00    +0.180 C 
ATOM     34  O   UNL     1      -3.272   1.987  63.593  0.00  0.00    -0.293 OA
ATOM     35  C   UNL     1      -5.271   2.914  64.602  0.00  0.00    +0.206 C 
ATOM     36  C   UNL     1      -5.226   4.057  63.311  0.00  0.00    +0.204 C 
ATOM     37  O   UNL     1      -3.720   4.173  63.308  0.00  0.00    -0.216 OA
ATOM     38  C   UNL     1      -5.308   5.324  64.311  0.00  0.00    -0.015 C 
ATOM     39  C   UNL     1      -5.216   6.494  63.349  0.00  0.00    +0.029 C 
ATOM     40  C   UNL     1      -6.147   5.455  65.205  0.00  0.00    -0.025 C 
ATOM     41  C   UNL     1      -6.134   4.939  66.720  0.00  0.00    +0.079 C 
ATOM     42  C   UNL     1      -4.506   5.054  66.916  0.00  0.00    +0.012 C 
ATOM     43  C   UNL     1      -6.438   6.402  67.328  0.00  0.00    +0.158 C 
ATOM     44  O   UNL     1      -5.672   7.274  67.123  0.00  0.00    -0.296 OA
ATOM     45  O   UNL     1      -9.435   3.954  71.661  0.00  0.00    -0.187 OA
ATOM     46  C   UNL     1      -9.731   2.728  73.461  0.00  0.00    +0.062 C 
ATOM     47  C   UNL     1     -10.989   3.768  73.468  0.00  0.00    +0.006 C 
ATOM     48  C   UNL     1      -7.821   7.478  71.455  0.00  0.00    +0.031 C 
ATOM     49  C   UNL     1      -7.204   6.448  68.610  0.00  0.00    +0.108 C 
ENDROOT
BRANCH  35  50
ATOM     50  O   UNL     1      -6.555   2.333  64.052  0.00  0.00    -0.343 OA
ATOM     51  C   UNL     1      -7.373   2.070  65.128  0.00  0.00    +0.175 C 
ENDBRANCH  35  50
BRANCH   1  52
ATOM     52  C   UNL     1      -8.339   8.381  67.688  0.00  0.00    +0.041 C 
ATOM     53  C   UNL     1      -8.696   8.072  66.147  0.00  0.00    +0.004 C 
BRANCH  52  54
ATOM     54  C   UNL     1      -9.803   9.035  67.956  0.00  0.00    +0.004 C 
BRANCH  54  59
ATOM     55  C   UNL     1     -11.922  11.007  68.215  0.00  0.00    +0.142 C 
ATOM     56  C   UNL     1     -11.470  12.688  68.245  0.00  0.00    +0.142 C 
ATOM     57  C   UNL     1     -10.065  12.546  67.436  0.00  0.00    +0.032 C 
ATOM     58  C   UNL     1      -9.241  11.463  67.942  0.00  0.00    +0.003 C 
ATOM     59  C   UNL     1      -9.634  10.271  66.890  0.00  0.00    +0.003 C 
ATOM     60  C   UNL     1     -11.196  10.601  66.830  0.00  0.00    +0.032 C 
BRANCH  55  62
ATOM     61  C   UNL     1     -11.339  10.453  69.981  0.00  0.00    +0.174 C 
ATOM     62  O   UNL     1     -10.897  10.647  69.268  0.00  0.00    -0.351 OA
ENDBRANCH  55  62
BRANCH  56  63
ATOM     63  O   UNL     1     -12.238  12.916  66.965  0.00  0.00    -0.351 OA
BRANCH  63  64
ATOM     64  C   UNL     1     -11.910  14.177  66.515  0.00  0.00    +0.178 C 
BRANCH  64  65
ATOM     65  C   UNL     1     -12.329  14.273  65.073  0.00  0.00    +0.214 C 
ATOM     66  O   UNL     1     -13.068  13.158  64.723  0.00  0.00    -0.218 OA
ENDBRANCH  64  65
ENDBRANCH  63  64
ENDBRANCH  56  63
ENDBRANCH  54  59
ENDBRANCH  52  54
ENDBRANCH   1  52
BRANCH  20  67
ATOM     67  O   UNL     1      -5.984   1.329  72.451  0.00  0.00    -0.349 OA
ATOM     68  C   UNL     1      -4.810   1.015  73.160  0.00  0.00    +0.174 C 
ENDBRANCH  20  67
TORSDOF 9
ENDMDL
