MODEL 1
REMARK VINA RESULT:      -7.0      0.000      0.000
REMARK  Name = 
REMARK  15 active torsions:
REMARK  status: ('A' for Active; 'I' for Inactive)
REMARK    1  A    between atoms: C_2  and  C_5
REMARK    2  A    between atoms: C_5  and  O_7
REMARK    3  A    between atoms: O_7  and  C_8
REMARK    4  A    between atoms: C_8  and  O_9
REMARK    5  A    between atoms: O_9  and  P_10
REMARK    6  A    between atoms: P_10  and  C_12
REMARK    7  A    between atoms: P_10  and  O_26
REMARK    8  A    between atoms: C_12  and  O_13
REMARK    9  A    between atoms: O_13  and  C_14
REMARK   10  A    between atoms: C_14  and  C_15
REMARK   11  A    between atoms: C_15  and  N_16
REMARK   12  A    between atoms: O_26  and  C_27
REMARK   13  A    between atoms: C_27  and  O_28
REMARK   14  A    between atoms: O_28  and  C_29
REMARK   15  A    between atoms: C_29  and  C_31
REMARK                            x       y       z     vdW  Elec       q    Type
REMARK                         _______ _______ _______ _____ _____    ______ ____
ROOT
ATOM      1  P   UNL     1     -11.538  12.971  66.335  0.00  0.00    +0.378 P 
ATOM      2  O   UNL     1     -12.684  12.503  65.470  0.00  0.00    -0.255 OA
ENDROOT
BRANCH   1   3
ATOM      3  O   UNL     1     -12.018  12.712  67.947  0.00  0.00    -0.250 OA
BRANCH   3   4
ATOM      4  C   UNL     1     -11.858  13.905  68.658  0.00  0.00    +0.369 C 
BRANCH   4   5
ATOM      5  O   UNL     1     -12.270  13.675  69.983  0.00  0.00    -0.419 OA
BRANCH   5   6
ATOM      6  C   UNL     1     -12.574  14.742  70.805  0.00  0.00    +0.318 C 
ATOM      7  O   UNL     1     -12.568  15.895  70.280  0.00  0.00    -0.250 OA
BRANCH   6   8
ATOM      8  C   UNL     1     -13.486  14.524  71.969  0.00  0.00    +0.090 C 
ATOM      9  C   UNL     1     -14.860  15.002  71.571  0.00  0.00    +0.011 C 
ATOM     10  C   UNL     1     -13.532  13.039  72.245  0.00  0.00    +0.011 C 
ATOM     11  C   UNL     1     -12.969  15.255  73.200  0.00  0.00    +0.011 C 
ENDBRANCH   6   8
ENDBRANCH   5   6
ENDBRANCH   4   5
ENDBRANCH   3   4
ENDBRANCH   1   3
BRANCH   1  12
ATOM     12  O   UNL     1     -11.130  14.576  66.061  0.00  0.00    -0.250 OA
BRANCH  12  13
ATOM     13  C   UNL     1      -9.756  14.788  66.009  0.00  0.00    +0.369 C 
BRANCH  13  14
ATOM     14  O   UNL     1      -9.515  16.076  65.448  0.00  0.00    -0.419 OA
BRANCH  14  15
ATOM     15  C   UNL     1     -10.360  17.159  65.713  0.00  0.00    +0.318 C 
ATOM     16  O   UNL     1     -11.067  17.533  64.728  0.00  0.00    -0.250 OA
BRANCH  15  18
ATOM     17  C   UNL     1      -8.404  18.310  66.524  0.00  0.00    +0.011 C 
ATOM     18  C   UNL     1      -9.921  18.266  66.621  0.00  0.00    +0.090 C 
ATOM     19  C   UNL     1     -10.480  19.599  66.198  0.00  0.00    +0.011 C 
ATOM     20  C   UNL     1     -10.382  17.865  68.010  0.00  0.00    +0.011 C 
ENDBRANCH  15  18
ENDBRANCH  14  15
ENDBRANCH  13  14
ENDBRANCH  12  13
ENDBRANCH   1  12
BRANCH   1  21
ATOM     21  C   UNL     1     -10.053  11.979  65.965  0.00  0.00    +0.258 C 
BRANCH  21  22
ATOM     22  O   UNL     1     -10.474  10.642  66.034  0.00  0.00    -0.340 OA
BRANCH  22  23
ATOM     23  C   UNL     1      -9.681   9.960  66.964  0.00  0.00    +0.167 C 
BRANCH  23  24
ATOM     24  C   UNL     1     -10.428   8.828  67.611  0.00  0.00    +0.141 C 
BRANCH  24  25
ATOM     25  N   UNL     1     -10.493   9.064  69.050  0.00  0.00    -0.292 N 
ATOM     26  C   UNL     1     -11.017   8.210  69.962  0.00  0.00    +0.167 A 
ATOM     27  N   UNL     1     -11.151   6.878  69.978  0.00  0.00    -0.205 NA
ATOM     28  C   UNL     1     -11.524   6.260  71.125  0.00  0.00    +0.202 A 
ATOM     29  N   UNL     1     -12.361   6.954  71.926  0.00  0.00    -0.204 NA
ATOM     30  C   UNL     1     -12.429   8.300  71.917  0.00  0.00    +0.192 A 
ATOM     31  N   UNL     1     -13.562   9.018  72.414  0.00  0.00    -0.105 NA
ATOM     32  C   UNL     1     -11.713   8.937  70.914  0.00  0.00    +0.152 A 
ATOM     33  N   UNL     1     -11.258  10.197  70.779  0.00  0.00    -0.219 NA
ATOM     34  C   UNL     1     -10.433  10.249  69.704  0.00  0.00    +0.180 A 
ENDBRANCH  24  25
ENDBRANCH  23  24
ENDBRANCH  22  23
ENDBRANCH  21  22
ENDBRANCH   1  21
TORSDOF 15
ENDMDL
MODEL 2
REMARK VINA RESULT:      -6.9      5.051      8.153
REMARK  Name = 
REMARK  15 active torsions:
REMARK  status: ('A' for Active; 'I' for Inactive)
REMARK    1  A    between atoms: C_2  and  C_5
REMARK    2  A    between atoms: C_5  and  O_7
REMARK    3  A    between atoms: O_7  and  C_8
REMARK    4  A    between atoms: C_8  and  O_9
REMARK    5  A    between atoms: O_9  and  P_10
REMARK    6  A    between atoms: P_10  and  C_12
REMARK    7  A    between atoms: P_10  and  O_26
REMARK    8  A    between atoms: C_12  and  O_13
REMARK    9  A    between atoms: O_13  and  C_14
REMARK   10  A    between atoms: C_14  and  C_15
REMARK   11  A    between atoms: C_15  and  N_16
REMARK   12  A    between atoms: O_26  and  C_27
REMARK   13  A    between atoms: C_27  and  O_28
REMARK   14  A    between atoms: O_28  and  C_29
REMARK   15  A    between atoms: C_29  and  C_31
REMARK                            x       y       z     vdW  Elec       q    Type
REMARK                         _______ _______ _______ _____ _____    ______ ____
ROOT
ATOM      1  P   UNL     1     -10.360  16.394  67.740  0.00  0.00    +0.378 P 
ATOM      2  O   UNL     1      -9.147  15.577  68.120  0.00  0.00    -0.255 OA
ENDROOT
BRANCH   1   3
ATOM      3  O   UNL     1     -11.705  15.583  68.394  0.00  0.00    -0.250 OA
BRANCH   3   4
ATOM      4  C   UNL     1     -11.248  14.520  69.179  0.00  0.00    +0.369 C 
BRANCH   4   5
ATOM      5  O   UNL     1     -12.214  14.271  70.171  0.00  0.00    -0.419 OA
BRANCH   5   6
ATOM      6  C   UNL     1     -12.132  14.919  71.387  0.00  0.00    +0.318 C 
ATOM      7  O   UNL     1     -11.578  16.058  71.400  0.00  0.00    -0.250 OA
BRANCH   6   8
ATOM      8  C   UNL     1     -13.181  14.656  72.419  0.00  0.00    +0.090 C 
ATOM      9  C   UNL     1     -12.616  15.055  73.760  0.00  0.00    +0.011 C 
ATOM     10  C   UNL     1     -14.372  15.528  72.097  0.00  0.00    +0.011 C 
ATOM     11  C   UNL     1     -13.601  13.192  72.398  0.00  0.00    +0.011 C 
ENDBRANCH   6   8
ENDBRANCH   5   6
ENDBRANCH   4   5
ENDBRANCH   3   4
ENDBRANCH   1   3
BRANCH   1  12
ATOM     12  O   UNL     1     -10.508  16.603  66.081  0.00  0.00    -0.250 OA
BRANCH  12  13
ATOM     13  C   UNL     1     -10.082  15.499  65.352  0.00  0.00    +0.369 C 
BRANCH  13  14
ATOM     14  O   UNL     1     -11.078  14.482  65.443  0.00  0.00    -0.419 OA
BRANCH  14  15
ATOM     15  C   UNL     1     -11.536  13.805  64.307  0.00  0.00    +0.318 C 
ATOM     16  O   UNL     1     -12.597  14.282  63.799  0.00  0.00    -0.250 OA
BRANCH  15  18
ATOM     17  C   UNL     1     -12.626  11.847  63.419  0.00  0.00    +0.011 C 
ATOM     18  C   UNL     1     -11.409  12.316  64.202  0.00  0.00    +0.090 C 
ATOM     19  C   UNL     1     -10.162  11.906  63.464  0.00  0.00    +0.011 C 
ATOM     20  C   UNL     1     -11.428  11.800  65.628  0.00  0.00    +0.011 C 
ENDBRANCH  15  18
ENDBRANCH  14  15
ENDBRANCH  13  14
ENDBRANCH  12  13
ENDBRANCH   1  12
BRANCH   1  21
ATOM     21  C   UNL     1     -10.223  18.058  68.472  0.00  0.00    +0.258 C 
BRANCH  21  22
ATOM     22  O   UNL     1     -10.482  18.949  67.419  0.00  0.00    -0.340 OA
BRANCH  22  23
ATOM     23  C   UNL     1      -9.481  19.925  67.388  0.00  0.00    +0.167 C 
BRANCH  23  24
ATOM     24  C   UNL     1      -8.331  19.519  66.509  0.00  0.00    +0.141 C 
BRANCH  24  25
ATOM     25  N   UNL     1      -7.079  19.835  67.189  0.00  0.00    -0.292 N 
ATOM     26  C   UNL     1      -6.570  19.160  68.248  0.00  0.00    +0.167 A 
ATOM     27  N   UNL     1      -6.696  17.891  68.654  0.00  0.00    -0.205 NA
ATOM     28  C   UNL     1      -5.896  17.425  69.644  0.00  0.00    +0.202 A 
ATOM     29  N   UNL     1      -5.540  18.321  70.589  0.00  0.00    -0.204 NA
ATOM     30  C   UNL     1      -5.502  19.648  70.356  0.00  0.00    +0.192 A 
ATOM     31  N   UNL     1      -5.552  20.617  71.408  0.00  0.00    -0.105 NA
ATOM     32  C   UNL     1      -6.014  20.066  69.137  0.00  0.00    +0.152 A 
ATOM     33  N   UNL     1      -5.847  21.190  68.415  0.00  0.00    -0.219 NA
ATOM     34  C   UNL     1      -6.406  21.010  67.193  0.00  0.00    +0.180 A 
ENDBRANCH  24  25
ENDBRANCH  23  24
ENDBRANCH  22  23
ENDBRANCH  21  22
ENDBRANCH   1  21
TORSDOF 15
ENDMDL
MODEL 3
REMARK VINA RESULT:      -6.9      3.967      8.272
REMARK  Name = 
REMARK  15 active torsions:
REMARK  status: ('A' for Active; 'I' for Inactive)
REMARK    1  A    between atoms: C_2  and  C_5
REMARK    2  A    between atoms: C_5  and  O_7
REMARK    3  A    between atoms: O_7  and  C_8
REMARK    4  A    between atoms: C_8  and  O_9
REMARK    5  A    between atoms: O_9  and  P_10
REMARK    6  A    between atoms: P_10  and  C_12
REMARK    7  A    between atoms: P_10  and  O_26
REMARK    8  A    between atoms: C_12  and  O_13
REMARK    9  A    between atoms: O_13  and  C_14
REMARK   10  A    between atoms: C_14  and  C_15
REMARK   11  A    between atoms: C_15  and  N_16
REMARK   12  A    between atoms: O_26  and  C_27
REMARK   13  A    between atoms: C_27  and  O_28
REMARK   14  A    between atoms: O_28  and  C_29
REMARK   15  A    between atoms: C_29  and  C_31
REMARK                            x       y       z     vdW  Elec       q    Type
REMARK                         _______ _______ _______ _____ _____    ______ ____
ROOT
ATOM      1  P   UNL     1     -11.207  12.245  67.557  0.00  0.00    +0.378 P 
ATOM      2  O   UNL     1      -9.856  12.383  68.218  0.00  0.00    -0.255 OA
ENDROOT
BRANCH   1   3
ATOM      3  O   UNL     1     -12.028  13.709  67.840  0.00  0.00    -0.250 OA
BRANCH   3   4
ATOM      4  C   UNL     1     -11.482  14.314  68.977  0.00  0.00    +0.369 C 
BRANCH   4   5
ATOM      5  O   UNL     1     -12.547  14.806  69.755  0.00  0.00    -0.419 OA
BRANCH   5   6
ATOM      6  C   UNL     1     -12.338  15.128  71.081  0.00  0.00    +0.318 C 
ATOM      7  O   UNL     1     -11.723  16.209  71.323  0.00  0.00    -0.250 OA
BRANCH   6   8
ATOM      8  C   UNL     1     -13.318  14.653  72.104  0.00  0.00    +0.090 C 
ATOM      9  C   UNL     1     -12.888  15.203  73.441  0.00  0.00    +0.011 C 
ATOM     10  C   UNL     1     -14.671  15.217  71.742  0.00  0.00    +0.011 C 
ATOM     11  C   UNL     1     -13.387  13.132  72.116  0.00  0.00    +0.011 C 
ENDBRANCH   6   8
ENDBRANCH   5   6
ENDBRANCH   4   5
ENDBRANCH   3   4
ENDBRANCH   1   3
BRANCH   1  12
ATOM     12  O   UNL     1     -12.077  10.927  68.125  0.00  0.00    -0.250 OA
BRANCH  12  13
ATOM     13  C   UNL     1     -12.008  10.783  69.507  0.00  0.00    +0.369 C 
BRANCH  13  14
ATOM     14  O   UNL     1     -11.383   9.537  69.804  0.00  0.00    -0.419 OA
BRANCH  14  15
ATOM     15  C   UNL     1     -11.045   9.182  71.115  0.00  0.00    +0.318 C 
ATOM     16  O   UNL     1      -9.800   9.176  71.358  0.00  0.00    -0.250 OA
BRANCH  15  18
ATOM     17  C   UNL     1     -13.077   8.839  72.366  0.00  0.00    +0.011 C 
ATOM     18  C   UNL     1     -11.828   8.139  71.850  0.00  0.00    +0.090 C 
ATOM     19  C   UNL     1     -12.238   7.002  70.953  0.00  0.00    +0.011 C 
ATOM     20  C   UNL     1     -10.934   7.680  72.987  0.00  0.00    +0.011 C 
ENDBRANCH  15  18
ENDBRANCH  14  15
ENDBRANCH  13  14
ENDBRANCH  12  13
ENDBRANCH   1  12
BRANCH   1  21
ATOM     21  C   UNL     1     -10.984  11.997  65.765  0.00  0.00    +0.258 C 
BRANCH  21  22
ATOM     22  O   UNL     1     -11.559  13.126  65.160  0.00  0.00    -0.340 OA
BRANCH  22  23
ATOM     23  C   UNL     1     -10.540  13.984  64.730  0.00  0.00    +0.167 C 
BRANCH  23  24
ATOM     24  C   UNL     1     -10.878  15.425  64.988  0.00  0.00    +0.141 C 
BRANCH  24  25
ATOM     25  N   UNL     1      -9.902  15.981  65.921  0.00  0.00    -0.292 N 
ATOM     26  C   UNL     1      -9.633  17.299  66.082  0.00  0.00    +0.167 A 
ATOM     27  N   UNL     1     -10.372  18.400  65.895  0.00  0.00    -0.205 NA
ATOM     28  C   UNL     1      -9.912  19.594  66.341  0.00  0.00    +0.202 A 
ATOM     29  N   UNL     1      -8.572  19.762  66.310  0.00  0.00    -0.204 NA
ATOM     30  C   UNL     1      -7.708  18.729  66.353  0.00  0.00    +0.192 A 
ATOM     31  N   UNL     1      -6.355  18.837  65.900  0.00  0.00    -0.105 NA
ATOM     32  C   UNL     1      -8.268  17.464  66.257  0.00  0.00    +0.152 A 
ATOM     33  N   UNL     1      -7.820  16.241  66.596  0.00  0.00    -0.219 NA
ATOM     34  C   UNL     1      -8.843  15.356  66.489  0.00  0.00    +0.180 A 
ENDBRANCH  24  25
ENDBRANCH  23  24
ENDBRANCH  22  23
ENDBRANCH  21  22
ENDBRANCH   1  21
TORSDOF 15
ENDMDL
MODEL 4
REMARK VINA RESULT:      -6.9      2.999      4.237
REMARK  Name = 
REMARK  15 active torsions:
REMARK  status: ('A' for Active; 'I' for Inactive)
REMARK    1  A    between atoms: C_2  and  C_5
REMARK    2  A    between atoms: C_5  and  O_7
REMARK    3  A    between atoms: O_7  and  C_8
REMARK    4  A    between atoms: C_8  and  O_9
REMARK    5  A    between atoms: O_9  and  P_10
REMARK    6  A    between atoms: P_10  and  C_12
REMARK    7  A    between atoms: P_10  and  O_26
REMARK    8  A    between atoms: C_12  and  O_13
REMARK    9  A    between atoms: O_13  and  C_14
REMARK   10  A    between atoms: C_14  and  C_15
REMARK   11  A    between atoms: C_15  and  N_16
REMARK   12  A    between atoms: O_26  and  C_27
REMARK   13  A    between atoms: C_27  and  O_28
REMARK   14  A    between atoms: O_28  and  C_29
REMARK   15  A    between atoms: C_29  and  C_31
REMARK                            x       y       z     vdW  Elec       q    Type
REMARK                         _______ _______ _______ _____ _____    ______ ____
ROOT
ATOM      1  P   UNL     1      -9.260  14.576  67.465  0.00  0.00    +0.378 P 
ATOM      2  O   UNL     1      -9.437  14.374  65.978  0.00  0.00    -0.255 OA
ENDROOT
BRANCH   1   3
ATOM      3  O   UNL     1     -10.827  14.658  68.125  0.00  0.00    -0.250 OA
BRANCH   3   4
ATOM      4  C   UNL     1     -10.822  14.012  69.366  0.00  0.00    +0.369 C 
BRANCH   4   5
ATOM      5  O   UNL     1     -12.126  14.082  69.891  0.00  0.00    -0.419 OA
BRANCH   5   6
ATOM      6  C   UNL     1     -12.407  14.956  70.920  0.00  0.00    +0.318 C 
ATOM      7  O   UNL     1     -12.337  16.195  70.662  0.00  0.00    -0.250 OA
BRANCH   6   8
ATOM      8  C   UNL     1     -13.360  14.533  71.992  0.00  0.00    +0.090 C 
ATOM      9  C   UNL     1     -14.731  15.031  71.609  0.00  0.00    +0.011 C 
ATOM     10  C   UNL     1     -13.366  13.023  72.030  0.00  0.00    +0.011 C 
ATOM     11  C   UNL     1     -12.920  15.075  73.345  0.00  0.00    +0.011 C 
ENDBRANCH   6   8
ENDBRANCH   5   6
ENDBRANCH   4   5
ENDBRANCH   3   4
ENDBRANCH   1   3
BRANCH   1  12
ATOM     12  O   UNL     1      -8.360  15.944  67.832  0.00  0.00    -0.250 OA
BRANCH  12  13
ATOM     13  C   UNL     1      -7.465  16.294  66.827  0.00  0.00    +0.369 C 
BRANCH  13  14
ATOM     14  O   UNL     1      -7.889  17.526  66.249  0.00  0.00    -0.419 OA
BRANCH  14  15
ATOM     15  C   UNL     1      -9.145  18.074  66.534  0.00  0.00    +0.318 C 
ATOM     16  O   UNL     1     -10.042  17.817  65.675  0.00  0.00    -0.250 OA
BRANCH  15  18
ATOM     17  C   UNL     1      -9.624  19.164  68.630  0.00  0.00    +0.011 C 
ATOM     18  C   UNL     1      -9.263  19.423  67.175  0.00  0.00    +0.090 C 
ATOM     19  C   UNL     1      -7.969  20.190  67.119  0.00  0.00    +0.011 C 
ATOM     20  C   UNL     1     -10.383  20.131  66.438  0.00  0.00    +0.011 C 
ENDBRANCH  15  18
ENDBRANCH  14  15
ENDBRANCH  13  14
ENDBRANCH  12  13
ENDBRANCH   1  12
BRANCH   1  21
ATOM     21  C   UNL     1      -8.366  13.152  68.169  0.00  0.00    +0.258 C 
BRANCH  21  22
ATOM     22  O   UNL     1      -7.931  12.404  67.064  0.00  0.00    -0.340 OA
BRANCH  22  23
ATOM     23  C   UNL     1      -8.072  11.041  67.349  0.00  0.00    +0.167 C 
BRANCH  23  24
ATOM     24  C   UNL     1      -8.734  10.301  66.221  0.00  0.00    +0.141 C 
BRANCH  24  25
ATOM     25  N   UNL     1     -10.164  10.589  66.239  0.00  0.00    -0.292 N 
ATOM     26  C   UNL     1     -10.858  11.185  65.239  0.00  0.00    +0.167 A 
ATOM     27  N   UNL     1     -10.666  11.236  63.915  0.00  0.00    -0.205 NA
ATOM     28  C   UNL     1     -11.645  11.732  63.119  0.00  0.00    +0.202 A 
ATOM     29  N   UNL     1     -12.398  12.719  63.652  0.00  0.00    -0.204 NA
ATOM     30  C   UNL     1     -12.567  12.869  64.981  0.00  0.00    +0.192 A 
ATOM     31  N   UNL     1     -12.980  14.106  65.570  0.00  0.00    -0.105 NA
ATOM     32  C   UNL     1     -11.784  12.057  65.788  0.00  0.00    +0.152 A 
ATOM     33  N   UNL     1     -11.897  11.668  67.072  0.00  0.00    -0.219 NA
ATOM     34  C   UNL     1     -10.978  10.700  67.316  0.00  0.00    +0.180 A 
ENDBRANCH  24  25
ENDBRANCH  23  24
ENDBRANCH  22  23
ENDBRANCH  21  22
ENDBRANCH   1  21
TORSDOF 15
ENDMDL
MODEL 5
REMARK VINA RESULT:      -6.8      3.054      7.112
REMARK  Name = 
REMARK  15 active torsions:
REMARK  status: ('A' for Active; 'I' for Inactive)
REMARK    1  A    between atoms: C_2  and  C_5
REMARK    2  A    between atoms: C_5  and  O_7
REMARK    3  A    between atoms: O_7  and  C_8
REMARK    4  A    between atoms: C_8  and  O_9
REMARK    5  A    between atoms: O_9  and  P_10
REMARK    6  A    between atoms: P_10  and  C_12
REMARK    7  A    between atoms: P_10  and  O_26
REMARK    8  A    between atoms: C_12  and  O_13
REMARK    9  A    between atoms: O_13  and  C_14
REMARK   10  A    between atoms: C_14  and  C_15
REMARK   11  A    between atoms: C_15  and  N_16
REMARK   12  A    between atoms: O_26  and  C_27
REMARK   13  A    between atoms: C_27  and  O_28
REMARK   14  A    between atoms: O_28  and  C_29
REMARK   15  A    between atoms: C_29  and  C_31
REMARK                            x       y       z     vdW  Elec       q    Type
REMARK                         _______ _______ _______ _____ _____    ______ ____
ROOT
ATOM      1  P   UNL     1     -10.429  17.065  67.882  0.00  0.00    +0.378 P 
ATOM      2  O   UNL     1      -9.123  16.574  68.461  0.00  0.00    -0.255 OA
ENDROOT
BRANCH   1   3
ATOM      3  O   UNL     1     -10.539  18.715  68.283  0.00  0.00    -0.250 OA
BRANCH   3   4
ATOM      4  C   UNL     1     -10.179  19.472  67.163  0.00  0.00    +0.369 C 
BRANCH   4   5
ATOM      5  O   UNL     1      -8.928  20.060  67.427  0.00  0.00    -0.419 OA
BRANCH   5   6
ATOM      6  C   UNL     1      -7.785  19.526  66.868  0.00  0.00    +0.318 C 
ATOM      7  O   UNL     1      -7.781  19.354  65.612  0.00  0.00    -0.250 OA
BRANCH   6   8
ATOM      8  C   UNL     1      -6.468  19.780  67.529  0.00  0.00    +0.090 C 
ATOM      9  C   UNL     1      -6.593  19.367  68.974  0.00  0.00    +0.011 C 
ATOM     10  C   UNL     1      -5.437  18.913  66.846  0.00  0.00    +0.011 C 
ATOM     11  C   UNL     1      -6.074  21.244  67.393  0.00  0.00    +0.011 C 
ENDBRANCH   6   8
ENDBRANCH   5   6
ENDBRANCH   4   5
ENDBRANCH   3   4
ENDBRANCH   1   3
BRANCH   1  12
ATOM     12  O   UNL     1     -11.754  16.201  68.442  0.00  0.00    -0.250 OA
BRANCH  12  13
ATOM     13  C   UNL     1     -11.424  14.925  68.887  0.00  0.00    +0.369 C 
BRANCH  13  14
ATOM     14  O   UNL     1     -12.384  14.520  69.860  0.00  0.00    -0.419 OA
BRANCH  14  15
ATOM     15  C   UNL     1     -12.461  15.140  71.112  0.00  0.00    +0.318 C 
ATOM     16  O   UNL     1     -11.344  15.501  71.594  0.00  0.00    -0.250 OA
BRANCH  15  18
ATOM     17  C   UNL     1     -14.808  15.214  71.659  0.00  0.00    +0.011 C 
ATOM     18  C   UNL     1     -13.461  14.684  72.130  0.00  0.00    +0.090 C 
ATOM     19  C   UNL     1     -13.529  13.183  72.224  0.00  0.00    +0.011 C 
ATOM     20  C   UNL     1     -13.036  15.323  73.438  0.00  0.00    +0.011 C 
ENDBRANCH  15  18
ENDBRANCH  14  15
ENDBRANCH  13  14
ENDBRANCH  12  13
ENDBRANCH   1  12
BRANCH   1  21
ATOM     21  C   UNL     1     -10.400  16.870  66.069  0.00  0.00    +0.258 C 
BRANCH  21  22
ATOM     22  O   UNL     1     -10.320  15.486  65.847  0.00  0.00    -0.340 OA
BRANCH  22  23
ATOM     23  C   UNL     1     -11.169  15.143  64.788  0.00  0.00    +0.167 C 
BRANCH  23  24
ATOM     24  C   UNL     1     -12.328  14.305  65.250  0.00  0.00    +0.141 C 
BRANCH  24  25
ATOM     25  N   UNL     1     -12.112  12.925  64.828  0.00  0.00    -0.292 N 
ATOM     26  C   UNL     1     -11.586  11.942  65.598  0.00  0.00    +0.167 A 
ATOM     27  N   UNL     1     -11.569  11.745  66.922  0.00  0.00    -0.205 NA
ATOM     28  C   UNL     1     -11.149  10.554  67.413  0.00  0.00    +0.202 A 
ATOM     29  N   UNL     1     -10.186   9.927  66.704  0.00  0.00    -0.204 NA
ATOM     30  C   UNL     1     -10.000  10.135  65.385  0.00  0.00    +0.192 A 
ATOM     31  N   UNL     1      -8.768   9.835  64.723  0.00  0.00    -0.105 NA
ATOM     32  C   UNL     1     -10.744  11.161  64.822  0.00  0.00    +0.152 A 
ATOM     33  N   UNL     1     -11.097  11.441  63.553  0.00  0.00    -0.219 NA
ATOM     34  C   UNL     1     -12.007  12.446  63.565  0.00  0.00    +0.180 A 
ENDBRANCH  24  25
ENDBRANCH  23  24
ENDBRANCH  22  23
ENDBRANCH  21  22
ENDBRANCH   1  21
TORSDOF 15
ENDMDL
MODEL 6
REMARK VINA RESULT:      -6.8      1.272      1.732
REMARK  Name = 
REMARK  15 active torsions:
REMARK  status: ('A' for Active; 'I' for Inactive)
REMARK    1  A    between atoms: C_2  and  C_5
REMARK    2  A    between atoms: C_5  and  O_7
REMARK    3  A    between atoms: O_7  and  C_8
REMARK    4  A    between atoms: C_8  and  O_9
REMARK    5  A    between atoms: O_9  and  P_10
REMARK    6  A    between atoms: P_10  and  C_12
REMARK    7  A    between atoms: P_10  and  O_26
REMARK    8  A    between atoms: C_12  and  O_13
REMARK    9  A    between atoms: O_13  and  C_14
REMARK   10  A    between atoms: C_14  and  C_15
REMARK   11  A    between atoms: C_15  and  N_16
REMARK   12  A    between atoms: O_26  and  C_27
REMARK   13  A    between atoms: C_27  and  O_28
REMARK   14  A    between atoms: O_28  and  C_29
REMARK   15  A    between atoms: C_29  and  C_31
REMARK                            x       y       z     vdW  Elec       q    Type
REMARK                         _______ _______ _______ _____ _____    ______ ____
ROOT
ATOM      1  P   UNL     1     -11.232  13.798  66.467  0.00  0.00    +0.378 P 
ATOM      2  O   UNL     1     -11.653  14.410  65.152  0.00  0.00    -0.255 OA
ENDROOT
BRANCH   1   3
ATOM      3  O   UNL     1     -12.274  14.443  67.648  0.00  0.00    -0.250 OA
BRANCH   3   4
ATOM      4  C   UNL     1     -11.656  14.327  68.898  0.00  0.00    +0.369 C 
BRANCH   4   5
ATOM      5  O   UNL     1     -12.629  14.581  69.883  0.00  0.00    -0.419 OA
BRANCH   5   6
ATOM      6  C   UNL     1     -12.251  14.715  71.204  0.00  0.00    +0.318 C 
ATOM      7  O   UNL     1     -11.264  15.471  71.449  0.00  0.00    -0.250 OA
BRANCH   6   8
ATOM      8  C   UNL     1     -13.287  14.573  72.272  0.00  0.00    +0.090 C 
ATOM      9  C   UNL     1     -13.639  13.111  72.380  0.00  0.00    +0.011 C 
ATOM     10  C   UNL     1     -12.675  15.040  73.571  0.00  0.00    +0.011 C 
ATOM     11  C   UNL     1     -14.509  15.424  71.950  0.00  0.00    +0.011 C 
ENDBRANCH   6   8
ENDBRANCH   5   6
ENDBRANCH   4   5
ENDBRANCH   3   4
ENDBRANCH   1   3
BRANCH   1  12
ATOM     12  O   UNL     1      -9.621  14.092  66.834  0.00  0.00    -0.250 OA
BRANCH  12  13
ATOM     13  C   UNL     1      -9.120  15.231  66.213  0.00  0.00    +0.369 C 
BRANCH  13  14
ATOM     14  O   UNL     1      -9.398  16.359  67.039  0.00  0.00    -0.419 OA
BRANCH  14  15
ATOM     15  C   UNL     1     -10.003  17.511  66.524  0.00  0.00    +0.318 C 
ATOM     16  O   UNL     1     -10.372  17.419  65.313  0.00  0.00    -0.250 OA
BRANCH  15  18
ATOM     17  C   UNL     1     -10.502  19.860  66.311  0.00  0.00    +0.011 C 
ATOM     18  C   UNL     1      -9.523  18.871  66.927  0.00  0.00    +0.090 C 
ATOM     19  C   UNL     1      -9.520  19.050  68.422  0.00  0.00    +0.011 C 
ATOM     20  C   UNL     1      -8.136  19.012  66.329  0.00  0.00    +0.011 C 
ENDBRANCH  15  18
ENDBRANCH  14  15
ENDBRANCH  13  14
ENDBRANCH  12  13
ENDBRANCH   1  12
BRANCH   1  21
ATOM     21  C   UNL     1     -11.433  11.988  66.386  0.00  0.00    +0.258 C 
BRANCH  21  22
ATOM     22  O   UNL     1     -10.178  11.460  66.724  0.00  0.00    -0.340 OA
BRANCH  22  23
ATOM     23  C   UNL     1     -10.359  10.336  67.539  0.00  0.00    +0.167 C 
BRANCH  23  24
ATOM     24  C   UNL     1      -9.687  10.500  68.873  0.00  0.00    +0.141 C 
BRANCH  24  25
ATOM     25  N   UNL     1     -10.697  10.427  69.924  0.00  0.00    -0.292 N 
ATOM     26  C   UNL     1     -10.727   9.511  70.922  0.00  0.00    +0.167 A 
ATOM     27  N   UNL     1      -9.763   8.809  71.531  0.00  0.00    -0.205 NA
ATOM     28  C   UNL     1     -10.056   8.111  72.655  0.00  0.00    +0.202 A 
ATOM     29  N   UNL     1     -11.303   7.598  72.726  0.00  0.00    -0.204 NA
ATOM     30  C   UNL     1     -12.346   8.125  72.054  0.00  0.00    +0.192 A 
ATOM     31  N   UNL     1     -13.536   7.381  71.771  0.00  0.00    -0.105 NA
ATOM     32  C   UNL     1     -12.039   9.125  71.144  0.00  0.00    +0.152 A 
ATOM     33  N   UNL     1     -12.778  10.094  70.570  0.00  0.00    -0.219 NA
ATOM     34  C   UNL     1     -11.950  10.943  69.914  0.00  0.00    +0.180 A 
ENDBRANCH  24  25
ENDBRANCH  23  24
ENDBRANCH  22  23
ENDBRANCH  21  22
ENDBRANCH   1  21
TORSDOF 15
ENDMDL
MODEL 7
REMARK VINA RESULT:      -6.8      3.261      4.741
REMARK  Name = 
REMARK  15 active torsions:
REMARK  status: ('A' for Active; 'I' for Inactive)
REMARK    1  A    between atoms: C_2  and  C_5
REMARK    2  A    between atoms: C_5  and  O_7
REMARK    3  A    between atoms: O_7  and  C_8
REMARK    4  A    between atoms: C_8  and  O_9
REMARK    5  A    between atoms: O_9  and  P_10
REMARK    6  A    between atoms: P_10  and  C_12
REMARK    7  A    between atoms: P_10  and  O_26
REMARK    8  A    between atoms: C_12  and  O_13
REMARK    9  A    between atoms: O_13  and  C_14
REMARK   10  A    between atoms: C_14  and  C_15
REMARK   11  A    between atoms: C_15  and  N_16
REMARK   12  A    between atoms: O_26  and  C_27
REMARK   13  A    between atoms: C_27  and  O_28
REMARK   14  A    between atoms: O_28  and  C_29
REMARK   15  A    between atoms: C_29  and  C_31
REMARK                            x       y       z     vdW  Elec       q    Type
REMARK                         _______ _______ _______ _____ _____    ______ ____
ROOT
ATOM      1  P   UNL     1     -10.391  16.175  67.638  0.00  0.00    +0.378 P 
ATOM      2  O   UNL     1     -10.445  16.242  66.130  0.00  0.00    -0.255 OA
ENDROOT
BRANCH   1   3
ATOM      3  O   UNL     1     -11.566  15.038  68.109  0.00  0.00    -0.250 OA
BRANCH   3   4
ATOM      4  C   UNL     1     -12.279  15.556  69.195  0.00  0.00    +0.369 C 
BRANCH   4   5
ATOM      5  O   UNL     1     -12.006  14.746  70.313  0.00  0.00    -0.419 OA
BRANCH   5   6
ATOM      6  C   UNL     1     -12.031  15.293  71.580  0.00  0.00    +0.318 C 
ATOM      7  O   UNL     1     -11.643  16.493  71.700  0.00  0.00    -0.250 OA
BRANCH   6   8
ATOM      8  C   UNL     1     -13.044  14.799  72.562  0.00  0.00    +0.090 C 
ATOM      9  C   UNL     1     -12.482  15.008  73.946  0.00  0.00    +0.011 C 
ATOM     10  C   UNL     1     -14.291  15.636  72.395  0.00  0.00    +0.011 C 
ATOM     11  C   UNL     1     -13.375  13.335  72.303  0.00  0.00    +0.011 C 
ENDBRANCH   6   8
ENDBRANCH   5   6
ENDBRANCH   4   5
ENDBRANCH   3   4
ENDBRANCH   1   3
BRANCH   1  12
ATOM     12  O   UNL     1     -10.645  17.666  68.366  0.00  0.00    -0.250 OA
BRANCH  12  13
ATOM     13  C   UNL     1     -10.613  18.724  67.463  0.00  0.00    +0.369 C 
BRANCH  13  14
ATOM     14  O   UNL     1      -9.495  19.553  67.773  0.00  0.00    -0.419 OA
BRANCH  14  15
ATOM     15  C   UNL     1      -8.365  19.593  66.949  0.00  0.00    +0.318 C 
ATOM     16  O   UNL     1      -8.495  18.987  65.842  0.00  0.00    -0.250 OA
BRANCH  15  18
ATOM     17  C   UNL     1      -6.341  18.284  66.951  0.00  0.00    +0.011 C 
ATOM     18  C   UNL     1      -6.988  19.530  67.536  0.00  0.00    +0.090 C 
ATOM     19  C   UNL     1      -6.161  20.733  67.168  0.00  0.00    +0.011 C 
ATOM     20  C   UNL     1      -7.186  19.406  69.035  0.00  0.00    +0.011 C 
ENDBRANCH  15  18
ENDBRANCH  14  15
ENDBRANCH  13  14
ENDBRANCH  12  13
ENDBRANCH   1  12
BRANCH   1  21
ATOM     21  C   UNL     1      -8.738  15.609  68.161  0.00  0.00    +0.258 C 
BRANCH  21  22
ATOM     22  O   UNL     1      -8.424  14.541  67.306  0.00  0.00    -0.340 OA
BRANCH  22  23
ATOM     23  C   UNL     1      -8.259  13.378  68.066  0.00  0.00    +0.167 C 
BRANCH  23  24
ATOM     24  C   UNL     1      -8.302  12.142  67.212  0.00  0.00    +0.141 C 
BRANCH  24  25
ATOM     25  N   UNL     1      -9.694  11.810  66.927  0.00  0.00    -0.292 N 
ATOM     26  C   UNL     1     -10.328  12.029  65.750  0.00  0.00    +0.167 A 
ATOM     27  N   UNL     1      -9.886  12.109  64.489  0.00  0.00    -0.205 NA
ATOM     28  C   UNL     1     -10.779  12.126  63.469  0.00  0.00    +0.202 A 
ATOM     29  N   UNL     1     -11.960  12.728  63.727  0.00  0.00    -0.204 NA
ATOM     30  C   UNL     1     -12.464  12.840  64.972  0.00  0.00    +0.192 A 
ATOM     31  N   UNL     1     -13.455  13.813  65.318  0.00  0.00    -0.105 NA
ATOM     32  C   UNL     1     -11.621  12.456  66.005  0.00  0.00    +0.152 A 
ATOM     33  N   UNL     1     -11.850  12.099  67.283  0.00  0.00    -0.219 NA
ATOM     34  C   UNL     1     -10.701  11.610  67.811  0.00  0.00    +0.180 A 
ENDBRANCH  24  25
ENDBRANCH  23  24
ENDBRANCH  22  23
ENDBRANCH  21  22
ENDBRANCH   1  21
TORSDOF 15
ENDMDL
MODEL 8
REMARK VINA RESULT:      -6.7      3.103      4.900
REMARK  Name = 
REMARK  15 active torsions:
REMARK  status: ('A' for Active; 'I' for Inactive)
REMARK    1  A    between atoms: C_2  and  C_5
REMARK    2  A    between atoms: C_5  and  O_7
REMARK    3  A    between atoms: O_7  and  C_8
REMARK    4  A    between atoms: C_8  and  O_9
REMARK    5  A    between atoms: O_9  and  P_10
REMARK    6  A    between atoms: P_10  and  C_12
REMARK    7  A    between atoms: P_10  and  O_26
REMARK    8  A    between atoms: C_12  and  O_13
REMARK    9  A    between atoms: O_13  and  C_14
REMARK   10  A    between atoms: C_14  and  C_15
REMARK   11  A    between atoms: C_15  and  N_16
REMARK   12  A    between atoms: O_26  and  C_27
REMARK   13  A    between atoms: C_27  and  O_28
REMARK   14  A    between atoms: O_28  and  C_29
REMARK   15  A    between atoms: C_29  and  C_31
REMARK                            x       y       z     vdW  Elec       q    Type
REMARK                         _______ _______ _______ _____ _____    ______ ____
ROOT
ATOM      1  P   UNL     1     -10.320  16.485  67.885  0.00  0.00    +0.378 P 
ATOM      2  O   UNL     1     -10.953  17.841  68.089  0.00  0.00    -0.255 OA
ENDROOT
BRANCH   1   3
ATOM      3  O   UNL     1     -11.538  15.338  68.193  0.00  0.00    -0.250 OA
BRANCH   3   4
ATOM      4  C   UNL     1     -11.109  14.498  69.226  0.00  0.00    +0.369 C 
BRANCH   4   5
ATOM      5  O   UNL     1     -12.176  14.349  70.131  0.00  0.00    -0.419 OA
BRANCH   5   6
ATOM      6  C   UNL     1     -12.133  14.983  71.355  0.00  0.00    +0.318 C 
ATOM      7  O   UNL     1     -11.597  16.131  71.394  0.00  0.00    -0.250 OA
BRANCH   6   8
ATOM      8  C   UNL     1     -13.201  14.692  72.360  0.00  0.00    +0.090 C 
ATOM      9  C   UNL     1     -13.472  13.209  72.325  0.00  0.00    +0.011 C 
ATOM     10  C   UNL     1     -12.668  15.073  73.721  0.00  0.00    +0.011 C 
ATOM     11  C   UNL     1     -14.456  15.502  72.060  0.00  0.00    +0.011 C 
ENDBRANCH   6   8
ENDBRANCH   5   6
ENDBRANCH   4   5
ENDBRANCH   3   4
ENDBRANCH   1   3
BRANCH   1  12
ATOM     12  O   UNL     1      -8.977  16.242  68.863  0.00  0.00    -0.250 OA
BRANCH  12  13
ATOM     13  C   UNL     1      -7.789  16.651  68.268  0.00  0.00    +0.369 C 
BRANCH  13  14
ATOM     14  O   UNL     1      -7.558  18.017  68.608  0.00  0.00    -0.419 OA
BRANCH  14  15
ATOM     15  C   UNL     1      -6.668  18.811  67.876  0.00  0.00    +0.318 C 
ATOM     16  O   UNL     1      -5.555  19.022  68.446  0.00  0.00    -0.250 OA
BRANCH  15  18
ATOM     17  C   UNL     1      -7.011  19.515  65.596  0.00  0.00    +0.011 C 
ATOM     18  C   UNL     1      -7.169  19.952  67.044  0.00  0.00    +0.090 C 
ATOM     19  C   UNL     1      -8.620  20.253  67.312  0.00  0.00    +0.011 C 
ATOM     20  C   UNL     1      -6.269  21.127  67.375  0.00  0.00    +0.011 C 
ENDBRANCH  15  18
ENDBRANCH  14  15
ENDBRANCH  13  14
ENDBRANCH  12  13
ENDBRANCH   1  12
BRANCH   1  21
ATOM     21  C   UNL     1      -9.750  16.335  66.160  0.00  0.00    +0.258 C 
BRANCH  21  22
ATOM     22  O   UNL     1     -10.164  15.060  65.743  0.00  0.00    -0.340 OA
BRANCH  22  23
ATOM     23  C   UNL     1     -11.139  15.199  64.748  0.00  0.00    +0.167 C 
BRANCH  23  24
ATOM     24  C   UNL     1     -12.358  14.371  65.043  0.00  0.00    +0.141 C 
BRANCH  24  25
ATOM     25  N   UNL     1     -12.087  12.983  64.681  0.00  0.00    -0.292 N 
ATOM     26  C   UNL     1     -11.593  12.036  65.515  0.00  0.00    +0.167 A 
ATOM     27  N   UNL     1     -11.660  11.881  66.843  0.00  0.00    -0.205 NA
ATOM     28  C   UNL     1     -11.250  10.715  67.399  0.00  0.00    +0.202 A 
ATOM     29  N   UNL     1     -10.229  10.088  66.775  0.00  0.00    -0.204 NA
ATOM     30  C   UNL     1      -9.961  10.260  65.465  0.00  0.00    +0.192 A 
ATOM     31  N   UNL     1      -8.681   9.967  64.896  0.00  0.00    -0.105 NA
ATOM     32  C   UNL     1     -10.686  11.251  64.822  0.00  0.00    +0.152 A 
ATOM     33  N   UNL     1     -10.959  11.483  63.524  0.00  0.00    -0.219 NA
ATOM     34  C   UNL     1     -11.889  12.468  63.444  0.00  0.00    +0.180 A 
ENDBRANCH  24  25
ENDBRANCH  23  24
ENDBRANCH  22  23
ENDBRANCH  21  22
ENDBRANCH   1  21
TORSDOF 15
ENDMDL
MODEL 9
REMARK VINA RESULT:      -6.7      1.157      4.985
REMARK  Name = 
REMARK  15 active torsions:
REMARK  status: ('A' for Active; 'I' for Inactive)
REMARK    1  A    between atoms: C_2  and  C_5
REMARK    2  A    between atoms: C_5  and  O_7
REMARK    3  A    between atoms: O_7  and  C_8
REMARK    4  A    between atoms: C_8  and  O_9
REMARK    5  A    between atoms: O_9  and  P_10
REMARK    6  A    between atoms: P_10  and  C_12
REMARK    7  A    between atoms: P_10  and  O_26
REMARK    8  A    between atoms: C_12  and  O_13
REMARK    9  A    between atoms: O_13  and  C_14
REMARK   10  A    between atoms: C_14  and  C_15
REMARK   11  A    between atoms: C_15  and  N_16
REMARK   12  A    between atoms: O_26  and  C_27
REMARK   13  A    between atoms: C_27  and  O_28
REMARK   14  A    between atoms: O_28  and  C_29
REMARK   15  A    between atoms: C_29  and  C_31
REMARK                            x       y       z     vdW  Elec       q    Type
REMARK                         _______ _______ _______ _____ _____    ______ ____
ROOT
ATOM      1  P   UNL     1     -10.558  13.487  66.826  0.00  0.00    +0.378 P 
ATOM      2  O   UNL     1      -9.110  13.486  66.396  0.00  0.00    -0.255 OA
ENDROOT
BRANCH   1   3
ATOM      3  O   UNL     1     -11.306  14.762  65.983  0.00  0.00    -0.250 OA
BRANCH   3   4
ATOM      4  C   UNL     1     -10.316  15.646  65.541  0.00  0.00    +0.369 C 
BRANCH   4   5
ATOM      5  O   UNL     1     -10.376  16.796  66.350  0.00  0.00    -0.419 OA
BRANCH   5   6
ATOM      6  C   UNL     1      -9.253  17.582  66.512  0.00  0.00    +0.318 C 
ATOM      7  O   UNL     1      -8.244  17.304  65.797  0.00  0.00    -0.250 OA
BRANCH   6   8
ATOM      8  C   UNL     1      -9.419  19.006  66.936  0.00  0.00    +0.090 C 
ATOM      9  C   UNL     1      -8.109  19.713  66.694  0.00  0.00    +0.011 C 
ATOM     10  C   UNL     1     -10.490  19.622  66.066  0.00  0.00    +0.011 C 
ATOM     11  C   UNL     1      -9.842  19.085  68.397  0.00  0.00    +0.011 C 
ENDBRANCH   6   8
ENDBRANCH   5   6
ENDBRANCH   4   5
ENDBRANCH   3   4
ENDBRANCH   1   3
BRANCH   1  12
ATOM     12  O   UNL     1     -10.744  13.649  68.486  0.00  0.00    -0.250 OA
BRANCH  12  13
ATOM     13  C   UNL     1     -12.020  14.063  68.854  0.00  0.00    +0.369 C 
BRANCH  13  14
ATOM     14  O   UNL     1     -12.090  14.111  70.277  0.00  0.00    -0.419 OA
BRANCH  14  15
ATOM     15  C   UNL     1     -12.709  15.174  70.943  0.00  0.00    +0.318 C 
ATOM     16  O   UNL     1     -11.951  16.163  71.182  0.00  0.00    -0.250 OA
BRANCH  15  18
ATOM     17  C   UNL     1     -13.437  15.874  73.132  0.00  0.00    +0.011 C 
ATOM     18  C   UNL     1     -13.749  14.918  71.990  0.00  0.00    +0.090 C 
ATOM     19  C   UNL     1     -15.140  15.193  71.486  0.00  0.00    +0.011 C 
ATOM     20  C   UNL     1     -13.565  13.471  72.407  0.00  0.00    +0.011 C 
ENDBRANCH  15  18
ENDBRANCH  14  15
ENDBRANCH  13  14
ENDBRANCH  12  13
ENDBRANCH   1  12
BRANCH   1  21
ATOM     21  C   UNL     1     -11.329  11.902  66.362  0.00  0.00    +0.258 C 
BRANCH  21  22
ATOM     22  O   UNL     1     -10.412  10.914  66.753  0.00  0.00    -0.340 OA
BRANCH  22  23
ATOM     23  C   UNL     1     -10.979  10.139  67.771  0.00  0.00    +0.167 C 
BRANCH  23  24
ATOM     24  C   UNL     1     -10.088  10.067  68.979  0.00  0.00    +0.141 C 
BRANCH  24  25
ATOM     25  N   UNL     1     -10.915   9.871  70.166  0.00  0.00    -0.292 N 
ATOM     26  C   UNL     1     -11.211   8.674  70.727  0.00  0.00    +0.167 A 
ATOM     27  N   UNL     1     -10.565   7.502  70.746  0.00  0.00    -0.205 NA
ATOM     28  C   UNL     1     -10.994   6.517  71.572  0.00  0.00    +0.202 A 
ATOM     29  N   UNL     1     -12.326   6.468  71.792  0.00  0.00    -0.204 NA
ATOM     30  C   UNL     1     -13.124   7.548  71.675  0.00  0.00    +0.192 A 
ATOM     31  N   UNL     1     -14.538   7.444  71.481  0.00  0.00    -0.105 NA
ATOM     32  C   UNL     1     -12.532   8.685  71.146  0.00  0.00    +0.152 A 
ATOM     33  N   UNL     1     -12.861   9.990  71.194  0.00  0.00    -0.219 NA
ATOM     34  C   UNL     1     -11.833  10.718  70.691  0.00  0.00    +0.180 A 
ENDBRANCH  24  25
ENDBRANCH  23  24
ENDBRANCH  22  23
ENDBRANCH  21  22
ENDBRANCH   1  21
TORSDOF 15
ENDMDL
