MODEL 1
REMARK VINA RESULT:      -6.6      0.000      0.000
REMARK  Name = 
REMARK  4 active torsions:
REMARK  status: ('A' for Active; 'I' for Inactive)
REMARK    1  A    between atoms: O_2  and  C_3
REMARK    2  A    between atoms: C_8  and  O_9
REMARK    3  A    between atoms: C_15  and  C_16
REMARK    4  A    between atoms: C_16  and  C_17
REMARK                            x       y       z     vdW  Elec       q    Type
REMARK                         _______ _______ _______ _____ _____    ______ ____
ROOT
ATOM      1  C   UNL     1     -11.687  12.564  67.345  0.00  0.00    +0.172 A 
ATOM      2  C   UNL     1     -12.025  13.119  66.133  0.00  0.00    +0.172 A 
ATOM      3  C   UNL     1     -11.659  14.437  65.937  0.00  0.00    +0.037 A 
ATOM      4  C   UNL     1     -11.306  15.202  67.043  0.00  0.00    -0.008 A 
ATOM      5  C   UNL     1     -10.793  16.639  66.535  0.00  0.00    +0.087 C 
ATOM      6  N   UNL     1     -10.795  17.280  67.971  0.00  0.00    -0.269 NA
ATOM      7  C   UNL     1      -9.854  16.664  68.807  0.00  0.00    +0.077 C 
ATOM      8  C   UNL     1     -10.339  15.353  69.339  0.00  0.00    +0.044 C 
ATOM      9  C   UNL     1     -10.272  18.607  67.640  0.00  0.00    +0.080 C 
ATOM     10  C   UNL     1      -8.646  18.455  67.715  0.00  0.00    +0.074 C 
ATOM     11  C   UNL     1      -8.592  17.567  66.377  0.00  0.00    +0.153 C 
ATOM     12  O   UNL     1      -7.559  17.634  65.750  0.00  0.00    -0.296 OA
ATOM     13  C   UNL     1      -9.204  16.214  66.590  0.00  0.00    +0.085 C 
ATOM     14  C   UNL     1     -10.732  14.606  68.099  0.00  0.00    -0.020 A 
ATOM     15  C   UNL     1     -11.163  13.309  68.375  0.00  0.00    +0.036 A 
ENDROOT
BRANCH   1  17
ATOM     16  C   UNL     1     -11.313  10.592  67.564  0.00  0.00    +0.253 C 
ATOM     17  O   UNL     1     -11.609  11.178  67.427  0.00  0.00    -0.468 OA
ENDBRANCH   1  17
BRANCH   2  18
ATOM     18  O   UNL     1     -12.700  12.457  65.145  0.00  0.00    -0.468 OA
ATOM     19  C   UNL     1     -12.249  12.188  63.853  0.00  0.00    +0.253 C 
ENDBRANCH   2  18
BRANCH  10  20
ATOM     20  C   UNL     1      -8.404  19.847  66.895  0.00  0.00    +0.009 C 
BRANCH  20  21
ATOM     21  C   UNL     1      -7.311  20.481  67.739  0.00  0.00    +0.000 C 
ATOM     22  C   UNL     1      -6.854  19.565  68.841  0.00  0.00    +0.000 C 
ATOM     23  C   UNL     1      -6.115  20.883  66.919  0.00  0.00    +0.000 C 
ENDBRANCH  20  21
ENDBRANCH  10  20
TORSDOF 4
ENDMDL
MODEL 2
REMARK VINA RESULT:      -6.1      4.349      6.749
REMARK  Name = 
REMARK  4 active torsions:
REMARK  status: ('A' for Active; 'I' for Inactive)
REMARK    1  A    between atoms: O_2  and  C_3
REMARK    2  A    between atoms: C_8  and  O_9
REMARK    3  A    between atoms: C_15  and  C_16
REMARK    4  A    between atoms: C_16  and  C_17
REMARK                            x       y       z     vdW  Elec       q    Type
REMARK                         _______ _______ _______ _____ _____    ______ ____
ROOT
ATOM      1  C   UNL     1     -12.538  13.314  70.822  0.00  0.00    +0.172 A 
ATOM      2  C   UNL     1     -12.271  14.518  70.213  0.00  0.00    +0.172 A 
ATOM      3  C   UNL     1     -11.717  14.459  68.948  0.00  0.00    +0.037 A 
ATOM      4  C   UNL     1     -11.157  13.260  68.523  0.00  0.00    -0.008 A 
ATOM      5  C   UNL     1     -10.713  13.415  66.985  0.00  0.00    +0.087 C 
ATOM      6  N   UNL     1      -9.893  12.072  66.962  0.00  0.00    -0.269 NA
ATOM      7  C   UNL     1     -10.728  10.961  67.149  0.00  0.00    +0.077 C 
ATOM      8  C   UNL     1     -11.101  10.765  68.583  0.00  0.00    +0.044 C 
ATOM      9  C   UNL     1      -9.481  12.068  65.557  0.00  0.00    +0.080 C 
ATOM     10  C   UNL     1     -10.700  11.332  64.756  0.00  0.00    +0.074 C 
ATOM     11  C   UNL     1     -11.692  12.580  64.966  0.00  0.00    +0.153 C 
ATOM     12  O   UNL     1     -12.546  12.713  64.119  0.00  0.00    -0.296 OA
ATOM     13  C   UNL     1     -12.092  12.729  66.404  0.00  0.00    +0.085 C 
ATOM     14  C   UNL     1     -11.659  12.101  68.976  0.00  0.00    -0.020 A 
ATOM     15  C   UNL     1     -12.132  12.114  70.287  0.00  0.00    +0.036 A 
ENDROOT
BRANCH   1  17
ATOM     16  C   UNL     1     -13.769  13.063  72.403  0.00  0.00    +0.253 C 
ATOM     17  O   UNL     1     -13.481  13.296  71.844  0.00  0.00    -0.468 OA
ENDBRANCH   1  17
BRANCH   2  18
ATOM     18  O   UNL     1     -12.507  15.738  70.785  0.00  0.00    -0.468 OA
ATOM     19  C   UNL     1     -11.949  16.237  71.963  0.00  0.00    +0.253 C 
ENDBRANCH   2  18
BRANCH  10  20
ATOM     20  C   UNL     1     -10.183  11.885  63.309  0.00  0.00    +0.009 C 
BRANCH  20  21
ATOM     21  C   UNL     1      -9.607  10.611  62.714  0.00  0.00    +0.000 C 
ATOM     22  C   UNL     1      -8.366  10.881  61.909  0.00  0.00    +0.000 C 
ATOM     23  C   UNL     1      -9.286   9.583  63.765  0.00  0.00    +0.000 C 
ENDBRANCH  20  21
ENDBRANCH  10  20
TORSDOF 4
ENDMDL
MODEL 3
REMARK VINA RESULT:      -5.9      1.909      7.486
REMARK  Name = 
REMARK  4 active torsions:
REMARK  status: ('A' for Active; 'I' for Inactive)
REMARK    1  A    between atoms: O_2  and  C_3
REMARK    2  A    between atoms: C_8  and  O_9
REMARK    3  A    between atoms: C_15  and  C_16
REMARK    4  A    between atoms: C_16  and  C_17
REMARK                            x       y       z     vdW  Elec       q    Type
REMARK                         _______ _______ _______ _____ _____    ______ ____
ROOT
ATOM      1  C   UNL     1      -6.766  20.569  67.808  0.00  0.00    +0.172 A 
ATOM      2  C   UNL     1      -6.452  19.728  68.850  0.00  0.00    +0.172 A 
ATOM      3  C   UNL     1      -7.261  18.619  69.010  0.00  0.00    +0.037 A 
ATOM      4  C   UNL     1      -8.496  18.599  68.371  0.00  0.00    -0.008 A 
ATOM      5  C   UNL     1      -9.173  17.158  68.603  0.00  0.00    +0.087 C 
ATOM      6  N   UNL     1     -10.579  17.599  68.053  0.00  0.00    -0.269 NA
ATOM      7  C   UNL     1     -10.516  17.925  66.691  0.00  0.00    +0.077 C 
ATOM      8  C   UNL     1      -9.946  19.288  66.460  0.00  0.00    +0.044 C 
ATOM      9  C   UNL     1     -11.286  16.320  68.155  0.00  0.00    +0.080 C 
ATOM     10  C   UNL     1     -10.982  15.550  66.746  0.00  0.00    +0.074 C 
ATOM     11  C   UNL     1      -9.445  15.286  67.135  0.00  0.00    +0.153 C 
ATOM     12  O   UNL     1      -8.940  14.311  66.626  0.00  0.00    -0.296 OA
ATOM     13  C   UNL     1      -8.656  16.562  67.158  0.00  0.00    +0.085 C 
ATOM     14  C   UNL     1      -8.644  19.243  67.204  0.00  0.00    -0.020 A 
ATOM     15  C   UNL     1      -7.911  20.421  67.062  0.00  0.00    +0.036 A 
ENDROOT
BRANCH   1  17
ATOM     16  C   UNL     1      -5.278  21.590  66.901  0.00  0.00    +0.253 C 
ATOM     17  O   UNL     1      -5.765  21.405  67.323  0.00  0.00    -0.468 OA
ENDBRANCH   1  17
BRANCH   2  18
ATOM     18  O   UNL     1      -5.417  19.934  69.720  0.00  0.00    -0.468 OA
ATOM     19  C   UNL     1      -5.500  20.099  71.103  0.00  0.00    +0.253 C 
ENDBRANCH   2  18
BRANCH  10  20
ATOM     20  C   UNL     1     -11.463  14.109  67.344  0.00  0.00    +0.009 C 
BRANCH  20  21
ATOM     21  C   UNL     1     -12.202  13.542  66.142  0.00  0.00    +0.000 C 
ATOM     22  C   UNL     1     -12.121  14.459  64.954  0.00  0.00    +0.000 C 
ATOM     23  C   UNL     1     -11.686  12.186  65.741  0.00  0.00    +0.000 C 
ENDBRANCH  20  21
ENDBRANCH  10  20
TORSDOF 4
ENDMDL
MODEL 4
REMARK VINA RESULT:      -5.9      2.860      6.914
REMARK  Name = 
REMARK  4 active torsions:
REMARK  status: ('A' for Active; 'I' for Inactive)
REMARK    1  A    between atoms: O_2  and  C_3
REMARK    2  A    between atoms: C_8  and  O_9
REMARK    3  A    between atoms: C_15  and  C_16
REMARK    4  A    between atoms: C_16  and  C_17
REMARK                            x       y       z     vdW  Elec       q    Type
REMARK                         _______ _______ _______ _____ _____    ______ ____
ROOT
ATOM      1  C   UNL     1     -10.641  17.342  68.288  0.00  0.00    +0.172 A 
ATOM      2  C   UNL     1     -11.029  16.369  69.179  0.00  0.00    +0.172 A 
ATOM      3  C   UNL     1     -11.144  15.086  68.677  0.00  0.00    +0.037 A 
ATOM      4  C   UNL     1     -11.207  14.913  67.299  0.00  0.00    -0.008 A 
ATOM      5  C   UNL     1     -11.198  13.338  66.975  0.00  0.00    +0.087 C 
ATOM      6  N   UNL     1     -11.580  13.526  65.461  0.00  0.00    -0.269 NA
ATOM      7  C   UNL     1     -10.571  14.202  64.760  0.00  0.00    +0.077 C 
ATOM      8  C   UNL     1     -10.604  15.678  65.001  0.00  0.00    +0.044 C 
ATOM      9  C   UNL     1     -11.539  12.128  65.029  0.00  0.00    +0.080 C 
ATOM     10  C   UNL     1      -9.985  11.859  64.599  0.00  0.00    +0.074 C 
ATOM     11  C   UNL     1      -9.476  11.910  66.123  0.00  0.00    +0.153 C 
ATOM     12  O   UNL     1      -8.478  11.268  66.359  0.00  0.00    -0.296 OA
ATOM     13  C   UNL     1      -9.577  13.295  66.691  0.00  0.00    +0.085 C 
ATOM     14  C   UNL     1     -10.570  15.779  66.497  0.00  0.00    -0.020 A 
ATOM     15  C   UNL     1     -10.530  17.101  66.938  0.00  0.00    +0.036 A 
ENDROOT
BRANCH   1  17
ATOM     16  C   UNL     1      -9.767  19.099  68.763  0.00  0.00    +0.253 C 
ATOM     17  O   UNL     1     -10.076  18.505  68.800  0.00  0.00    -0.468 OA
ENDBRANCH   1  17
BRANCH   2  18
ATOM     18  O   UNL     1     -11.312  16.601  70.496  0.00  0.00    -0.468 OA
ATOM     19  C   UNL     1     -11.948  15.735  71.386  0.00  0.00    +0.253 C 
ENDBRANCH   2  18
BRANCH  10  20
ATOM     20  C   UNL     1     -10.178  10.237  64.635  0.00  0.00    +0.009 C 
BRANCH  20  21
ATOM     21  C   UNL     1      -9.444   9.842  63.365  0.00  0.00    +0.000 C 
ATOM     22  C   UNL     1      -9.037  11.043  62.558  0.00  0.00    +0.000 C 
ATOM     23  C   UNL     1      -8.220   9.012  63.646  0.00  0.00    +0.000 C 
ENDBRANCH  20  21
ENDBRANCH  10  20
TORSDOF 4
ENDMDL
MODEL 5
REMARK VINA RESULT:      -5.9      1.550      2.034
REMARK  Name = 
REMARK  4 active torsions:
REMARK  status: ('A' for Active; 'I' for Inactive)
REMARK    1  A    between atoms: O_2  and  C_3
REMARK    2  A    between atoms: C_8  and  O_9
REMARK    3  A    between atoms: C_15  and  C_16
REMARK    4  A    between atoms: C_16  and  C_17
REMARK                            x       y       z     vdW  Elec       q    Type
REMARK                         _______ _______ _______ _____ _____    ______ ____
ROOT
ATOM      1  C   UNL     1     -12.074  12.417  69.616  0.00  0.00    +0.172 A 
ATOM      2  C   UNL     1     -11.702  12.199  68.310  0.00  0.00    +0.172 A 
ATOM      3  C   UNL     1     -11.104  13.259  67.656  0.00  0.00    +0.037 A 
ATOM      4  C   UNL     1     -11.225  14.532  68.202  0.00  0.00    -0.008 A 
ATOM      5  C   UNL     1     -10.333  15.552  67.336  0.00  0.00    +0.087 C 
ATOM      6  N   UNL     1     -10.938  16.839  68.010  0.00  0.00    -0.269 NA
ATOM      7  C   UNL     1     -10.615  16.902  69.372  0.00  0.00    +0.077 C 
ATOM      8  C   UNL     1     -11.477  16.005  70.202  0.00  0.00    +0.044 C 
ATOM      9  C   UNL     1     -10.138  17.861  67.332  0.00  0.00    +0.080 C 
ATOM     10  C   UNL     1      -8.790  18.023  68.243  0.00  0.00    +0.074 C 
ATOM     11  C   UNL     1      -8.223  16.588  67.793  0.00  0.00    +0.153 C 
ATOM     12  O   UNL     1      -7.019  16.476  67.811  0.00  0.00    -0.296 OA
ATOM     13  C   UNL     1      -9.047  15.469  68.359  0.00  0.00    +0.085 C 
ATOM     14  C   UNL     1     -11.323  14.671  69.533  0.00  0.00    -0.020 A 
ATOM     15  C   UNL     1     -12.012  13.660  70.201  0.00  0.00    +0.036 A 
ENDROOT
BRANCH   1  17
ATOM     16  C   UNL     1     -12.421  10.987  71.000  0.00  0.00    +0.253 C 
ATOM     17  O   UNL     1     -12.241  11.308  70.439  0.00  0.00    -0.468 OA
ENDBRANCH   1  17
BRANCH   2  18
ATOM     18  O   UNL     1     -11.902  11.024  67.640  0.00  0.00    -0.468 OA
ATOM     19  C   UNL     1     -10.941  10.066  67.316  0.00  0.00    +0.253 C 
ENDBRANCH   2  18
BRANCH  10  20
ATOM     20  C   UNL     1      -7.988  18.801  67.051  0.00  0.00    +0.009 C 
BRANCH  20  21
ATOM     21  C   UNL     1      -7.513  20.037  67.797  0.00  0.00    +0.000 C 
ATOM     22  C   UNL     1      -6.925  19.688  69.136  0.00  0.00    +0.000 C 
ATOM     23  C   UNL     1      -6.496  20.823  67.013  0.00  0.00    +0.000 C 
ENDBRANCH  20  21
ENDBRANCH  10  20
TORSDOF 4
ENDMDL
MODEL 6
REMARK VINA RESULT:      -5.7      4.031      6.941
REMARK  Name = 
REMARK  4 active torsions:
REMARK  status: ('A' for Active; 'I' for Inactive)
REMARK    1  A    between atoms: O_2  and  C_3
REMARK    2  A    between atoms: C_8  and  O_9
REMARK    3  A    between atoms: C_15  and  C_16
REMARK    4  A    between atoms: C_16  and  C_17
REMARK                            x       y       z     vdW  Elec       q    Type
REMARK                         _______ _______ _______ _____ _____    ______ ____
ROOT
ATOM      1  C   UNL     1     -11.771  14.523  69.098  0.00  0.00    +0.172 A 
ATOM      2  C   UNL     1     -11.918  13.199  69.442  0.00  0.00    +0.172 A 
ATOM      3  C   UNL     1     -11.671  12.273  68.446  0.00  0.00    +0.037 A 
ATOM      4  C   UNL     1     -11.638  12.709  67.126  0.00  0.00    -0.008 A 
ATOM      5  C   UNL     1     -11.199  11.479  66.188  0.00  0.00    +0.087 C 
ATOM      6  N   UNL     1     -11.564  12.217  64.847  0.00  0.00    -0.269 NA
ATOM      7  C   UNL     1     -10.747  13.338  64.642  0.00  0.00    +0.077 C 
ATOM      8  C   UNL     1     -11.179  14.512  65.462  0.00  0.00    +0.044 C 
ATOM      9  C   UNL     1     -11.138  11.195  63.889  0.00  0.00    +0.080 C 
ATOM     10  C   UNL     1      -9.554  11.497  63.619  0.00  0.00    +0.074 C 
ATOM     11  C   UNL     1      -9.131  10.992  65.084  0.00  0.00    +0.153 C 
ATOM     12  O   UNL     1      -8.007  10.554  65.179  0.00  0.00    -0.296 OA
ATOM     13  C   UNL     1      -9.616  11.929  66.151  0.00  0.00    +0.085 C 
ATOM     14  C   UNL     1     -11.225  13.957  66.855  0.00  0.00    -0.020 A 
ATOM     15  C   UNL     1     -11.553  14.926  67.802  0.00  0.00    +0.036 A 
ENDROOT
BRANCH   1  17
ATOM     16  C   UNL     1     -11.243  15.951  70.424  0.00  0.00    +0.253 C 
ATOM     17  O   UNL     1     -11.554  15.441  70.120  0.00  0.00    -0.468 OA
ENDBRANCH   1  17
BRANCH   2  18
ATOM     18  O   UNL     1     -12.299  12.765  70.682  0.00  0.00    -0.468 OA
ATOM     19  C   UNL     1     -12.599  11.456  71.059  0.00  0.00    +0.253 C 
ENDBRANCH   2  18
BRANCH  10  20
ATOM     20  C   UNL     1      -9.311  10.024  62.955  0.00  0.00    +0.009 C 
BRANCH  20  21
ATOM     21  C   UNL     1      -8.852  10.420  61.561  0.00  0.00    +0.000 C 
ATOM     22  C   UNL     1      -7.484  11.043  61.580  0.00  0.00    +0.000 C 
ATOM     23  C   UNL     1      -8.838   9.252  60.611  0.00  0.00    +0.000 C 
ENDBRANCH  20  21
ENDBRANCH  10  20
TORSDOF 4
ENDMDL
MODEL 7
REMARK VINA RESULT:      -5.6      2.253      3.304
REMARK  Name = 
REMARK  4 active torsions:
REMARK  status: ('A' for Active; 'I' for Inactive)
REMARK    1  A    between atoms: O_2  and  C_3
REMARK    2  A    between atoms: C_8  and  O_9
REMARK    3  A    between atoms: C_15  and  C_16
REMARK    4  A    between atoms: C_16  and  C_17
REMARK                            x       y       z     vdW  Elec       q    Type
REMARK                         _______ _______ _______ _____ _____    ______ ____
ROOT
ATOM      1  C   UNL     1     -11.605  10.625  69.780  0.00  0.00    +0.172 A 
ATOM      2  C   UNL     1     -10.891  10.341  68.639  0.00  0.00    +0.172 A 
ATOM      3  C   UNL     1     -10.509  11.422  67.867  0.00  0.00    +0.037 A 
ATOM      4  C   UNL     1     -11.136  12.645  68.079  0.00  0.00    -0.008 A 
ATOM      5  C   UNL     1     -10.422  13.756  67.161  0.00  0.00    +0.087 C 
ATOM      6  N   UNL     1     -11.530  14.845  67.411  0.00  0.00    -0.269 NA
ATOM      7  C   UNL     1     -11.568  15.235  68.757  0.00  0.00    +0.077 C 
ATOM      8  C   UNL     1     -12.284  14.242  69.616  0.00  0.00    +0.044 C 
ATOM      9  C   UNL     1     -10.945  15.957  66.659  0.00  0.00    +0.080 C 
ATOM     10  C   UNL     1      -9.962  16.720  67.719  0.00  0.00    +0.074 C 
ATOM     11  C   UNL     1      -8.896  15.517  67.712  0.00  0.00    +0.153 C 
ATOM     12  O   UNL     1      -7.754  15.833  67.955  0.00  0.00    -0.296 OA
ATOM     13  C   UNL     1      -9.447  14.290  68.376  0.00  0.00    +0.085 C 
ATOM     14  C   UNL     1     -11.579  12.954  69.307  0.00  0.00    -0.020 A 
ATOM     15  C   UNL     1     -12.063  11.889  70.066  0.00  0.00    +0.036 A 
ENDROOT
BRANCH   1  17
ATOM     16  C   UNL     1     -11.785   9.424  71.393  0.00  0.00    +0.253 C 
ATOM     17  O   UNL     1     -11.612   9.675  70.796  0.00  0.00    -0.468 OA
ENDBRANCH   1  17
BRANCH   2  18
ATOM     18  O   UNL     1     -10.561   9.077  68.233  0.00  0.00    -0.468 OA
ATOM     19  C   UNL     1     -10.439   8.620  66.921  0.00  0.00    +0.253 C 
ENDBRANCH   2  18
BRANCH  10  20
ATOM     20  C   UNL     1      -9.181  17.524  66.531  0.00  0.00    +0.009 C 
BRANCH  20  21
ATOM     21  C   UNL     1      -9.405  18.960  66.973  0.00  0.00    +0.000 C 
ATOM     22  C   UNL     1     -10.448  19.647  66.135  0.00  0.00    +0.000 C 
ATOM     23  C   UNL     1      -9.808  19.057  68.420  0.00  0.00    +0.000 C 
ENDBRANCH  20  21
ENDBRANCH  10  20
TORSDOF 4
ENDMDL
MODEL 8
REMARK VINA RESULT:      -5.6      3.595      6.231
REMARK  Name = 
REMARK  4 active torsions:
REMARK  status: ('A' for Active; 'I' for Inactive)
REMARK    1  A    between atoms: O_2  and  C_3
REMARK    2  A    between atoms: C_8  and  O_9
REMARK    3  A    between atoms: C_15  and  C_16
REMARK    4  A    between atoms: C_16  and  C_17
REMARK                            x       y       z     vdW  Elec       q    Type
REMARK                         _______ _______ _______ _____ _____    ______ ____
ROOT
ATOM      1  C   UNL     1     -11.019   8.250  71.313  0.00  0.00    +0.172 A 
ATOM      2  C   UNL     1     -10.571   7.628  70.171  0.00  0.00    +0.172 A 
ATOM      3  C   UNL     1     -10.480   8.414  69.038  0.00  0.00    +0.037 A 
ATOM      4  C   UNL     1     -11.147   9.634  69.019  0.00  0.00    -0.008 A 
ATOM      5  C   UNL     1     -10.771  10.407  67.660  0.00  0.00    +0.087 C 
ATOM      6  N   UNL     1     -11.883  11.506  67.837  0.00  0.00    -0.269 NA
ATOM      7  C   UNL     1     -11.639  12.301  68.966  0.00  0.00    +0.077 C 
ATOM      8  C   UNL     1     -12.041  11.622  70.236  0.00  0.00    +0.044 C 
ATOM      9  C   UNL     1     -11.593  12.330  66.662  0.00  0.00    +0.080 C 
ATOM     10  C   UNL     1     -10.462  13.400  67.158  0.00  0.00    +0.074 C 
ATOM     11  C   UNL     1      -9.323  12.269  67.248  0.00  0.00    +0.153 C 
ATOM     12  O   UNL     1      -8.189  12.659  67.090  0.00  0.00    -0.296 OA
ATOM     13  C   UNL     1      -9.591  11.308  68.369  0.00  0.00    +0.085 C 
ATOM     14  C   UNL     1     -11.315  10.310  70.165  0.00  0.00    -0.020 A 
ATOM     15  C   UNL     1     -11.509   9.534  71.307  0.00  0.00    +0.036 A 
ENDROOT
BRANCH   1  17
ATOM     16  C   UNL     1     -10.789   7.539  73.189  0.00  0.00    +0.253 C 
ATOM     17  O   UNL     1     -10.703   7.670  72.537  0.00  0.00    -0.468 OA
ENDBRANCH   1  17
BRANCH   2  18
ATOM     18  O   UNL     1     -10.232   6.305  70.098  0.00  0.00    -0.468 OA
ATOM     19  C   UNL     1      -8.946   5.764  70.087  0.00  0.00    +0.253 C 
ENDBRANCH   2  18
BRANCH  10  20
ATOM     20  C   UNL     1     -10.057  13.796  65.626  0.00  0.00    +0.009 C 
BRANCH  20  21
ATOM     21  C   UNL     1     -10.102  15.313  65.710  0.00  0.00    +0.000 C 
ATOM     22  C   UNL     1     -11.134  15.893  64.782  0.00  0.00    +0.000 C 
ATOM     23  C   UNL     1     -10.379  15.800  67.107  0.00  0.00    +0.000 C 
ENDBRANCH  20  21
ENDBRANCH  10  20
TORSDOF 4
ENDMDL
MODEL 9
REMARK VINA RESULT:      -5.5      1.429      2.026
REMARK  Name = 
REMARK  4 active torsions:
REMARK  status: ('A' for Active; 'I' for Inactive)
REMARK    1  A    between atoms: O_2  and  C_3
REMARK    2  A    between atoms: C_8  and  O_9
REMARK    3  A    between atoms: C_15  and  C_16
REMARK    4  A    between atoms: C_16  and  C_17
REMARK                            x       y       z     vdW  Elec       q    Type
REMARK                         _______ _______ _______ _____ _____    ______ ____
ROOT
ATOM      1  C   UNL     1     -11.668  14.485  68.556  0.00  0.00    +0.172 A 
ATOM      2  C   UNL     1     -11.607  14.298  67.195  0.00  0.00    +0.172 A 
ATOM      3  C   UNL     1     -10.921  15.256  66.472  0.00  0.00    +0.037 A 
ATOM      4  C   UNL     1     -10.650  16.478  67.077  0.00  0.00    -0.008 A 
ATOM      5  C   UNL     1      -9.733  17.352  66.087  0.00  0.00    +0.087 C 
ATOM      6  N   UNL     1      -9.898  18.680  66.914  0.00  0.00    -0.269 NA
ATOM      7  C   UNL     1      -9.319  18.565  68.186  0.00  0.00    +0.077 C 
ATOM      8  C   UNL     1     -10.187  17.807  69.139  0.00  0.00    +0.044 C 
ATOM      9  C   UNL     1      -9.033  19.561  66.127  0.00  0.00    +0.080 C 
ATOM     10  C   UNL     1      -7.536  19.361  66.754  0.00  0.00    +0.074 C 
ATOM     11  C   UNL     1      -7.398  17.879  66.148  0.00  0.00    +0.153 C 
ATOM     12  O   UNL     1      -6.267  17.513  65.920  0.00  0.00    -0.296 OA
ATOM     13  C   UNL     1      -8.329  16.918  66.828  0.00  0.00    +0.085 C 
ATOM     14  C   UNL     1     -10.463  16.528  68.405  0.00  0.00    -0.020 A 
ATOM     15  C   UNL     1     -11.222  15.636  69.161  0.00  0.00    +0.036 A 
ENDROOT
BRANCH   1  17
ATOM     16  C   UNL     1     -12.061  13.056  69.928  0.00  0.00    +0.253 C 
ATOM     17  O   UNL     1     -11.921  13.374  69.354  0.00  0.00    -0.468 OA
ENDBRANCH   1  17
BRANCH   2  18
ATOM     18  O   UNL     1     -12.185  13.248  66.536  0.00  0.00    -0.468 OA
ATOM     19  C   UNL     1     -11.623  12.482  65.514  0.00  0.00    +0.253 C 
ENDBRANCH   2  18
BRANCH  10  20
ATOM     20  C   UNL     1      -6.820  20.044  65.454  0.00  0.00    +0.009 C 
BRANCH  20  21
ATOM     21  C   UNL     1      -5.876  21.020  66.138  0.00  0.00    +0.000 C 
ATOM     22  C   UNL     1      -6.057  21.018  67.631  0.00  0.00    +0.000 C 
ATOM     23  C   UNL     1      -4.432  20.733  65.827  0.00  0.00    +0.000 C 
ENDBRANCH  20  21
ENDBRANCH  10  20
TORSDOF 4
ENDMDL
