MODEL 1
REMARK VINA RESULT:      -5.8      0.000      0.000
REMARK  Name = 
REMARK  7 active torsions:
REMARK  status: ('A' for Active; 'I' for Inactive)
REMARK    1  A    between atoms: N_2  and  C_4
REMARK    2  A    between atoms: C_4  and  C_5
REMARK    3  A    between atoms: C_5  and  O_6
REMARK    4  A    between atoms: O_6  and  C_7
REMARK    5  A    between atoms: C_7  and  C_9
REMARK    6  A    between atoms: C_9  and  C_10
REMARK    7  A    between atoms: C_9  and  C_16
REMARK                            x       y       z     vdW  Elec       q    Type
REMARK                         _______ _______ _______ _____ _____    ______ ____
ROOT
ATOM      1  C   UNL     1     -10.549  14.408  64.973  0.00  0.00    +0.149 C 
ENDROOT
BRANCH   1   2
ATOM      2  C   UNL     1     -10.578  14.341  66.585  0.00  0.00    -0.010 A 
ATOM      3  C   UNL     1     -11.609  14.763  67.300  0.00  0.00    -0.004 A 
ATOM      4  C   UNL     1     -11.827  14.221  68.559  0.00  0.00    -0.000 A 
ATOM      5  C   UNL     1     -10.806  13.507  69.167  0.00  0.00    -0.000 A 
ATOM      6  C   UNL     1      -9.784  13.013  68.382  0.00  0.00    -0.000 A 
ATOM      7  C   UNL     1      -9.544  13.604  67.147  0.00  0.00    -0.004 A 
ENDBRANCH   1   2
BRANCH   1   8
ATOM      8  C   UNL     1     -12.037  13.751  64.729  0.00  0.00    +0.140 C 
ATOM      9  C   UNL     1     -11.888  12.436  65.474  0.00  0.00    +0.031 C 
ATOM     10  C   UNL     1     -11.540  11.387  64.463  0.00  0.00    +0.003 C 
ATOM     11  C   UNL     1     -12.182  11.861  63.197  0.00  0.00    +0.003 C 
ATOM     12  C   UNL     1     -12.129  13.343  63.314  0.00  0.00    +0.031 C 
ATOM     13  O   UNL     1     -12.998  14.491  65.265  0.00  0.00    -0.225 OA
ENDBRANCH   1   8
BRANCH   1  14
ATOM     14  C   UNL     1     -11.051  15.941  64.877  0.00  0.00    +0.323 C 
ATOM     15  O   UNL     1     -11.661  16.339  63.908  0.00  0.00    -0.250 OA
BRANCH  14  16
ATOM     16  O   UNL     1     -10.091  16.746  65.501  0.00  0.00    -0.447 OA
BRANCH  16  17
ATOM     17  C   UNL     1     -10.559  18.037  65.884  0.00  0.00    +0.226 C 
BRANCH  17  18
ATOM     18  C   UNL     1     -10.420  18.196  67.393  0.00  0.00    +0.120 C 
BRANCH  18  20
ATOM     19  C   UNL     1      -8.531  19.251  68.367  0.00  0.00    +0.090 C 
ATOM     20  N   UNL     1      -9.045  18.094  67.816  0.00  0.00    -0.267 NA
ATOM     21  C   UNL     1      -8.881  16.946  68.704  0.00  0.00    +0.090 C 
ENDBRANCH  18  20
ENDBRANCH  17  18
ENDBRANCH  16  17
ENDBRANCH  14  16
ENDBRANCH   1  14
TORSDOF 7
ENDMDL
MODEL 2
REMARK VINA RESULT:      -5.8      2.305      5.605
REMARK  Name = 
REMARK  7 active torsions:
REMARK  status: ('A' for Active; 'I' for Inactive)
REMARK    1  A    between atoms: N_2  and  C_4
REMARK    2  A    between atoms: C_4  and  C_5
REMARK    3  A    between atoms: C_5  and  O_6
REMARK    4  A    between atoms: O_6  and  C_7
REMARK    5  A    between atoms: C_7  and  C_9
REMARK    6  A    between atoms: C_9  and  C_10
REMARK    7  A    between atoms: C_9  and  C_16
REMARK                            x       y       z     vdW  Elec       q    Type
REMARK                         _______ _______ _______ _____ _____    ______ ____
ROOT
ATOM      1  C   UNL     1     -10.471  17.062  66.914  0.00  0.00    +0.149 C 
ENDROOT
BRANCH   1   2
ATOM      2  C   UNL     1      -9.369  15.977  67.379  0.00  0.00    -0.010 A 
ATOM      3  C   UNL     1      -8.295  15.696  66.659  0.00  0.00    -0.004 A 
ATOM      4  C   UNL     1      -7.162  15.207  67.296  0.00  0.00    -0.000 A 
ATOM      5  C   UNL     1      -7.277  14.724  68.590  0.00  0.00    -0.000 A 
ATOM      6  C   UNL     1      -8.372  15.099  69.343  0.00  0.00    -0.000 A 
ATOM      7  C   UNL     1      -9.518  15.534  68.687  0.00  0.00    -0.004 A 
ENDBRANCH   1   2
BRANCH   1   8
ATOM      8  C   UNL     1      -9.412  18.274  66.575  0.00  0.00    +0.140 C 
ATOM      9  C   UNL     1      -8.814  18.517  67.949  0.00  0.00    +0.031 C 
ATOM     10  C   UNL     1      -9.547  19.673  68.557  0.00  0.00    +0.003 C 
ATOM     11  C   UNL     1      -9.972  20.502  67.386  0.00  0.00    +0.003 C 
ATOM     12  C   UNL     1     -10.190  19.498  66.310  0.00  0.00    +0.031 C 
ATOM     13  O   UNL     1      -8.478  17.888  65.716  0.00  0.00    -0.225 OA
ENDBRANCH   1   8
BRANCH   1  14
ATOM     14  C   UNL     1     -10.574  16.529  65.393  0.00  0.00    +0.323 C 
ATOM     15  O   UNL     1     -11.092  17.204  64.528  0.00  0.00    -0.250 OA
BRANCH  14  16
ATOM     16  O   UNL     1     -10.770  15.144  65.435  0.00  0.00    -0.447 OA
BRANCH  16  17
ATOM     17  C   UNL     1     -11.880  14.679  64.672  0.00  0.00    +0.226 C 
BRANCH  17  18
ATOM     18  C   UNL     1     -12.707  13.718  65.518  0.00  0.00    +0.120 C 
BRANCH  18  20
ATOM     19  C   UNL     1     -12.331  12.157  63.772  0.00  0.00    +0.090 C 
ATOM     20  N   UNL     1     -12.491  12.346  65.130  0.00  0.00    -0.267 NA
ATOM     21  C   UNL     1     -11.383  11.781  65.894  0.00  0.00    +0.090 C 
ENDBRANCH  18  20
ENDBRANCH  17  18
ENDBRANCH  16  17
ENDBRANCH  14  16
ENDBRANCH   1  14
TORSDOF 7
ENDMDL
MODEL 3
REMARK VINA RESULT:      -5.7      3.019      5.412
REMARK  Name = 
REMARK  7 active torsions:
REMARK  status: ('A' for Active; 'I' for Inactive)
REMARK    1  A    between atoms: N_2  and  C_4
REMARK    2  A    between atoms: C_4  and  C_5
REMARK    3  A    between atoms: C_5  and  O_6
REMARK    4  A    between atoms: O_6  and  C_7
REMARK    5  A    between atoms: C_7  and  C_9
REMARK    6  A    between atoms: C_9  and  C_10
REMARK    7  A    between atoms: C_9  and  C_16
REMARK                            x       y       z     vdW  Elec       q    Type
REMARK                         _______ _______ _______ _____ _____    ______ ____
ROOT
ATOM      1  C   UNL     1     -10.889  16.165  67.675  0.00  0.00    +0.149 C 
ENDROOT
BRANCH   1   2
ATOM      2  C   UNL     1     -10.280  17.634  67.401  0.00  0.00    -0.010 A 
ATOM      3  C   UNL     1     -10.426  18.264  66.246  0.00  0.00    -0.004 A 
ATOM      4  C   UNL     1     -10.378  19.652  66.221  0.00  0.00    -0.000 A 
ATOM      5  C   UNL     1      -9.866  20.324  67.320  0.00  0.00    -0.000 A 
ATOM      6  C   UNL     1      -9.798  19.663  68.530  0.00  0.00    -0.000 A 
ATOM      7  C   UNL     1      -9.791  18.272  68.533  0.00  0.00    -0.004 A 
ENDBRANCH   1   2
BRANCH   1   8
ATOM      8  C   UNL     1      -9.565  15.317  67.194  0.00  0.00    +0.140 C 
ATOM      9  C   UNL     1      -9.661  15.480  65.687  0.00  0.00    +0.031 C 
ATOM     10  C   UNL     1     -10.327  14.252  65.147  0.00  0.00    +0.003 C 
ATOM     11  C   UNL     1      -9.950  13.169  66.109  0.00  0.00    +0.003 C 
ATOM     12  C   UNL     1      -9.837  13.884  67.409  0.00  0.00    +0.031 C 
ATOM     13  O   UNL     1      -8.442  15.852  67.655  0.00  0.00    -0.225 OA
ENDBRANCH   1   8
BRANCH   1  14
ATOM     14  C   UNL     1     -10.515  16.138  69.246  0.00  0.00    +0.323 C 
ATOM     15  O   UNL     1      -9.771  15.293  69.697  0.00  0.00    -0.250 OA
BRANCH  14  16
ATOM     16  O   UNL     1     -11.641  16.557  69.964  0.00  0.00    -0.447 OA
BRANCH  16  17
ATOM     17  C   UNL     1     -11.872  15.843  71.175  0.00  0.00    +0.226 C 
BRANCH  17  18
ATOM     18  C   UNL     1     -13.330  15.404  71.231  0.00  0.00    +0.120 C 
BRANCH  18  20
ATOM     19  C   UNL     1     -13.628  13.313  72.311  0.00  0.00    +0.090 C 
ATOM     20  N   UNL     1     -13.625  14.687  72.447  0.00  0.00    -0.267 NA
ATOM     21  C   UNL     1     -12.731  15.129  73.514  0.00  0.00    +0.090 C 
ENDBRANCH  18  20
ENDBRANCH  17  18
ENDBRANCH  16  17
ENDBRANCH  14  16
ENDBRANCH   1  14
TORSDOF 7
ENDMDL
MODEL 4
REMARK VINA RESULT:      -5.5      3.063      5.156
REMARK  Name = 
REMARK  7 active torsions:
REMARK  status: ('A' for Active; 'I' for Inactive)
REMARK    1  A    between atoms: N_2  and  C_4
REMARK    2  A    between atoms: C_4  and  C_5
REMARK    3  A    between atoms: C_5  and  O_6
REMARK    4  A    between atoms: O_6  and  C_7
REMARK    5  A    between atoms: C_7  and  C_9
REMARK    6  A    between atoms: C_9  and  C_10
REMARK    7  A    between atoms: C_9  and  C_16
REMARK                            x       y       z     vdW  Elec       q    Type
REMARK                         _______ _______ _______ _____ _____    ______ ____
ROOT
ATOM      1  C   UNL     1     -11.478  16.010  68.048  0.00  0.00    +0.149 C 
ENDROOT
BRANCH   1   2
ATOM      2  C   UNL     1     -10.118  16.741  68.517  0.00  0.00    -0.010 A 
ATOM      3  C   UNL     1      -9.063  16.074  68.958  0.00  0.00    -0.004 A 
ATOM      4  C   UNL     1      -7.803  16.644  68.836  0.00  0.00    -0.000 A 
ATOM      5  C   UNL     1      -7.705  18.000  68.564  0.00  0.00    -0.000 A 
ATOM      6  C   UNL     1      -8.799  18.651  68.032  0.00  0.00    -0.000 A 
ATOM      7  C   UNL     1     -10.061  18.095  68.211  0.00  0.00    -0.004 A 
ENDBRANCH   1   2
BRANCH   1   8
ATOM      8  C   UNL     1     -10.763  14.862  67.113  0.00  0.00    +0.140 C 
ATOM      9  C   UNL     1     -10.061  15.734  66.087  0.00  0.00    +0.031 C 
ATOM     10  C   UNL     1     -10.944  15.802  64.879  0.00  0.00    +0.003 C 
ATOM     11  C   UNL     1     -11.687  14.503  64.886  0.00  0.00    +0.003 C 
ATOM     12  C   UNL     1     -11.818  14.186  66.334  0.00  0.00    +0.031 C 
ATOM     13  O   UNL     1      -9.886  14.141  67.799  0.00  0.00    -0.225 OA
ENDBRANCH   1   8
BRANCH   1  14
ATOM     14  C   UNL     1     -11.604  15.072  69.357  0.00  0.00    +0.323 C 
ATOM     15  O   UNL     1     -12.214  14.024  69.319  0.00  0.00    -0.250 OA
BRANCH  14  16
ATOM     16  O   UNL     1     -11.684  15.907  70.478  0.00  0.00    -0.447 OA
BRANCH  16  17
ATOM     17  C   UNL     1     -11.682  15.223  71.728  0.00  0.00    +0.226 C 
BRANCH  17  18
ATOM     18  C   UNL     1     -12.853  15.712  72.572  0.00  0.00    +0.120 C 
BRANCH  18  20
ATOM     19  C   UNL     1     -14.899  15.097  71.541  0.00  0.00    +0.090 C 
ATOM     20  N   UNL     1     -13.968  14.800  72.516  0.00  0.00    -0.267 NA
ATOM     21  C   UNL     1     -13.482  13.427  72.407  0.00  0.00    +0.090 C 
ENDBRANCH  18  20
ENDBRANCH  17  18
ENDBRANCH  16  17
ENDBRANCH  14  16
ENDBRANCH   1  14
TORSDOF 7
ENDMDL
MODEL 5
REMARK VINA RESULT:      -5.5      2.934      5.474
REMARK  Name = 
REMARK  7 active torsions:
REMARK  status: ('A' for Active; 'I' for Inactive)
REMARK    1  A    between atoms: N_2  and  C_4
REMARK    2  A    between atoms: C_4  and  C_5
REMARK    3  A    between atoms: C_5  and  O_6
REMARK    4  A    between atoms: O_6  and  C_7
REMARK    5  A    between atoms: C_7  and  C_9
REMARK    6  A    between atoms: C_9  and  C_10
REMARK    7  A    between atoms: C_9  and  C_16
REMARK                            x       y       z     vdW  Elec       q    Type
REMARK                         _______ _______ _______ _____ _____    ______ ____
ROOT
ATOM      1  C   UNL     1     -11.879  14.513  68.499  0.00  0.00    +0.149 C 
ENDROOT
BRANCH   1   2
ATOM      2  C   UNL     1     -12.262  14.502  70.066  0.00  0.00    -0.010 A 
ATOM      3  C   UNL     1     -12.706  15.575  70.701  0.00  0.00    -0.004 A 
ATOM      4  C   UNL     1     -13.500  15.414  71.829  0.00  0.00    -0.000 A 
ATOM      5  C   UNL     1     -13.543  14.174  72.446  0.00  0.00    -0.000 A 
ATOM      6  C   UNL     1     -13.146  13.062  71.730  0.00  0.00    -0.000 A 
ATOM      7  C   UNL     1     -12.305  13.236  70.637  0.00  0.00    -0.004 A 
ENDBRANCH   1   2
BRANCH   1   8
ATOM      8  C   UNL     1     -10.407  15.229  68.668  0.00  0.00    +0.140 C 
ATOM      9  C   UNL     1     -10.755  16.667  68.328  0.00  0.00    +0.031 C 
ATOM     10  C   UNL     1     -10.408  16.882  66.888  0.00  0.00    +0.003 C 
ATOM     11  C   UNL     1      -9.273  15.941  66.633  0.00  0.00    +0.003 C 
ATOM     12  C   UNL     1      -9.558  14.798  67.542  0.00  0.00    +0.031 C 
ATOM     13  O   UNL     1      -9.953  15.134  69.911  0.00  0.00    -0.225 OA
ENDBRANCH   1   8
BRANCH   1  14
ATOM     14  C   UNL     1     -11.303  13.004  68.474  0.00  0.00    +0.323 C 
ATOM     15  O   UNL     1     -10.126  12.781  68.659  0.00  0.00    -0.250 OA
BRANCH  14  16
ATOM     16  O   UNL     1     -12.027  12.285  67.515  0.00  0.00    -0.447 OA
BRANCH  16  17
ATOM     17  C   UNL     1     -11.225  11.509  66.628  0.00  0.00    +0.226 C 
BRANCH  17  18
ATOM     18  C   UNL     1     -10.929  12.324  65.374  0.00  0.00    +0.120 C 
BRANCH  18  20
ATOM     19  C   UNL     1     -12.154  14.209  64.618  0.00  0.00    +0.090 C 
ATOM     20  N   UNL     1     -12.135  12.837  64.774  0.00  0.00    -0.267 NA
ATOM     21  C   UNL     1     -12.402  12.140  63.519  0.00  0.00    +0.090 C 
ENDBRANCH  18  20
ENDBRANCH  17  18
ENDBRANCH  16  17
ENDBRANCH  14  16
ENDBRANCH   1  14
TORSDOF 7
ENDMDL
MODEL 6
REMARK VINA RESULT:      -5.5      3.036      4.722
REMARK  Name = 
REMARK  7 active torsions:
REMARK  status: ('A' for Active; 'I' for Inactive)
REMARK    1  A    between atoms: N_2  and  C_4
REMARK    2  A    between atoms: C_4  and  C_5
REMARK    3  A    between atoms: C_5  and  O_6
REMARK    4  A    between atoms: O_6  and  C_7
REMARK    5  A    between atoms: C_7  and  C_9
REMARK    6  A    between atoms: C_9  and  C_10
REMARK    7  A    between atoms: C_9  and  C_16
REMARK                            x       y       z     vdW  Elec       q    Type
REMARK                         _______ _______ _______ _____ _____    ______ ____
ROOT
ATOM      1  C   UNL     1     -11.664  12.032  67.148  0.00  0.00    +0.149 C 
ENDROOT
BRANCH   1   2
ATOM      2  C   UNL     1     -11.494  13.515  66.533  0.00  0.00    -0.010 A 
ATOM      3  C   UNL     1     -10.454  14.287  66.805  0.00  0.00    -0.004 A 
ATOM      4  C   UNL     1     -10.080  15.264  65.893  0.00  0.00    -0.000 A 
ATOM      5  C   UNL     1     -10.971  15.625  64.894  0.00  0.00    -0.000 A 
ATOM      6  C   UNL     1     -12.001  14.762  64.581  0.00  0.00    -0.000 A 
ATOM      7  C   UNL     1     -12.401  13.825  65.527  0.00  0.00    -0.004 A 
ENDBRANCH   1   2
BRANCH   1   8
ATOM      8  C   UNL     1     -10.114  11.543  66.894  0.00  0.00    +0.140 C 
ATOM      9  C   UNL     1     -10.003  11.736  65.392  0.00  0.00    +0.031 C 
ATOM     10  C   UNL     1     -10.256  10.406  64.751  0.00  0.00    +0.003 C 
ATOM     11  C   UNL     1      -9.791   9.408  65.764  0.00  0.00    +0.003 C 
ATOM     12  C   UNL     1     -10.065  10.079  67.064  0.00  0.00    +0.031 C 
ATOM     13  O   UNL     1      -9.243  12.310  67.535  0.00  0.00    -0.225 OA
ENDBRANCH   1   8
BRANCH   1  14
ATOM     14  C   UNL     1     -11.425  12.478  68.682  0.00  0.00    +0.323 C 
ATOM     15  O   UNL     1     -11.310  11.651  69.562  0.00  0.00    -0.250 OA
BRANCH  14  16
ATOM     16  O   UNL     1     -12.138  13.663  68.901  0.00  0.00    -0.447 OA
BRANCH  16  17
ATOM     17  C   UNL     1     -12.315  14.003  70.273  0.00  0.00    +0.226 C 
BRANCH  17  18
ATOM     18  C   UNL     1     -12.535  15.506  70.395  0.00  0.00    +0.120 C 
BRANCH  18  20
ATOM     19  C   UNL     1     -14.280  14.990  71.917  0.00  0.00    +0.090 C 
ATOM     20  N   UNL     1     -13.241  15.845  71.605  0.00  0.00    -0.267 NA
ATOM     21  C   UNL     1     -12.297  15.982  72.711  0.00  0.00    +0.090 C 
ENDBRANCH  18  20
ENDBRANCH  17  18
ENDBRANCH  16  17
ENDBRANCH  14  16
ENDBRANCH   1  14
TORSDOF 7
ENDMDL
MODEL 7
REMARK VINA RESULT:      -5.4      2.923      4.779
REMARK  Name = 
REMARK  7 active torsions:
REMARK  status: ('A' for Active; 'I' for Inactive)
REMARK    1  A    between atoms: N_2  and  C_4
REMARK    2  A    between atoms: C_4  and  C_5
REMARK    3  A    between atoms: C_5  and  O_6
REMARK    4  A    between atoms: O_6  and  C_7
REMARK    5  A    between atoms: C_7  and  C_9
REMARK    6  A    between atoms: C_9  and  C_10
REMARK    7  A    between atoms: C_9  and  C_16
REMARK                            x       y       z     vdW  Elec       q    Type
REMARK                         _______ _______ _______ _____ _____    ______ ____
ROOT
ATOM      1  C   UNL     1     -12.093  13.771  67.759  0.00  0.00    +0.149 C 
ENDROOT
BRANCH   1   2
ATOM      2  C   UNL     1     -11.009  14.778  68.404  0.00  0.00    -0.010 A 
ATOM      3  C   UNL     1      -9.758  14.420  68.651  0.00  0.00    -0.004 A 
ATOM      4  C   UNL     1      -8.770  15.394  68.684  0.00  0.00    -0.000 A 
ATOM      5  C   UNL     1      -9.144  16.725  68.782  0.00  0.00    -0.000 A 
ATOM      6  C   UNL     1     -10.435  17.078  68.444  0.00  0.00    -0.000 A 
ATOM      7  C   UNL     1     -11.424  16.102  68.470  0.00  0.00    -0.004 A 
ENDBRANCH   1   2
BRANCH   1   8
ATOM      8  C   UNL     1     -11.146  13.240  66.524  0.00  0.00    +0.140 C 
ATOM      9  C   UNL     1     -10.922  14.536  65.764  0.00  0.00    +0.031 C 
ATOM     10  C   UNL     1     -11.917  14.575  64.645  0.00  0.00    +0.003 C 
ATOM     11  C   UNL     1     -12.157  13.137  64.309  0.00  0.00    +0.003 C 
ATOM     12  C   UNL     1     -11.988  12.442  65.614  0.00  0.00    +0.031 C 
ATOM     13  O   UNL     1      -9.995  12.745  66.961  0.00  0.00    -0.225 OA
ENDBRANCH   1   8
BRANCH   1  14
ATOM     14  C   UNL     1     -11.755  12.535  68.742  0.00  0.00    +0.323 C 
ATOM     15  O   UNL     1     -12.132  11.412  68.486  0.00  0.00    -0.250 OA
BRANCH  14  16
ATOM     16  O   UNL     1     -11.774  13.015  70.057  0.00  0.00    -0.447 OA
BRANCH  16  17
ATOM     17  C   UNL     1     -12.728  12.382  70.905  0.00  0.00    +0.226 C 
BRANCH  17  18
ATOM     18  C   UNL     1     -13.175  13.364  71.981  0.00  0.00    +0.120 C 
BRANCH  18  20
ATOM     19  C   UNL     1     -14.856  14.978  71.540  0.00  0.00    +0.090 C 
ATOM     20  N   UNL     1     -13.521  14.647  71.421  0.00  0.00    -0.267 NA
ATOM     21  C   UNL     1     -12.650  15.682  71.972  0.00  0.00    +0.090 C 
ENDBRANCH  18  20
ENDBRANCH  17  18
ENDBRANCH  16  17
ENDBRANCH  14  16
ENDBRANCH   1  14
TORSDOF 7
ENDMDL
MODEL 8
REMARK VINA RESULT:      -5.4      2.080      4.360
REMARK  Name = 
REMARK  7 active torsions:
REMARK  status: ('A' for Active; 'I' for Inactive)
REMARK    1  A    between atoms: N_2  and  C_4
REMARK    2  A    between atoms: C_4  and  C_5
REMARK    3  A    between atoms: C_5  and  O_6
REMARK    4  A    between atoms: O_6  and  C_7
REMARK    5  A    between atoms: C_7  and  C_9
REMARK    6  A    between atoms: C_9  and  C_10
REMARK    7  A    between atoms: C_9  and  C_16
REMARK                            x       y       z     vdW  Elec       q    Type
REMARK                         _______ _______ _______ _____ _____    ______ ____
ROOT
ATOM      1  C   UNL     1     -11.759  15.589  68.240  0.00  0.00    +0.149 C 
ENDROOT
BRANCH   1   2
ATOM      2  C   UNL     1     -11.397  14.591  67.025  0.00  0.00    -0.010 A 
ATOM      3  C   UNL     1     -11.943  13.392  66.897  0.00  0.00    -0.004 A 
ATOM      4  C   UNL     1     -12.031  12.820  65.636  0.00  0.00    -0.000 A 
ATOM      5  C   UNL     1     -11.272  13.351  64.605  0.00  0.00    -0.000 A 
ATOM      6  C   UNL     1     -10.780  14.634  64.735  0.00  0.00    -0.000 A 
ATOM      7  C   UNL     1     -10.647  15.172  66.010  0.00  0.00    -0.004 A 
ENDBRANCH   1   2
BRANCH   1   8
ATOM      8  C   UNL     1     -10.991  14.737  69.420  0.00  0.00    +0.140 C 
ATOM      9  C   UNL     1     -12.074  13.740  69.794  0.00  0.00    +0.031 C 
ATOM     10  C   UNL     1     -12.781  14.278  70.999  0.00  0.00    +0.003 C 
ATOM     11  C   UNL     1     -11.741  15.084  71.712  0.00  0.00    +0.003 C 
ATOM     12  C   UNL     1     -10.885  15.601  70.610  0.00  0.00    +0.031 C 
ATOM     13  O   UNL     1      -9.915  14.115  68.959  0.00  0.00    -0.225 OA
ENDBRANCH   1   8
BRANCH   1  14
ATOM     14  C   UNL     1     -10.531  16.604  67.973  0.00  0.00    +0.323 C 
ATOM     15  O   UNL     1      -9.407  16.336  68.342  0.00  0.00    -0.250 OA
BRANCH  14  16
ATOM     16  O   UNL     1     -11.024  17.910  68.069  0.00  0.00    -0.447 OA
BRANCH  16  17
ATOM     17  C   UNL     1     -10.577  18.790  67.040  0.00  0.00    +0.226 C 
BRANCH  17  18
ATOM     18  C   UNL     1      -9.893  19.997  67.672  0.00  0.00    +0.120 C 
BRANCH  18  20
ATOM     19  C   UNL     1      -7.775  19.434  68.579  0.00  0.00    +0.090 C 
ATOM     20  N   UNL     1      -8.463  19.949  67.498  0.00  0.00    -0.267 NA
ATOM     21  C   UNL     1      -8.134  19.251  66.258  0.00  0.00    +0.090 C 
ENDBRANCH  18  20
ENDBRANCH  17  18
ENDBRANCH  16  17
ENDBRANCH  14  16
ENDBRANCH   1  14
TORSDOF 7
ENDMDL
MODEL 9
REMARK VINA RESULT:      -5.3      1.509      2.186
REMARK  Name = 
REMARK  7 active torsions:
REMARK  status: ('A' for Active; 'I' for Inactive)
REMARK    1  A    between atoms: N_2  and  C_4
REMARK    2  A    between atoms: C_4  and  C_5
REMARK    3  A    between atoms: C_5  and  O_6
REMARK    4  A    between atoms: O_6  and  C_7
REMARK    5  A    between atoms: C_7  and  C_9
REMARK    6  A    between atoms: C_9  and  C_10
REMARK    7  A    between atoms: C_9  and  C_16
REMARK                            x       y       z     vdW  Elec       q    Type
REMARK                         _______ _______ _______ _____ _____    ______ ____
ROOT
ATOM      1  C   UNL     1     -10.565  13.405  65.963  0.00  0.00    +0.149 C 
ENDROOT
BRANCH   1   2
ATOM      2  C   UNL     1     -11.361  13.122  67.339  0.00  0.00    -0.010 A 
ATOM      3  C   UNL     1     -11.345  11.946  67.945  0.00  0.00    -0.004 A 
ATOM      4  C   UNL     1     -11.562  11.888  69.315  0.00  0.00    -0.000 A 
ATOM      5  C   UNL     1     -12.103  12.992  69.955  0.00  0.00    -0.000 A 
ATOM      6  C   UNL     1     -12.036  14.220  69.329  0.00  0.00    -0.000 A 
ATOM      7  C   UNL     1     -11.874  14.260  67.949  0.00  0.00    -0.004 A 
ENDBRANCH   1   2
BRANCH   1   8
ATOM      8  C   UNL     1     -11.330  12.260  65.063  0.00  0.00    +0.140 C 
ATOM      9  C   UNL     1     -10.567  11.017  65.485  0.00  0.00    +0.031 C 
ATOM     10  C   UNL     1      -9.517  10.764  64.448  0.00  0.00    +0.003 C 
ATOM     11  C   UNL     1     -10.099  11.314  63.185  0.00  0.00    +0.003 C 
ATOM     12  C   UNL     1     -10.937  12.451  63.654  0.00  0.00    +0.031 C 
ATOM     13  O   UNL     1     -12.613  12.157  65.381  0.00  0.00    -0.225 OA
ENDBRANCH   1   8
BRANCH   1  14
ATOM     14  C   UNL     1     -11.515  14.622  65.487  0.00  0.00    +0.323 C 
ATOM     15  O   UNL     1     -12.542  14.411  64.877  0.00  0.00    -0.250 OA
BRANCH  14  16
ATOM     16  O   UNL     1     -10.693  15.704  65.154  0.00  0.00    -0.447 OA
BRANCH  16  17
ATOM     17  C   UNL     1      -9.411  15.687  65.776  0.00  0.00    +0.226 C 
BRANCH  17  18
ATOM     18  C   UNL     1      -9.096  17.076  66.319  0.00  0.00    +0.120 C 
BRANCH  18  20
ATOM     19  C   UNL     1     -10.342  17.702  68.238  0.00  0.00    +0.090 C 
ATOM     20  N   UNL     1     -10.269  17.716  66.859  0.00  0.00    -0.267 NA
ATOM     21  C   UNL     1     -10.393  19.067  66.320  0.00  0.00    +0.090 C 
ENDBRANCH  18  20
ENDBRANCH  17  18
ENDBRANCH  16  17
ENDBRANCH  14  16
ENDBRANCH   1  14
TORSDOF 7
ENDMDL
