MODEL 1
REMARK VINA RESULT:      -5.9      0.000      0.000
REMARK  Name = 
REMARK  2 active torsions:
REMARK  status: ('A' for Active; 'I' for Inactive)
REMARK    1  A    between atoms: C_8  and  N_9
REMARK    2  A    between atoms: C_10  and  C_12
REMARK                            x       y       z     vdW  Elec       q    Type
REMARK                         _______ _______ _______ _____ _____    ______ ____
ROOT
ATOM      1  N   UNL     1      -9.489  15.275  66.451  0.00  0.00    -0.179 NA
ATOM      2  C   UNL     1     -10.563  15.039  65.552  0.00  0.00    +0.260 C 
ATOM      3  O   UNL     1     -10.774  15.989  64.731  0.00  0.00    -0.272 OA
ENDROOT
BRANCH   1   6
ATOM      4  C   UNL     1      -7.648  17.070  66.095  0.00  0.00    +0.032 C 
ATOM      5  C   UNL     1      -8.365  17.366  66.679  0.00  0.00    -0.007 A 
ATOM      6  C   UNL     1      -9.394  16.529  67.098  0.00  0.00    +0.065 A 
ATOM      7  C   UNL     1     -10.294  16.848  68.079  0.00  0.00    -0.007 A 
ATOM      8  C   UNL     1     -11.402  15.972  68.516  0.00  0.00    +0.032 C 
ATOM      9  C   UNL     1     -10.166  18.048  68.752  0.00  0.00    -0.003 A 
ATOM     10  C   UNL     1      -9.236  18.948  68.312  0.00  0.00    -0.001 A 
ATOM     11  C   UNL     1      -8.428  18.647  67.219  0.00  0.00    -0.003 A 
ENDBRANCH   1   6
BRANCH   2  12
ATOM     12  C   UNL     1     -10.411  13.726  64.619  0.00  0.00    +0.137 C 
ATOM     13  N   UNL     1     -10.685  12.718  65.798  0.00  0.00    -0.265 NA
ATOM     14  C   UNL     1     -11.952  12.923  66.329  0.00  0.00    +0.090 C 
ATOM     15  C   UNL     1     -10.587  11.420  65.170  0.00  0.00    +0.073 C 
ATOM     16  C   UNL     1     -11.136  11.490  63.769  0.00  0.00    +0.017 C 
ATOM     17  C   UNL     1     -12.315  12.417  63.669  0.00  0.00    +0.003 C 
ATOM     18  C   UNL     1     -11.990  13.800  64.152  0.00  0.00    +0.025 C 
ENDBRANCH   2  12
TORSDOF 2
ENDMDL
MODEL 2
REMARK VINA RESULT:      -5.9      2.012      5.769
REMARK  Name = 
REMARK  2 active torsions:
REMARK  status: ('A' for Active; 'I' for Inactive)
REMARK    1  A    between atoms: C_8  and  N_9
REMARK    2  A    between atoms: C_10  and  C_12
REMARK                            x       y       z     vdW  Elec       q    Type
REMARK                         _______ _______ _______ _____ _____    ______ ____
ROOT
ATOM      1  N   UNL     1     -11.573  15.131  67.317  0.00  0.00    -0.179 NA
ATOM      2  C   UNL     1     -10.329  15.814  67.379  0.00  0.00    +0.260 C 
ATOM      3  O   UNL     1      -9.333  15.118  66.999  0.00  0.00    -0.272 OA
ENDROOT
BRANCH   1   6
ATOM      4  C   UNL     1     -11.827  12.955  65.924  0.00  0.00    +0.032 C 
ATOM      5  C   UNL     1     -11.702  12.791  66.874  0.00  0.00    -0.007 A 
ATOM      6  C   UNL     1     -11.660  13.811  67.818  0.00  0.00    +0.065 A 
ATOM      7  C   UNL     1     -11.699  13.608  69.171  0.00  0.00    -0.007 A 
ATOM      8  C   UNL     1     -11.635  14.685  70.182  0.00  0.00    +0.032 C 
ATOM      9  C   UNL     1     -11.844  12.324  69.660  0.00  0.00    -0.003 A 
ATOM     10  C   UNL     1     -11.789  11.279  68.779  0.00  0.00    -0.001 A 
ATOM     11  C   UNL     1     -11.608  11.515  67.420  0.00  0.00    -0.003 A 
ENDBRANCH   1   6
BRANCH   2  12
ATOM     12  C   UNL     1     -10.237  17.167  66.497  0.00  0.00    +0.137 C 
ATOM     13  N   UNL     1     -10.765  18.093  67.656  0.00  0.00    -0.265 NA
ATOM     14  C   UNL     1      -9.910  18.040  68.750  0.00  0.00    +0.090 C 
ATOM     15  C   UNL     1     -10.774  19.413  67.065  0.00  0.00    +0.073 C 
ATOM     16  C   UNL     1      -9.604  19.557  66.128  0.00  0.00    +0.017 C 
ATOM     17  C   UNL     1      -8.383  18.837  66.630  0.00  0.00    +0.003 C 
ATOM     18  C   UNL     1      -8.648  17.382  66.883  0.00  0.00    +0.025 C 
ENDBRANCH   2  12
TORSDOF 2
ENDMDL
MODEL 3
REMARK VINA RESULT:      -5.9      3.389      6.219
REMARK  Name = 
REMARK  2 active torsions:
REMARK  status: ('A' for Active; 'I' for Inactive)
REMARK    1  A    between atoms: C_8  and  N_9
REMARK    2  A    between atoms: C_10  and  C_12
REMARK                            x       y       z     vdW  Elec       q    Type
REMARK                         _______ _______ _______ _____ _____    ______ ____
ROOT
ATOM      1  N   UNL     1     -12.037  15.460  68.575  0.00  0.00    -0.179 NA
ATOM      2  C   UNL     1     -11.555  15.161  69.878  0.00  0.00    +0.260 C 
ATOM      3  O   UNL     1     -10.326  15.439  70.055  0.00  0.00    -0.272 OA
ENDROOT
BRANCH   1   6
ATOM      4  C   UNL     1     -11.805  13.069  67.592  0.00  0.00    +0.032 C 
ATOM      5  C   UNL     1     -11.368  13.750  67.054  0.00  0.00    -0.007 A 
ATOM      6  C   UNL     1     -11.268  15.079  67.451  0.00  0.00    +0.065 A 
ATOM      7  C   UNL     1     -10.484  16.011  66.828  0.00  0.00    -0.007 A 
ATOM      8  C   UNL     1     -10.387  17.430  67.231  0.00  0.00    +0.032 C 
ATOM      9  C   UNL     1      -9.687  15.626  65.766  0.00  0.00    -0.003 A 
ATOM     10  C   UNL     1      -9.822  14.357  65.274  0.00  0.00    -0.001 A 
ATOM     11  C   UNL     1     -10.734  13.476  65.846  0.00  0.00    -0.003 A 
ENDBRANCH   1   6
BRANCH   2  12
ATOM     12  C   UNL     1     -12.318  15.914  71.089  0.00  0.00    +0.137 C 
ATOM     13  N   UNL     1     -13.500  14.873  71.142  0.00  0.00    -0.265 NA
ATOM     14  C   UNL     1     -13.019  13.604  71.442  0.00  0.00    +0.090 C 
ATOM     15  C   UNL     1     -14.350  15.371  72.199  0.00  0.00    +0.073 C 
ATOM     16  C   UNL     1     -13.505  15.976  73.288  0.00  0.00    +0.017 C 
ATOM     17  C   UNL     1     -12.218  15.226  73.489  0.00  0.00    +0.003 C 
ATOM     18  C   UNL     1     -11.416  15.130  72.225  0.00  0.00    +0.025 C 
ENDBRANCH   2  12
TORSDOF 2
ENDMDL
MODEL 4
REMARK VINA RESULT:      -5.9      1.640      2.730
REMARK  Name = 
REMARK  2 active torsions:
REMARK  status: ('A' for Active; 'I' for Inactive)
REMARK    1  A    between atoms: C_8  and  N_9
REMARK    2  A    between atoms: C_10  and  C_12
REMARK                            x       y       z     vdW  Elec       q    Type
REMARK                         _______ _______ _______ _____ _____    ______ ____
ROOT
ATOM      1  N   UNL     1      -9.717  17.125  65.749  0.00  0.00    -0.179 NA
ATOM      2  C   UNL     1     -10.186  16.054  66.556  0.00  0.00    +0.260 C 
ATOM      3  O   UNL     1     -10.781  16.425  67.619  0.00  0.00    -0.272 OA
ENDROOT
BRANCH   1   6
ATOM      4  C   UNL     1     -10.594  19.549  66.059  0.00  0.00    +0.032 C 
ATOM      5  C   UNL     1      -9.739  19.391  66.494  0.00  0.00    -0.007 A 
ATOM      6  C   UNL     1      -9.031  18.201  66.362  0.00  0.00    +0.065 A 
ATOM      7  C   UNL     1      -7.741  18.022  66.781  0.00  0.00    -0.007 A 
ATOM      8  C   UNL     1      -6.989  16.756  66.662  0.00  0.00    +0.032 C 
ATOM      9  C   UNL     1      -7.052  19.090  67.326  0.00  0.00    -0.003 A 
ATOM     10  C   UNL     1      -7.732  20.251  67.570  0.00  0.00    -0.001 A 
ATOM     11  C   UNL     1      -9.084  20.352  67.258  0.00  0.00    -0.003 A 
ENDBRANCH   1   6
BRANCH   2  12
ATOM     12  C   UNL     1     -11.231  15.050  65.836  0.00  0.00    +0.137 C 
ATOM     13  N   UNL     1     -10.108  14.082  65.305  0.00  0.00    -0.265 NA
ATOM     14  C   UNL     1      -9.395  13.535  66.365  0.00  0.00    +0.090 C 
ATOM     15  C   UNL     1     -10.843  13.063  64.590  0.00  0.00    +0.073 C 
ATOM     16  C   UNL     1     -12.146  12.789  65.293  0.00  0.00    +0.017 C 
ATOM     17  C   UNL     1     -12.013  12.877  66.788  0.00  0.00    +0.003 C 
ATOM     18  C   UNL     1     -11.472  14.205  67.231  0.00  0.00    +0.025 C 
ENDBRANCH   2  12
TORSDOF 2
ENDMDL
MODEL 5
REMARK VINA RESULT:      -5.7      3.204      5.871
REMARK  Name = 
REMARK  2 active torsions:
REMARK  status: ('A' for Active; 'I' for Inactive)
REMARK    1  A    between atoms: C_8  and  N_9
REMARK    2  A    between atoms: C_10  and  C_12
REMARK                            x       y       z     vdW  Elec       q    Type
REMARK                         _______ _______ _______ _____ _____    ______ ____
ROOT
ATOM      1  N   UNL     1     -10.720  15.423  70.490  0.00  0.00    -0.179 NA
ATOM      2  C   UNL     1     -10.886  15.868  69.151  0.00  0.00    +0.260 C 
ATOM      3  O   UNL     1     -11.982  16.479  68.937  0.00  0.00    -0.272 OA
ENDROOT
BRANCH   1   6
ATOM      4  C   UNL     1     -11.993  16.247  72.597  0.00  0.00    +0.032 C 
ATOM      5  C   UNL     1     -12.380  15.448  72.202  0.00  0.00    -0.007 A 
ATOM      6  C   UNL     1     -11.795  14.770  71.138  0.00  0.00    +0.065 A 
ATOM      7  C   UNL     1     -12.193  13.537  70.698  0.00  0.00    -0.007 A 
ATOM      8  C   UNL     1     -11.589  12.818  69.557  0.00  0.00    +0.032 C 
ATOM      9  C   UNL     1     -13.204  12.873  71.368  0.00  0.00    -0.003 A 
ATOM     10  C   UNL     1     -13.879  13.536  72.356  0.00  0.00    -0.001 A 
ATOM     11  C   UNL     1     -13.538  14.845  72.683  0.00  0.00    -0.003 A 
ENDBRANCH   1   6
BRANCH   2  12
ATOM     12  C   UNL     1      -9.747  16.882  68.611  0.00  0.00    +0.137 C 
ATOM     13  N   UNL     1      -8.674  15.747  68.408  0.00  0.00    -0.265 NA
ATOM     14  C   UNL     1      -9.122  14.812  67.482  0.00  0.00    +0.090 C 
ATOM     15  C   UNL     1      -7.514  16.455  67.914  0.00  0.00    +0.073 C 
ATOM     16  C   UNL     1      -7.951  17.585  67.021  0.00  0.00    +0.017 C 
ATOM     17  C   UNL     1      -9.163  17.227  66.206  0.00  0.00    +0.003 C 
ATOM     18  C   UNL     1     -10.314  16.791  67.065  0.00  0.00    +0.025 C 
ENDBRANCH   2  12
TORSDOF 2
ENDMDL
MODEL 6
REMARK VINA RESULT:      -5.6      1.613      2.419
REMARK  Name = 
REMARK  2 active torsions:
REMARK  status: ('A' for Active; 'I' for Inactive)
REMARK    1  A    between atoms: C_8  and  N_9
REMARK    2  A    between atoms: C_10  and  C_12
REMARK                            x       y       z     vdW  Elec       q    Type
REMARK                         _______ _______ _______ _____ _____    ______ ____
ROOT
ATOM      1  N   UNL     1      -9.321  17.032  65.734  0.00  0.00    -0.179 NA
ATOM      2  C   UNL     1     -10.026  16.048  66.477  0.00  0.00    +0.260 C 
ATOM      3  O   UNL     1     -10.705  16.516  67.448  0.00  0.00    -0.272 OA
ENDROOT
BRANCH   1   6
ATOM      4  C   UNL     1      -7.020  16.738  66.899  0.00  0.00    +0.032 C 
ATOM      5  C   UNL     1      -7.334  17.657  66.893  0.00  0.00    -0.007 A 
ATOM      6  C   UNL     1      -8.590  18.026  66.425  0.00  0.00    +0.065 A 
ATOM      7  C   UNL     1      -9.141  19.267  66.596  0.00  0.00    -0.007 A 
ATOM      8  C   UNL     1     -10.468  19.672  66.085  0.00  0.00    +0.032 C 
ATOM      9  C   UNL     1      -8.453  20.220  67.322  0.00  0.00    -0.003 A 
ATOM     10  C   UNL     1      -7.173  19.942  67.718  0.00  0.00    -0.001 A 
ATOM     11  C   UNL     1      -6.592  18.718  67.405  0.00  0.00    -0.003 A 
ENDBRANCH   1   6
BRANCH   2  12
ATOM     12  C   UNL     1     -11.087  15.168  65.631  0.00  0.00    +0.137 C 
ATOM     13  N   UNL     1     -10.028  14.075  65.225  0.00  0.00    -0.265 NA
ATOM     14  C   UNL     1      -9.511  13.454  66.355  0.00  0.00    +0.090 C 
ATOM     15  C   UNL     1     -10.786  13.144  64.419  0.00  0.00    +0.073 C 
ATOM     16  C   UNL     1     -12.184  13.024  64.963  0.00  0.00    +0.017 C 
ATOM     17  C   UNL     1     -12.218  13.101  66.464  0.00  0.00    +0.003 C 
ATOM     18  C   UNL     1     -11.585  14.360  66.979  0.00  0.00    +0.025 C 
ENDBRANCH   2  12
TORSDOF 2
ENDMDL
MODEL 7
REMARK VINA RESULT:      -5.6      1.810      5.925
REMARK  Name = 
REMARK  2 active torsions:
REMARK  status: ('A' for Active; 'I' for Inactive)
REMARK    1  A    between atoms: C_8  and  N_9
REMARK    2  A    between atoms: C_10  and  C_12
REMARK                            x       y       z     vdW  Elec       q    Type
REMARK                         _______ _______ _______ _____ _____    ______ ____
ROOT
ATOM      1  N   UNL     1     -11.370  15.042  66.805  0.00  0.00    -0.179 NA
ATOM      2  C   UNL     1     -10.196  15.812  67.017  0.00  0.00    +0.260 C 
ATOM      3  O   UNL     1      -9.126  15.253  66.610  0.00  0.00    -0.272 OA
ENDROOT
BRANCH   1   6
ATOM      4  C   UNL     1     -11.531  14.021  69.186  0.00  0.00    +0.032 C 
ATOM      5  C   UNL     1     -11.551  13.354  68.480  0.00  0.00    -0.007 A 
ATOM      6  C   UNL     1     -11.363  13.667  67.138  0.00  0.00    +0.065 A 
ATOM      7  C   UNL     1     -11.174  12.739  66.150  0.00  0.00    -0.007 A 
ATOM      8  C   UNL     1     -10.993  13.063  64.719  0.00  0.00    +0.032 C 
ATOM      9  C   UNL     1     -11.108  11.399  66.483  0.00  0.00    -0.003 A 
ATOM     10  C   UNL     1     -11.386  11.031  67.770  0.00  0.00    -0.001 A 
ATOM     11  C   UNL     1     -11.712  11.993  68.721  0.00  0.00    -0.003 A 
ENDBRANCH   1   6
BRANCH   2  12
ATOM     12  C   UNL     1     -10.184  17.268  66.312  0.00  0.00    +0.137 C 
ATOM     13  N   UNL     1     -10.726  18.015  67.588  0.00  0.00    -0.265 NA
ATOM     14  C   UNL     1      -9.845  17.865  68.652  0.00  0.00    +0.090 C 
ATOM     15  C   UNL     1     -10.807  19.396  67.169  0.00  0.00    +0.073 C 
ATOM     16  C   UNL     1      -9.668  19.712  66.237  0.00  0.00    +0.017 C 
ATOM     17  C   UNL     1      -8.404  18.994  66.622  0.00  0.00    +0.003 C 
ATOM     18  C   UNL     1      -8.598  17.508  66.694  0.00  0.00    +0.025 C 
ENDBRANCH   2  12
TORSDOF 2
ENDMDL
MODEL 8
REMARK VINA RESULT:      -5.6      1.629      6.001
REMARK  Name = 
REMARK  2 active torsions:
REMARK  status: ('A' for Active; 'I' for Inactive)
REMARK    1  A    between atoms: C_8  and  N_9
REMARK    2  A    between atoms: C_10  and  C_12
REMARK                            x       y       z     vdW  Elec       q    Type
REMARK                         _______ _______ _______ _____ _____    ______ ____
ROOT
ATOM      1  N   UNL     1      -9.652  15.438  65.812  0.00  0.00    -0.179 NA
ATOM      2  C   UNL     1     -10.131  16.394  66.747  0.00  0.00    +0.260 C 
ATOM      3  O   UNL     1     -10.650  15.885  67.793  0.00  0.00    -0.272 OA
ENDROOT
BRANCH   1   6
ATOM      4  C   UNL     1     -11.807  15.470  64.366  0.00  0.00    +0.032 C 
ATOM      5  C   UNL     1     -11.526  14.575  64.616  0.00  0.00    -0.007 A 
ATOM      6  C   UNL     1     -10.466  14.328  65.482  0.00  0.00    +0.065 A 
ATOM      7  C   UNL     1     -10.178  13.102  66.017  0.00  0.00    -0.007 A 
ATOM      8  C   UNL     1      -9.043  12.829  66.923  0.00  0.00    +0.032 C 
ATOM      9  C   UNL     1     -11.008  12.032  65.742  0.00  0.00    -0.003 A 
ATOM     10  C   UNL     1     -12.003  12.196  64.819  0.00  0.00    -0.001 A 
ATOM     11  C   UNL     1     -12.180  13.423  64.187  0.00  0.00    -0.003 A 
ENDBRANCH   1   6
BRANCH   2  12
ATOM     12  C   UNL     1      -9.023  17.430  67.309  0.00  0.00    +0.137 C 
ATOM     13  N   UNL     1      -9.178  18.427  66.100  0.00  0.00    -0.265 NA
ATOM     14  C   UNL     1     -10.476  18.922  66.041  0.00  0.00    +0.090 C 
ATOM     15  C   UNL     1      -8.232  19.479  66.398  0.00  0.00    +0.073 C 
ATOM     16  C   UNL     1      -8.185  19.713  67.885  0.00  0.00    +0.017 C 
ATOM     17  C   UNL     1      -9.534  19.549  68.528  0.00  0.00    +0.003 C 
ATOM     18  C   UNL     1     -10.134  18.203  68.250  0.00  0.00    +0.025 C 
ENDBRANCH   2  12
TORSDOF 2
ENDMDL
MODEL 9
REMARK VINA RESULT:      -5.5      3.335      4.702
REMARK  Name = 
REMARK  2 active torsions:
REMARK  status: ('A' for Active; 'I' for Inactive)
REMARK    1  A    between atoms: C_8  and  N_9
REMARK    2  A    between atoms: C_10  and  C_12
REMARK                            x       y       z     vdW  Elec       q    Type
REMARK                         _______ _______ _______ _____ _____    ______ ____
ROOT
ATOM      1  N   UNL     1     -11.137  13.299  69.521  0.00  0.00    -0.179 NA
ATOM      2  C   UNL     1     -11.604  12.910  68.237  0.00  0.00    +0.260 C 
ATOM      3  O   UNL     1     -12.414  13.737  67.705  0.00  0.00    -0.272 OA
ENDROOT
BRANCH   1   6
ATOM      4  C   UNL     1     -11.542  15.778  70.176  0.00  0.00    +0.032 C 
ATOM      5  C   UNL     1     -12.168  15.163  70.594  0.00  0.00    -0.007 A 
ATOM      6  C   UNL     1     -12.064  13.781  70.475  0.00  0.00    +0.065 A 
ATOM      7  C   UNL     1     -12.791  12.888  71.214  0.00  0.00    -0.007 A 
ATOM      8  C   UNL     1     -12.701  11.419  71.080  0.00  0.00    +0.032 C 
ATOM      9  C   UNL     1     -13.653  13.358  72.187  0.00  0.00    -0.003 A 
ATOM     10  C   UNL     1     -13.867  14.706  72.276  0.00  0.00    -0.001 A 
ATOM     11  C   UNL     1     -13.214  15.579  71.412  0.00  0.00    -0.003 A 
ENDBRANCH   1   6
BRANCH   2  12
ATOM     12  C   UNL     1     -10.456  12.693  67.118  0.00  0.00    +0.137 C 
ATOM     13  N   UNL     1     -10.024  11.284  67.673  0.00  0.00    -0.265 NA
ATOM     14  C   UNL     1     -11.086  10.390  67.613  0.00  0.00    +0.090 C 
ATOM     15  C   UNL     1      -8.953  10.880  66.790  0.00  0.00    +0.073 C 
ATOM     16  C   UNL     1      -9.241  11.356  65.391  0.00  0.00    +0.017 C 
ATOM     17  C   UNL     1     -10.707  11.295  65.063  0.00  0.00    +0.003 C 
ATOM     18  C   UNL     1     -11.538  12.073  66.040  0.00  0.00    +0.025 C 
ENDBRANCH   2  12
TORSDOF 2
ENDMDL
