MODEL 1
REMARK VINA RESULT:      -7.1      0.000      0.000
REMARK  Name = 
REMARK  6 active torsions:
REMARK  status: ('A' for Active; 'I' for Inactive)
REMARK    1  A    between atoms: C_2  and  N_3
REMARK    2  A    between atoms: C_5  and  C_6
REMARK    3  A    between atoms: C_6  and  C_7
REMARK    4  A    between atoms: C_7  and  N_8
REMARK    5  A    between atoms: C_14  and  C_15
REMARK    6  A    between atoms: C_14  and  C_21
REMARK                            x       y       z     vdW  Elec       q    Type
REMARK                         _______ _______ _______ _____ _____    ______ ____
ROOT
ATOM      1  N   UNL     1     -11.778  14.197  66.379  0.00  0.00    -0.279 N 
ATOM      2  C   UNL     1     -10.591  14.900  66.056  0.00  0.00    +0.232 C 
ATOM      3  O   UNL     1     -10.010  14.930  64.930  0.00  0.00    -0.274 OA
ATOM      4  C   UNL     1     -10.086  15.655  67.209  0.00  0.00    +0.108 C 
ATOM      5  C   UNL     1     -11.439  15.749  68.133  0.00  0.00    +0.037 C 
ATOM      6  C   UNL     1     -11.838  14.179  67.820  0.00  0.00    +0.095 C 
ENDROOT
BRANCH   4   7
ATOM      7  C   UNL     1      -9.008  15.026  67.891  0.00  0.00    -0.011 A 
ATOM      8  C   UNL     1      -8.389  13.919  67.317  0.00  0.00    -0.004 A 
ATOM      9  C   UNL     1      -7.039  13.650  67.507  0.00  0.00    -0.000 A 
ATOM     10  C   UNL     1      -6.533  14.041  68.741  0.00  0.00    -0.000 A 
ATOM     11  C   UNL     1      -7.192  15.057  69.422  0.00  0.00    -0.000 A 
ATOM     12  C   UNL     1      -8.182  15.758  68.739  0.00  0.00    -0.004 A 
ENDBRANCH   4   7
BRANCH   4  13
ATOM     13  C   UNL     1      -9.837  17.060  66.749  0.00  0.00    -0.011 A 
ATOM     14  C   UNL     1     -10.607  18.006  67.416  0.00  0.00    -0.004 A 
ATOM     15  C   UNL     1     -10.195  19.311  67.607  0.00  0.00    -0.000 A 
ATOM     16  C   UNL     1      -8.825  19.543  67.625  0.00  0.00    -0.000 A 
ATOM     17  C   UNL     1      -8.102  18.761  66.732  0.00  0.00    -0.000 A 
ATOM     18  C   UNL     1      -8.557  17.494  66.416  0.00  0.00    -0.004 A 
ENDBRANCH   4  13
BRANCH   1  20
ATOM     19  C   UNL     1     -11.357  11.800  66.259  0.00  0.00    +0.023 C 
ATOM     20  C   UNL     1     -12.072  12.962  65.654  0.00  0.00    +0.093 C 
ENDBRANCH   1  20
BRANCH   5  21
ATOM     21  C   UNL     1     -10.700  15.320  69.546  0.00  0.00    +0.020 C 
BRANCH  21  22
ATOM     22  C   UNL     1     -11.402  16.048  70.641  0.00  0.00    +0.072 C 
BRANCH  22  23
ATOM     23  N   UNL     1     -11.776  15.233  71.766  0.00  0.00    -0.268 NA
ATOM     24  C   UNL     1     -12.793  14.333  71.344  0.00  0.00    +0.105 C 
ATOM     25  C   UNL     1     -14.182  14.651  71.761  0.00  0.00    +0.159 C 
ATOM     26  O   UNL     1     -14.328  15.893  72.353  0.00  0.00    -0.351 OA
ATOM     27  C   UNL     1     -13.454  15.911  73.445  0.00  0.00    +0.159 C 
ATOM     28  C   UNL     1     -12.065  16.022  72.919  0.00  0.00    +0.105 C 
ENDBRANCH  22  23
ENDBRANCH  21  22
ENDBRANCH   5  21
TORSDOF 6
ENDMDL
MODEL 2
REMARK VINA RESULT:      -6.7      1.648      4.232
REMARK  Name = 
REMARK  6 active torsions:
REMARK  status: ('A' for Active; 'I' for Inactive)
REMARK    1  A    between atoms: C_2  and  N_3
REMARK    2  A    between atoms: C_5  and  C_6
REMARK    3  A    between atoms: C_6  and  C_7
REMARK    4  A    between atoms: C_7  and  N_8
REMARK    5  A    between atoms: C_14  and  C_15
REMARK    6  A    between atoms: C_14  and  C_21
REMARK                            x       y       z     vdW  Elec       q    Type
REMARK                         _______ _______ _______ _____ _____    ______ ____
ROOT
ATOM      1  N   UNL     1      -7.408  15.183  68.723  0.00  0.00    -0.279 N 
ATOM      2  C   UNL     1      -7.670  15.782  67.467  0.00  0.00    +0.232 C 
ATOM      3  O   UNL     1      -6.836  15.986  66.535  0.00  0.00    -0.274 OA
ATOM      4  C   UNL     1      -9.088  16.139  67.328  0.00  0.00    +0.108 C 
ATOM      5  C   UNL     1      -9.762  15.173  68.471  0.00  0.00    +0.037 C 
ATOM      6  C   UNL     1      -8.551  15.493  69.546  0.00  0.00    +0.095 C 
ENDROOT
BRANCH   4   7
ATOM      7  C   UNL     1      -9.366  17.516  67.552  0.00  0.00    -0.011 A 
ATOM      8  C   UNL     1      -8.318  18.388  67.833  0.00  0.00    -0.004 A 
ATOM      9  C   UNL     1      -8.344  19.721  67.440  0.00  0.00    -0.000 A 
ATOM     10  C   UNL     1      -9.608  20.298  67.414  0.00  0.00    -0.000 A 
ATOM     11  C   UNL     1     -10.705  19.457  67.266  0.00  0.00    -0.000 A 
ATOM     12  C   UNL     1     -10.460  18.125  66.944  0.00  0.00    -0.004 A 
ENDBRANCH   4   7
BRANCH   4  13
ATOM     13  C   UNL     1      -9.564  15.579  66.022  0.00  0.00    -0.011 A 
ATOM     14  C   UNL     1      -9.681  14.194  66.022  0.00  0.00    -0.004 A 
ATOM     15  C   UNL     1     -10.586  13.515  65.230  0.00  0.00    -0.000 A 
ATOM     16  C   UNL     1     -11.730  14.205  64.848  0.00  0.00    -0.000 A 
ATOM     17  C   UNL     1     -11.522  15.553  64.582  0.00  0.00    -0.000 A 
ATOM     18  C   UNL     1     -10.532  16.235  65.266  0.00  0.00    -0.004 A 
ENDBRANCH   4  13
BRANCH   1  20
ATOM     19  C   UNL     1      -5.898  16.688  69.903  0.00  0.00    +0.023 C 
ATOM     20  C   UNL     1      -6.074  15.334  69.300  0.00  0.00    +0.093 C 
ENDBRANCH   1  20
BRANCH   5  21
ATOM     21  C   UNL     1     -10.715  16.348  69.134  0.00  0.00    +0.020 C 
BRANCH  21  22
ATOM     22  C   UNL     1     -11.968  15.682  69.591  0.00  0.00    +0.072 C 
BRANCH  22  23
ATOM     23  N   UNL     1     -11.891  15.075  70.892  0.00  0.00    -0.268 NA
ATOM     24  C   UNL     1     -12.909  14.088  70.984  0.00  0.00    +0.105 C 
ATOM     25  C   UNL     1     -14.111  14.440  71.781  0.00  0.00    +0.159 C 
ATOM     26  O   UNL     1     -14.162  15.765  72.179  0.00  0.00    -0.351 OA
ATOM     27  C   UNL     1     -12.987  16.001  72.900  0.00  0.00    +0.159 C 
ATOM     28  C   UNL     1     -11.856  16.051  71.932  0.00  0.00    +0.105 C 
ENDBRANCH  22  23
ENDBRANCH  21  22
ENDBRANCH   5  21
TORSDOF 6
ENDMDL
MODEL 3
REMARK VINA RESULT:      -6.7      1.564      4.332
REMARK  Name = 
REMARK  6 active torsions:
REMARK  status: ('A' for Active; 'I' for Inactive)
REMARK    1  A    between atoms: C_2  and  N_3
REMARK    2  A    between atoms: C_5  and  C_6
REMARK    3  A    between atoms: C_6  and  C_7
REMARK    4  A    between atoms: C_7  and  N_8
REMARK    5  A    between atoms: C_14  and  C_15
REMARK    6  A    between atoms: C_14  and  C_21
REMARK                            x       y       z     vdW  Elec       q    Type
REMARK                         _______ _______ _______ _____ _____    ______ ____
ROOT
ATOM      1  N   UNL     1      -9.154  18.360  67.583  0.00  0.00    -0.279 N 
ATOM      2  C   UNL     1      -8.783  17.224  66.823  0.00  0.00    +0.232 C 
ATOM      3  O   UNL     1      -8.092  17.214  65.761  0.00  0.00    -0.274 OA
ATOM      4  C   UNL     1      -9.280  15.985  67.435  0.00  0.00    +0.108 C 
ATOM      5  C   UNL     1      -9.545  16.486  68.975  0.00  0.00    +0.037 C 
ATOM      6  C   UNL     1     -10.204  17.911  68.465  0.00  0.00    +0.095 C 
ENDROOT
BRANCH   4   7
ATOM      7  C   UNL     1     -10.455  15.465  66.825  0.00  0.00    -0.011 A 
ATOM      8  C   UNL     1     -10.842  15.936  65.574  0.00  0.00    -0.004 A 
ATOM      9  C   UNL     1     -11.500  15.129  64.655  0.00  0.00    -0.000 A 
ATOM     10  C   UNL     1     -12.335  14.169  65.213  0.00  0.00    -0.000 A 
ATOM     11  C   UNL     1     -12.073  13.754  66.513  0.00  0.00    -0.000 A 
ATOM     12  C   UNL     1     -10.877  14.166  67.095  0.00  0.00    -0.004 A 
ENDBRANCH   4   7
BRANCH   4  13
ATOM     13  C   UNL     1      -8.120  15.039  67.533  0.00  0.00    -0.011 A 
ATOM     14  C   UNL     1      -7.534  15.012  68.793  0.00  0.00    -0.004 A 
ATOM     15  C   UNL     1      -6.892  13.898  69.299  0.00  0.00    -0.000 A 
ATOM     16  C   UNL     1      -7.290  12.662  68.805  0.00  0.00    -0.000 A 
ATOM     17  C   UNL     1      -7.611  12.665  67.453  0.00  0.00    -0.000 A 
ATOM     18  C   UNL     1      -8.135  13.810  66.881  0.00  0.00    -0.004 A 
ENDBRANCH   4  13
BRANCH   1  20
ATOM     19  C   UNL     1     -10.564  19.626  66.050  0.00  0.00    +0.023 C 
ATOM     20  C   UNL     1      -9.328  19.634  66.887  0.00  0.00    +0.093 C 
ENDBRANCH   1  20
BRANCH   5  21
ATOM     21  C   UNL     1     -11.041  15.799  69.113  0.00  0.00    +0.020 C 
BRANCH  21  22
ATOM     22  C   UNL     1     -11.211  15.415  70.543  0.00  0.00    +0.072 C 
BRANCH  22  23
ATOM     23  N   UNL     1     -12.375  15.965  71.183  0.00  0.00    -0.268 NA
ATOM     24  C   UNL     1     -12.061  16.207  72.548  0.00  0.00    +0.105 C 
ATOM     25  C   UNL     1     -12.600  15.242  73.539  0.00  0.00    +0.159 C 
ATOM     26  O   UNL     1     -13.187  14.120  72.980  0.00  0.00    -0.351 OA
ATOM     27  C   UNL     1     -14.193  14.589  72.129  0.00  0.00    +0.159 C 
ATOM     28  C   UNL     1     -13.540  15.182  70.928  0.00  0.00    +0.105 C 
ENDBRANCH  22  23
ENDBRANCH  21  22
ENDBRANCH   5  21
TORSDOF 6
ENDMDL
MODEL 4
REMARK VINA RESULT:      -6.5      2.223      4.127
REMARK  Name = 
REMARK  6 active torsions:
REMARK  status: ('A' for Active; 'I' for Inactive)
REMARK    1  A    between atoms: C_2  and  N_3
REMARK    2  A    between atoms: C_5  and  C_6
REMARK    3  A    between atoms: C_6  and  C_7
REMARK    4  A    between atoms: C_7  and  N_8
REMARK    5  A    between atoms: C_14  and  C_15
REMARK    6  A    between atoms: C_14  and  C_21
REMARK                            x       y       z     vdW  Elec       q    Type
REMARK                         _______ _______ _______ _____ _____    ______ ____
ROOT
ATOM      1  N   UNL     1     -11.470  11.231  68.569  0.00  0.00    -0.279 N 
ATOM      2  C   UNL     1     -10.757  11.530  67.383  0.00  0.00    +0.232 C 
ATOM      3  O   UNL     1     -10.191  10.702  66.609  0.00  0.00    -0.274 OA
ATOM      4  C   UNL     1     -10.760  12.972  67.105  0.00  0.00    +0.108 C 
ATOM      5  C   UNL     1     -12.046  13.456  68.003  0.00  0.00    +0.037 C 
ATOM      6  C   UNL     1     -11.609  12.487  69.265  0.00  0.00    +0.095 C 
ENDROOT
BRANCH   4   7
ATOM      7  C   UNL     1      -9.560  13.639  67.474  0.00  0.00    -0.011 A 
ATOM      8  C   UNL     1      -8.521  12.911  68.046  0.00  0.00    -0.004 A 
ATOM      9  C   UNL     1      -7.188  13.251  67.849  0.00  0.00    -0.000 A 
ATOM     10  C   UNL     1      -6.949  14.611  67.699  0.00  0.00    -0.000 A 
ATOM     11  C   UNL     1      -7.994  15.411  67.254  0.00  0.00    -0.000 A 
ATOM     12  C   UNL     1      -9.142  14.776  66.789  0.00  0.00    -0.004 A 
ENDBRANCH   4   7
BRANCH   4  13
ATOM     13  C   UNL     1     -11.198  13.152  65.682  0.00  0.00    -0.011 A 
ATOM     14  C   UNL     1     -10.257  12.719  64.754  0.00  0.00    -0.004 A 
ATOM     15  C   UNL     1     -10.598  12.247  63.502  0.00  0.00    -0.000 A 
ATOM     16  C   UNL     1     -11.866  11.697  63.360  0.00  0.00    -0.000 A 
ATOM     17  C   UNL     1     -12.852  12.337  64.100  0.00  0.00    -0.000 A 
ATOM     18  C   UNL     1     -12.519  12.936  65.301  0.00  0.00    -0.004 A 
ENDBRANCH   4  13
BRANCH   1  20
ATOM     19  C   UNL     1     -11.650  10.089  70.715  0.00  0.00    +0.023 C 
ATOM     20  C   UNL     1     -11.078  10.050  69.336  0.00  0.00    +0.093 C 
ENDBRANCH   1  20
BRANCH   5  21
ATOM     21  C   UNL     1     -11.286  14.754  68.686  0.00  0.00    +0.020 C 
BRANCH  21  22
ATOM     22  C   UNL     1     -11.496  14.654  70.158  0.00  0.00    +0.072 C 
BRANCH  22  23
ATOM     23  N   UNL     1     -12.379  15.645  70.712  0.00  0.00    -0.268 NA
ATOM     24  C   UNL     1     -11.761  16.197  71.867  0.00  0.00    +0.105 C 
ATOM     25  C   UNL     1     -12.275  15.741  73.183  0.00  0.00    +0.159 C 
ATOM     26  O   UNL     1     -13.171  14.689  73.109  0.00  0.00    -0.351 OA
ATOM     27  C   UNL     1     -14.212  15.119  72.279  0.00  0.00    +0.159 C 
ATOM     28  C   UNL     1     -13.703  15.141  70.879  0.00  0.00    +0.105 C 
ENDBRANCH  22  23
ENDBRANCH  21  22
ENDBRANCH   5  21
TORSDOF 6
ENDMDL
MODEL 5
REMARK VINA RESULT:      -6.5      2.552      5.719
REMARK  Name = 
REMARK  6 active torsions:
REMARK  status: ('A' for Active; 'I' for Inactive)
REMARK    1  A    between atoms: C_2  and  N_3
REMARK    2  A    between atoms: C_5  and  C_6
REMARK    3  A    between atoms: C_6  and  C_7
REMARK    4  A    between atoms: C_7  and  N_8
REMARK    5  A    between atoms: C_14  and  C_15
REMARK    6  A    between atoms: C_14  and  C_21
REMARK                            x       y       z     vdW  Elec       q    Type
REMARK                         _______ _______ _______ _____ _____    ______ ____
ROOT
ATOM      1  N   UNL     1      -9.636  11.165  68.230  0.00  0.00    -0.279 N 
ATOM      2  C   UNL     1     -10.951  11.672  68.093  0.00  0.00    +0.232 C 
ATOM      3  O   UNL     1     -12.031  11.054  68.333  0.00  0.00    -0.274 OA
ATOM      4  C   UNL     1     -10.942  13.072  67.649  0.00  0.00    +0.108 C 
ATOM      5  C   UNL     1      -9.416  13.516  68.059  0.00  0.00    +0.037 C 
ATOM      6  C   UNL     1      -8.788  12.089  67.517  0.00  0.00    +0.095 C 
ENDROOT
BRANCH   4   7
ATOM      7  C   UNL     1     -11.201  13.244  66.261  0.00  0.00    -0.011 A 
ATOM      8  C   UNL     1     -11.060  12.160  65.399  0.00  0.00    -0.004 A 
ATOM      9  C   UNL     1     -11.849  12.015  64.265  0.00  0.00    -0.000 A 
ATOM     10  C   UNL     1     -12.232  13.207  63.663  0.00  0.00    -0.000 A 
ATOM     11  C   UNL     1     -12.263  14.352  64.449  0.00  0.00    -0.000 A 
ATOM     12  C   UNL     1     -12.116  14.198  65.824  0.00  0.00    -0.004 A 
ENDBRANCH   4   7
BRANCH   4  13
ATOM     13  C   UNL     1     -11.829  13.842  68.580  0.00  0.00    -0.011 A 
ATOM     14  C   UNL     1     -12.046  13.202  69.795  0.00  0.00    -0.004 A 
ATOM     15  C   UNL     1     -12.303  13.883  70.968  0.00  0.00    -0.000 A 
ATOM     16  C   UNL     1     -11.819  15.183  71.062  0.00  0.00    -0.000 A 
ATOM     17  C   UNL     1     -11.874  15.899  69.873  0.00  0.00    -0.000 A 
ATOM     18  C   UNL     1     -11.750  15.229  68.669  0.00  0.00    -0.004 A 
ENDBRANCH   4  13
BRANCH   1  20
ATOM     19  C   UNL     1      -9.142   9.418  66.603  0.00  0.00    +0.023 C 
ATOM     20  C   UNL     1      -9.420   9.732  68.036  0.00  0.00    +0.093 C 
ENDBRANCH   1  20
BRANCH   5  21
ATOM     21  C   UNL     1      -9.072  14.257  66.624  0.00  0.00    +0.020 C 
BRANCH  21  22
ATOM     22  C   UNL     1      -8.372  15.532  66.951  0.00  0.00    +0.072 C 
BRANCH  22  23
ATOM     23  N   UNL     1      -8.598  16.603  66.019  0.00  0.00    -0.268 NA
ATOM     24  C   UNL     1      -7.532  17.535  66.144  0.00  0.00    +0.105 C 
ATOM     25  C   UNL     1      -7.826  18.792  66.876  0.00  0.00    +0.159 C 
ATOM     26  O   UNL     1      -9.059  18.808  67.506  0.00  0.00    -0.351 OA
ATOM     27  C   UNL     1     -10.009  18.567  66.509  0.00  0.00    +0.159 C 
ATOM     28  C   UNL     1      -9.919  17.130  66.126  0.00  0.00    +0.105 C 
ENDBRANCH  22  23
ENDBRANCH  21  22
ENDBRANCH   5  21
TORSDOF 6
ENDMDL
MODEL 6
REMARK VINA RESULT:      -6.3      2.421      5.229
REMARK  Name = 
REMARK  6 active torsions:
REMARK  status: ('A' for Active; 'I' for Inactive)
REMARK    1  A    between atoms: C_2  and  N_3
REMARK    2  A    between atoms: C_5  and  C_6
REMARK    3  A    between atoms: C_6  and  C_7
REMARK    4  A    between atoms: C_7  and  N_8
REMARK    5  A    between atoms: C_14  and  C_15
REMARK    6  A    between atoms: C_14  and  C_21
REMARK                            x       y       z     vdW  Elec       q    Type
REMARK                         _______ _______ _______ _____ _____    ______ ____
ROOT
ATOM      1  N   UNL     1     -12.392  12.959  70.022  0.00  0.00    -0.279 N 
ATOM      2  C   UNL     1     -11.962  12.117  68.968  0.00  0.00    +0.232 C 
ATOM      3  O   UNL     1     -12.217  10.883  68.831  0.00  0.00    -0.274 OA
ATOM      4  C   UNL     1     -11.172  12.859  67.977  0.00  0.00    +0.108 C 
ATOM      5  C   UNL     1     -11.641  14.398  68.300  0.00  0.00    +0.037 C 
ATOM      6  C   UNL     1     -11.575  14.144  69.929  0.00  0.00    +0.095 C 
ENDROOT
BRANCH   4   7
ATOM      7  C   UNL     1      -9.766  12.684  68.104  0.00  0.00    -0.011 A 
ATOM      8  C   UNL     1      -9.274  11.598  68.822  0.00  0.00    -0.004 A 
ATOM      9  C   UNL     1      -8.074  10.981  68.493  0.00  0.00    -0.000 A 
ATOM     10  C   UNL     1      -7.110  11.827  67.959  0.00  0.00    -0.000 A 
ATOM     11  C   UNL     1      -7.538  12.996  67.343  0.00  0.00    -0.000 A 
ATOM     12  C   UNL     1      -8.903  13.144  67.114  0.00  0.00    -0.004 A 
ENDBRANCH   4   7
BRANCH   4  13
ATOM     13  C   UNL     1     -11.750  12.556  66.627  0.00  0.00    -0.011 A 
ATOM     14  C   UNL     1     -12.198  13.684  65.951  0.00  0.00    -0.004 A 
ATOM     15  C   UNL     1     -12.222  13.775  64.573  0.00  0.00    -0.000 A 
ATOM     16  C   UNL     1     -11.315  12.986  63.874  0.00  0.00    -0.000 A 
ATOM     17  C   UNL     1     -11.095  11.735  64.436  0.00  0.00    -0.000 A 
ATOM     18  C   UNL     1     -11.192  11.580  65.807  0.00  0.00    -0.004 A 
ENDBRANCH   4  13
BRANCH   1  20
ATOM     19  C   UNL     1     -13.522  13.209  72.167  0.00  0.00    +0.023 C 
ATOM     20  C   UNL     1     -12.608  12.366  71.340  0.00  0.00    +0.093 C 
ENDBRANCH   1  20
BRANCH   5  21
ATOM     21  C   UNL     1     -10.117  15.035  68.298  0.00  0.00    +0.020 C 
BRANCH  21  22
ATOM     22  C   UNL     1     -10.254  16.487  68.605  0.00  0.00    +0.072 C 
BRANCH  22  23
ATOM     23  N   UNL     1      -9.491  17.360  67.755  0.00  0.00    -0.268 NA
ATOM     24  C   UNL     1      -9.179  18.536  68.490  0.00  0.00    +0.105 C 
ATOM     25  C   UNL     1      -9.969  19.753  68.171  0.00  0.00    +0.159 C 
ATOM     26  O   UNL     1     -11.040  19.529  67.323  0.00  0.00    -0.351 OA
ATOM     27  C   UNL     1     -10.508  18.952  66.166  0.00  0.00    +0.159 C 
ATOM     28  C   UNL     1     -10.120  17.550  66.489  0.00  0.00    +0.105 C 
ENDBRANCH  22  23
ENDBRANCH  21  22
ENDBRANCH   5  21
TORSDOF 6
ENDMDL
MODEL 7
REMARK VINA RESULT:      -6.2      2.561      4.907
REMARK  Name = 
REMARK  6 active torsions:
REMARK  status: ('A' for Active; 'I' for Inactive)
REMARK    1  A    between atoms: C_2  and  N_3
REMARK    2  A    between atoms: C_5  and  C_6
REMARK    3  A    between atoms: C_6  and  C_7
REMARK    4  A    between atoms: C_7  and  N_8
REMARK    5  A    between atoms: C_14  and  C_15
REMARK    6  A    between atoms: C_14  and  C_21
REMARK                            x       y       z     vdW  Elec       q    Type
REMARK                         _______ _______ _______ _____ _____    ______ ____
ROOT
ATOM      1  N   UNL     1     -10.256  13.920  64.993  0.00  0.00    -0.279 N 
ATOM      2  C   UNL     1      -9.689  13.467  66.208  0.00  0.00    +0.232 C 
ATOM      3  O   UNL     1      -9.378  12.274  66.502  0.00  0.00    -0.274 OA
ATOM      4  C   UNL     1      -9.456  14.579  67.139  0.00  0.00    +0.108 C 
ATOM      5  C   UNL     1      -9.459  15.852  66.103  0.00  0.00    +0.037 C 
ATOM      6  C   UNL     1     -10.746  15.249  65.265  0.00  0.00    +0.095 C 
ENDROOT
BRANCH   4   7
ATOM      7  C   UNL     1     -10.443  14.705  68.154  0.00  0.00    -0.011 A 
ATOM      8  C   UNL     1     -11.413  13.716  68.292  0.00  0.00    -0.004 A 
ATOM      9  C   UNL     1     -11.961  13.390  69.526  0.00  0.00    -0.000 A 
ATOM     10  C   UNL     1     -12.061  14.450  70.419  0.00  0.00    -0.000 A 
ATOM     11  C   UNL     1     -11.202  15.528  70.249  0.00  0.00    -0.000 A 
ATOM     12  C   UNL     1     -10.162  15.389  69.333  0.00  0.00    -0.004 A 
ENDBRANCH   4   7
BRANCH   4  13
ATOM     13  C   UNL     1      -8.038  14.474  67.614  0.00  0.00    -0.011 A 
ATOM     14  C   UNL     1      -7.249  15.558  67.248  0.00  0.00    -0.004 A 
ATOM     15  C   UNL     1      -6.164  15.983  67.989  0.00  0.00    -0.000 A 
ATOM     16  C   UNL     1      -6.177  15.693  69.348  0.00  0.00    -0.000 A 
ATOM     17  C   UNL     1      -6.731  14.458  69.663  0.00  0.00    -0.000 A 
ATOM     18  C   UNL     1      -7.734  13.940  68.863  0.00  0.00    -0.004 A 
ENDBRANCH   4  13
BRANCH   1  20
ATOM     19  C   UNL     1     -12.461  12.889  64.870  0.00  0.00    +0.023 C 
ATOM     20  C   UNL     1     -11.112  13.004  64.241  0.00  0.00    +0.093 C 
ENDBRANCH   1  20
BRANCH   5  21
ATOM     21  C   UNL     1     -10.451  16.803  67.020  0.00  0.00    +0.020 C 
BRANCH  21  22
ATOM     22  C   UNL     1     -10.563  18.114  66.319  0.00  0.00    +0.072 C 
BRANCH  22  23
ATOM     23  N   UNL     1     -10.220  19.259  67.119  0.00  0.00    -0.268 NA
ATOM     24  C   UNL     1      -9.350  20.088  66.361  0.00  0.00    +0.105 C 
ATOM     25  C   UNL     1      -7.909  20.047  66.715  0.00  0.00    +0.159 C 
ATOM     26  O   UNL     1      -7.575  19.057  67.623  0.00  0.00    -0.351 OA
ATOM     27  C   UNL     1      -8.370  19.279  68.753  0.00  0.00    +0.159 C 
ATOM     28  C   UNL     1      -9.765  18.881  68.418  0.00  0.00    +0.105 C 
ENDBRANCH  22  23
ENDBRANCH  21  22
ENDBRANCH   5  21
TORSDOF 6
ENDMDL
MODEL 8
REMARK VINA RESULT:      -6.2      3.321      5.378
REMARK  Name = 
REMARK  6 active torsions:
REMARK  status: ('A' for Active; 'I' for Inactive)
REMARK    1  A    between atoms: C_2  and  N_3
REMARK    2  A    between atoms: C_5  and  C_6
REMARK    3  A    between atoms: C_6  and  C_7
REMARK    4  A    between atoms: C_7  and  N_8
REMARK    5  A    between atoms: C_14  and  C_15
REMARK    6  A    between atoms: C_14  and  C_21
REMARK                            x       y       z     vdW  Elec       q    Type
REMARK                         _______ _______ _______ _____ _____    ______ ____
ROOT
ATOM      1  N   UNL     1      -8.362  12.255  67.337  0.00  0.00    -0.279 N 
ATOM      2  C   UNL     1      -9.340  13.208  66.962  0.00  0.00    +0.232 C 
ATOM      3  O   UNL     1      -9.183  14.185  66.169  0.00  0.00    -0.274 OA
ATOM      4  C   UNL     1     -10.635  12.922  67.592  0.00  0.00    +0.108 C 
ATOM      5  C   UNL     1     -10.447  11.338  67.978  0.00  0.00    +0.037 C 
ATOM      6  C   UNL     1      -8.899  11.583  68.494  0.00  0.00    +0.095 C 
ENDROOT
BRANCH   4   7
ATOM      7  C   UNL     1     -10.919  13.727  68.730  0.00  0.00    -0.011 A 
ATOM      8  C   UNL     1     -10.056  14.766  69.065  0.00  0.00    -0.004 A 
ATOM      9  C   UNL     1     -10.509  15.933  69.668  0.00  0.00    -0.000 A 
ATOM     10  C   UNL     1     -11.598  15.768  70.514  0.00  0.00    -0.000 A 
ATOM     11  C   UNL     1     -12.424  14.670  70.307  0.00  0.00    -0.000 A 
ATOM     12  C   UNL     1     -12.232  13.926  69.146  0.00  0.00    -0.004 A 
ENDBRANCH   4   7
BRANCH   4  13
ATOM     13  C   UNL     1     -11.671  12.932  66.508  0.00  0.00    -0.011 A 
ATOM     14  C   UNL     1     -11.951  14.203  66.021  0.00  0.00    -0.004 A 
ATOM     15  C   UNL     1     -12.380  14.436  64.728  0.00  0.00    -0.000 A 
ATOM     16  C   UNL     1     -12.018  13.499  63.767  0.00  0.00    -0.000 A 
ATOM     17  C   UNL     1     -12.017  12.186  64.221  0.00  0.00    -0.000 A 
ATOM     18  C   UNL     1     -11.719  11.927  65.547  0.00  0.00    -0.004 A 
ENDBRANCH   4  13
BRANCH   1  20
ATOM     19  C   UNL     1      -6.627  13.362  68.643  0.00  0.00    +0.023 C 
ATOM     20  C   UNL     1      -6.961  12.672  67.362  0.00  0.00    +0.093 C 
ENDBRANCH   1  20
BRANCH   5  21
ATOM     21  C   UNL     1     -11.024  11.479  69.520  0.00  0.00    +0.020 C 
BRANCH  21  22
ATOM     22  C   UNL     1     -11.463  10.119  69.944  0.00  0.00    +0.072 C 
BRANCH  22  23
ATOM     23  N   UNL     1     -11.702   9.973  71.354  0.00  0.00    -0.268 NA
ATOM     24  C   UNL     1     -11.053   8.788  71.796  0.00  0.00    +0.105 C 
ATOM     25  C   UNL     1     -11.916   7.606  72.045  0.00  0.00    +0.159 C 
ATOM     26  O   UNL     1     -13.227   7.762  71.632  0.00  0.00    -0.351 OA
ATOM     27  C   UNL     1     -13.713   8.894  72.294  0.00  0.00    +0.159 C 
ATOM     28  C   UNL     1     -13.088  10.095  71.672  0.00  0.00    +0.105 C 
ENDBRANCH  22  23
ENDBRANCH  21  22
ENDBRANCH   5  21
TORSDOF 6
ENDMDL
MODEL 9
REMARK VINA RESULT:      -6.2      2.954      5.053
REMARK  Name = 
REMARK  6 active torsions:
REMARK  status: ('A' for Active; 'I' for Inactive)
REMARK    1  A    between atoms: C_2  and  N_3
REMARK    2  A    between atoms: C_5  and  C_6
REMARK    3  A    between atoms: C_6  and  C_7
REMARK    4  A    between atoms: C_7  and  N_8
REMARK    5  A    between atoms: C_14  and  C_15
REMARK    6  A    between atoms: C_14  and  C_21
REMARK                            x       y       z     vdW  Elec       q    Type
REMARK                         _______ _______ _______ _____ _____    ______ ____
ROOT
ATOM      1  N   UNL     1     -11.993  12.273  65.710  0.00  0.00    -0.279 N 
ATOM      2  C   UNL     1     -11.971  13.540  66.342  0.00  0.00    +0.232 C 
ATOM      3  O   UNL     1     -12.590  14.583  65.973  0.00  0.00    -0.274 OA
ATOM      4  C   UNL     1     -11.138  13.521  67.551  0.00  0.00    +0.108 C 
ATOM      5  C   UNL     1     -11.092  11.911  67.868  0.00  0.00    +0.037 C 
ATOM      6  C   UNL     1     -10.887  11.539  66.273  0.00  0.00    +0.095 C 
ENDROOT
BRANCH   4   7
ATOM      7  C   UNL     1      -9.840  14.074  67.373  0.00  0.00    -0.011 A 
ATOM      8  C   UNL     1      -9.552  14.781  66.208  0.00  0.00    -0.004 A 
ATOM      9  C   UNL     1      -8.656  15.842  66.195  0.00  0.00    -0.000 A 
ATOM     10  C   UNL     1      -7.606  15.732  67.099  0.00  0.00    -0.000 A 
ATOM     11  C   UNL     1      -7.793  14.931  68.218  0.00  0.00    -0.000 A 
ATOM     12  C   UNL     1      -9.079  14.461  68.471  0.00  0.00    -0.004 A 
ENDBRANCH   4   7
BRANCH   4  13
ATOM     13  C   UNL     1     -11.953  14.108  68.664  0.00  0.00    -0.011 A 
ATOM     14  C   UNL     1     -12.144  13.237  69.730  0.00  0.00    -0.004 A 
ATOM     15  C   UNL     1     -12.324  13.667  71.030  0.00  0.00    -0.000 A 
ATOM     16  C   UNL     1     -11.783  14.903  71.365  0.00  0.00    -0.000 A 
ATOM     17  C   UNL     1     -11.859  15.852  70.354  0.00  0.00    -0.000 A 
ATOM     18  C   UNL     1     -11.813  15.443  69.033  0.00  0.00    -0.004 A 
ENDBRANCH   4  13
BRANCH   1  20
ATOM     19  C   UNL     1     -10.893  12.208  63.536  0.00  0.00    +0.023 C 
ATOM     20  C   UNL     1     -12.197  12.222  64.263  0.00  0.00    +0.093 C 
ENDBRANCH   1  20
BRANCH   5  21
ATOM     21  C   UNL     1      -9.463  11.845  68.133  0.00  0.00    +0.020 C 
BRANCH  21  22
ATOM     22  C   UNL     1      -8.956  10.638  67.421  0.00  0.00    +0.072 C 
BRANCH  22  23
ATOM     23  N   UNL     1      -8.539   9.561  68.278  0.00  0.00    -0.268 NA
ATOM     24  C   UNL     1      -9.338   8.423  67.983  0.00  0.00    +0.105 C 
ATOM     25  C   UNL     1     -10.417   8.095  68.948  0.00  0.00    +0.159 C 
ATOM     26  O   UNL     1     -10.623   9.059  69.920  0.00  0.00    -0.351 OA
ATOM     27  C   UNL     1      -9.395   9.228  70.568  0.00  0.00    +0.159 C 
ATOM     28  C   UNL     1      -8.485   9.962  69.646  0.00  0.00    +0.105 C 
ENDBRANCH  22  23
ENDBRANCH  21  22
ENDBRANCH   5  21
TORSDOF 6
ENDMDL
