MODEL 1
REMARK VINA RESULT:      -6.3      0.000      0.000
REMARK  Name = 
REMARK  5 active torsions:
REMARK  status: ('A' for Active; 'I' for Inactive)
REMARK    1  A    between atoms: C_2  and  C_3
REMARK    2  A    between atoms: C_2  and  C_9
REMARK    3  A    between atoms: C_2  and  C_15
REMARK    4  A    between atoms: C_3  and  N_4
REMARK    5  A    between atoms: C_9  and  N_10
REMARK                            x       y       z     vdW  Elec       q    Type
REMARK                         _______ _______ _______ _____ _____    ______ ____
ROOT
ATOM      1  O   UNL     1     -12.066  16.417  68.718  0.00  0.00    -0.217 OA
ATOM      2  C   UNL     1     -10.813  15.813  68.666  0.00  0.00    +0.192 C 
ENDROOT
BRANCH   2   3
ATOM      3  C   UNL     1     -10.766  14.798  67.564  0.00  0.00    +0.036 A 
ATOM      4  C   UNL     1     -11.908  14.030  67.363  0.00  0.00    +0.141 A 
ATOM      5  F   UNL     1     -12.485  13.503  68.481  0.00  0.00    -0.204 F 
ATOM      6  C   UNL     1     -12.197  13.471  66.124  0.00  0.00    +0.059 A 
ATOM      7  C   UNL     1     -11.528  13.955  65.009  0.00  0.00    +0.142 A 
ATOM      8  F   UNL     1     -12.158  14.156  63.816  0.00  0.00    -0.204 F 
ATOM      9  C   UNL     1     -10.244  14.425  65.248  0.00  0.00    +0.030 A 
ATOM     10  C   UNL     1      -9.905  14.946  66.490  0.00  0.00    +0.003 A 
ENDBRANCH   2   3
BRANCH   2  11
ATOM     11  C   UNL     1     -10.456  15.093  69.948  0.00  0.00    +0.166 C 
BRANCH  11  12
ATOM     12  N   UNL     1     -11.501  15.156  70.936  0.00  0.00    -0.227 N 
ATOM     13  N   UNL     1     -12.295  14.168  71.349  0.00  0.00    -0.145 NA
ATOM     14  C   UNL     1     -13.086  14.633  72.347  0.00  0.00    +0.221 A 
ATOM     15  N   UNL     1     -12.399  15.690  72.838  0.00  0.00    -0.201 NA
ATOM     16  C   UNL     1     -11.702  16.183  71.791  0.00  0.00    +0.197 A 
ENDBRANCH  11  12
ENDBRANCH   2  11
BRANCH   2  17
ATOM     17  C   UNL     1      -9.713  16.802  68.390  0.00  0.00    +0.166 C 
BRANCH  17  18
ATOM     18  N   UNL     1     -10.194  18.087  67.954  0.00  0.00    -0.227 N 
ATOM     19  N   UNL     1     -10.415  18.389  66.681  0.00  0.00    -0.145 NA
ATOM     20  C   UNL     1     -10.581  19.724  66.601  0.00  0.00    +0.221 A 
ATOM     21  N   UNL     1      -9.965  20.233  67.666  0.00  0.00    -0.201 NA
ATOM     22  C   UNL     1      -9.825  19.243  68.559  0.00  0.00    +0.197 A 
ENDBRANCH  17  18
ENDBRANCH   2  17
TORSDOF 5
ENDMDL
MODEL 2
REMARK VINA RESULT:      -6.3      3.025      5.328
REMARK  Name = 
REMARK  5 active torsions:
REMARK  status: ('A' for Active; 'I' for Inactive)
REMARK    1  A    between atoms: C_2  and  C_3
REMARK    2  A    between atoms: C_2  and  C_9
REMARK    3  A    between atoms: C_2  and  C_15
REMARK    4  A    between atoms: C_3  and  N_4
REMARK    5  A    between atoms: C_9  and  N_10
REMARK                            x       y       z     vdW  Elec       q    Type
REMARK                         _______ _______ _______ _____ _____    ______ ____
ROOT
ATOM      1  O   UNL     1      -9.695  13.879  68.479  0.00  0.00    -0.217 OA
ATOM      2  C   UNL     1     -11.081  13.825  68.597  0.00  0.00    +0.192 C 
ENDROOT
BRANCH   2   3
ATOM      3  C   UNL     1     -11.496  14.067  70.016  0.00  0.00    +0.036 A 
ATOM      4  C   UNL     1     -11.389  15.370  70.492  0.00  0.00    +0.141 A 
ATOM      5  F   UNL     1     -10.224  16.020  70.211  0.00  0.00    -0.204 F 
ATOM      6  C   UNL     1     -12.189  15.830  71.531  0.00  0.00    +0.059 A 
ATOM      7  C   UNL     1     -13.320  15.101  71.866  0.00  0.00    +0.142 A 
ATOM      8  F   UNL     1     -14.504  15.703  72.179  0.00  0.00    -0.204 F 
ATOM      9  C   UNL     1     -13.228  13.733  71.649  0.00  0.00    +0.030 A 
ATOM     10  C   UNL     1     -12.401  13.233  70.651  0.00  0.00    +0.003 A 
ENDBRANCH   2   3
BRANCH   2  11
ATOM     11  C   UNL     1     -11.651  12.484  68.191  0.00  0.00    +0.166 C 
BRANCH  11  12
ATOM     12  N   UNL     1     -11.462  12.194  66.793  0.00  0.00    -0.227 N 
ATOM     13  N   UNL     1     -12.306  12.430  65.789  0.00  0.00    -0.145 NA
ATOM     14  C   UNL     1     -11.707  12.077  64.624  0.00  0.00    +0.221 A 
ATOM     15  N   UNL     1     -10.386  12.138  64.909  0.00  0.00    -0.201 NA
ATOM     16  C   UNL     1     -10.288  11.842  66.223  0.00  0.00    +0.197 A 
ENDBRANCH  11  12
ENDBRANCH   2  11
BRANCH   2  17
ATOM     17  C   UNL     1     -11.767  14.871  67.760  0.00  0.00    +0.166 C 
BRANCH  17  18
ATOM     18  N   UNL     1     -10.853  15.702  67.020  0.00  0.00    -0.227 N 
ATOM     19  N   UNL     1     -10.594  16.963  67.341  0.00  0.00    -0.145 NA
ATOM     20  C   UNL     1      -9.936  17.521  66.305  0.00  0.00    +0.221 A 
ATOM     21  N   UNL     1     -10.261  16.798  65.235  0.00  0.00    -0.201 NA
ATOM     22  C   UNL     1     -10.726  15.619  65.674  0.00  0.00    +0.197 A 
ENDBRANCH  17  18
ENDBRANCH   2  17
TORSDOF 5
ENDMDL
MODEL 3
REMARK VINA RESULT:      -6.2      2.970      5.858
REMARK  Name = 
REMARK  5 active torsions:
REMARK  status: ('A' for Active; 'I' for Inactive)
REMARK    1  A    between atoms: C_2  and  C_3
REMARK    2  A    between atoms: C_2  and  C_9
REMARK    3  A    between atoms: C_2  and  C_15
REMARK    4  A    between atoms: C_3  and  N_4
REMARK    5  A    between atoms: C_9  and  N_10
REMARK                            x       y       z     vdW  Elec       q    Type
REMARK                         _______ _______ _______ _____ _____    ______ ____
ROOT
ATOM      1  O   UNL     1     -12.001  15.267  67.613  0.00  0.00    -0.217 OA
ATOM      2  C   UNL     1     -11.165  14.440  68.359  0.00  0.00    +0.192 C 
ENDROOT
BRANCH   2   3
ATOM      3  C   UNL     1     -11.626  14.375  69.783  0.00  0.00    +0.036 A 
ATOM      4  C   UNL     1     -12.111  15.552  70.344  0.00  0.00    +0.141 A 
ATOM      5  F   UNL     1     -11.368  16.675  70.127  0.00  0.00    -0.204 F 
ATOM      6  C   UNL     1     -13.018  15.532  71.397  0.00  0.00    +0.059 A 
ATOM      7  C   UNL     1     -13.694  14.352  71.664  0.00  0.00    +0.142 A 
ATOM      8  F   UNL     1     -15.018  14.333  71.995  0.00  0.00    -0.204 F 
ATOM      9  C   UNL     1     -12.998  13.189  71.360  0.00  0.00    +0.030 A 
ATOM     10  C   UNL     1     -12.049  13.183  70.346  0.00  0.00    +0.003 A 
ENDBRANCH   2   3
BRANCH   2  11
ATOM     11  C   UNL     1      -9.731  14.919  68.377  0.00  0.00    +0.166 C 
BRANCH  11  12
ATOM     12  N   UNL     1      -9.491  16.005  67.462  0.00  0.00    -0.227 N 
ATOM     13  N   UNL     1      -9.469  17.310  67.732  0.00  0.00    -0.145 NA
ATOM     14  C   UNL     1      -9.128  17.982  66.604  0.00  0.00    +0.221 A 
ATOM     15  N   UNL     1      -8.468  17.061  65.866  0.00  0.00    -0.201 NA
ATOM     16  C   UNL     1      -9.011  15.872  66.205  0.00  0.00    +0.197 A 
ENDBRANCH  11  12
ENDBRANCH   2  11
BRANCH   2  17
ATOM     17  C   UNL     1     -11.154  13.026  67.843  0.00  0.00    +0.166 C 
BRANCH  17  18
ATOM     18  N   UNL     1     -11.265  12.937  66.410  0.00  0.00    -0.227 N 
ATOM     19  N   UNL     1     -12.369  12.546  65.788  0.00  0.00    -0.145 NA
ATOM     20  C   UNL     1     -12.049  12.308  64.500  0.00  0.00    +0.221 A 
ATOM     21  N   UNL     1     -10.742  12.057  64.489  0.00  0.00    -0.201 NA
ATOM     22  C   UNL     1     -10.230  12.549  65.626  0.00  0.00    +0.197 A 
ENDBRANCH  17  18
ENDBRANCH   2  17
TORSDOF 5
ENDMDL
MODEL 4
REMARK VINA RESULT:      -6.2      3.717      5.519
REMARK  Name = 
REMARK  5 active torsions:
REMARK  status: ('A' for Active; 'I' for Inactive)
REMARK    1  A    between atoms: C_2  and  C_3
REMARK    2  A    between atoms: C_2  and  C_9
REMARK    3  A    between atoms: C_2  and  C_15
REMARK    4  A    between atoms: C_3  and  N_4
REMARK    5  A    between atoms: C_9  and  N_10
REMARK                            x       y       z     vdW  Elec       q    Type
REMARK                         _______ _______ _______ _____ _____    ______ ____
ROOT
ATOM      1  O   UNL     1      -9.980  12.610  66.764  0.00  0.00    -0.217 OA
ATOM      2  C   UNL     1     -11.010  13.017  67.609  0.00  0.00    +0.192 C 
ENDROOT
BRANCH   2   3
ATOM      3  C   UNL     1     -11.520  11.859  68.410  0.00  0.00    +0.036 A 
ATOM      4  C   UNL     1     -10.987  10.608  68.122  0.00  0.00    +0.141 A 
ATOM      5  F   UNL     1     -10.898  10.279  66.801  0.00  0.00    -0.204 F 
ATOM      6  C   UNL     1     -10.954   9.597  69.076  0.00  0.00    +0.059 A 
ATOM      7  C   UNL     1     -11.143   9.938  70.406  0.00  0.00    +0.142 A 
ATOM      8  F   UNL     1     -10.409   9.375  71.410  0.00  0.00    -0.204 F 
ATOM      9  C   UNL     1     -11.963  11.036  70.625  0.00  0.00    +0.030 A 
ATOM     10  C   UNL     1     -12.059  12.043  69.672  0.00  0.00    +0.003 A 
ENDBRANCH   2   3
BRANCH   2  11
ATOM     11  C   UNL     1     -12.190  13.592  66.857  0.00  0.00    +0.166 C 
BRANCH  11  12
ATOM     12  N   UNL     1     -12.159  13.293  65.449  0.00  0.00    -0.227 N 
ATOM     13  N   UNL     1     -12.581  12.186  64.840  0.00  0.00    -0.145 NA
ATOM     14  C   UNL     1     -12.442  12.345  63.500  0.00  0.00    +0.221 A 
ATOM     15  N   UNL     1     -12.437  13.688  63.333  0.00  0.00    -0.201 NA
ATOM     16  C   UNL     1     -11.905  14.189  64.469  0.00  0.00    +0.197 A 
ENDBRANCH  11  12
ENDBRANCH   2  11
BRANCH   2  17
ATOM     17  C   UNL     1     -10.560  14.062  68.594  0.00  0.00    +0.166 C 
BRANCH  17  18
ATOM     18  N   UNL     1     -10.715  15.410  68.113  0.00  0.00    -0.227 N 
ATOM     19  N   UNL     1      -9.808  16.024  67.363  0.00  0.00    -0.145 NA
ATOM     20  C   UNL     1     -10.126  17.333  67.329  0.00  0.00    +0.221 A 
ATOM     21  N   UNL     1     -10.856  17.560  68.419  0.00  0.00    -0.201 NA
ATOM     22  C   UNL     1     -11.319  16.376  68.845  0.00  0.00    +0.197 A 
ENDBRANCH  17  18
ENDBRANCH   2  17
TORSDOF 5
ENDMDL
MODEL 5
REMARK VINA RESULT:      -6.2      2.789      5.349
REMARK  Name = 
REMARK  5 active torsions:
REMARK  status: ('A' for Active; 'I' for Inactive)
REMARK    1  A    between atoms: C_2  and  C_3
REMARK    2  A    between atoms: C_2  and  C_9
REMARK    3  A    between atoms: C_2  and  C_15
REMARK    4  A    between atoms: C_3  and  N_4
REMARK    5  A    between atoms: C_9  and  N_10
REMARK                            x       y       z     vdW  Elec       q    Type
REMARK                         _______ _______ _______ _____ _____    ______ ____
ROOT
ATOM      1  O   UNL     1     -11.909  16.070  67.901  0.00  0.00    -0.217 OA
ATOM      2  C   UNL     1     -10.549  15.898  68.147  0.00  0.00    +0.192 C 
ENDROOT
BRANCH   2   3
ATOM      3  C   UNL     1      -9.774  17.083  67.657  0.00  0.00    +0.036 A 
ATOM      4  C   UNL     1     -10.253  17.726  66.521  0.00  0.00    +0.141 A 
ATOM      5  F   UNL     1     -10.616  16.922  65.481  0.00  0.00    -0.204 F 
ATOM      6  C   UNL     1      -9.981  19.067  66.278  0.00  0.00    +0.059 A 
ATOM      7  C   UNL     1      -9.520  19.847  67.328  0.00  0.00    +0.142 A 
ATOM      8  F   UNL     1      -9.954  21.126  67.525  0.00  0.00    -0.204 F 
ATOM      9  C   UNL     1      -8.766  19.174  68.279  0.00  0.00    +0.030 A 
ATOM     10  C   UNL     1      -8.976  17.822  68.515  0.00  0.00    +0.003 A 
ENDBRANCH   2   3
BRANCH   2  11
ATOM     11  C   UNL     1      -9.979  14.678  67.459  0.00  0.00    +0.166 C 
BRANCH  11  12
ATOM     12  N   UNL     1     -10.990  13.854  66.848  0.00  0.00    -0.227 N 
ATOM     13  N   UNL     1     -11.406  13.875  65.582  0.00  0.00    -0.145 NA
ATOM     14  C   UNL     1     -12.315  12.884  65.406  0.00  0.00    +0.221 A 
ATOM     15  N   UNL     1     -12.029  12.004  66.393  0.00  0.00    -0.201 NA
ATOM     16  C   UNL     1     -11.533  12.749  67.405  0.00  0.00    +0.197 A 
ENDBRANCH  11  12
ENDBRANCH   2  11
BRANCH   2  17
ATOM     17  C   UNL     1     -10.248  15.760  69.615  0.00  0.00    +0.166 C 
BRANCH  17  18
ATOM     18  N   UNL     1     -11.420  15.554  70.425  0.00  0.00    -0.227 N 
ATOM     19  N   UNL     1     -11.748  16.337  71.445  0.00  0.00    -0.145 NA
ATOM     20  C   UNL     1     -12.718  15.712  72.143  0.00  0.00    +0.221 A 
ATOM     21  N   UNL     1     -12.590  14.416  71.866  0.00  0.00    -0.201 NA
ATOM     22  C   UNL     1     -11.880  14.317  70.733  0.00  0.00    +0.197 A 
ENDBRANCH  17  18
ENDBRANCH   2  17
TORSDOF 5
ENDMDL
MODEL 6
REMARK VINA RESULT:      -6.2      3.332      5.075
REMARK  Name = 
REMARK  5 active torsions:
REMARK  status: ('A' for Active; 'I' for Inactive)
REMARK    1  A    between atoms: C_2  and  C_3
REMARK    2  A    between atoms: C_2  and  C_9
REMARK    3  A    between atoms: C_2  and  C_15
REMARK    4  A    between atoms: C_3  and  N_4
REMARK    5  A    between atoms: C_9  and  N_10
REMARK                            x       y       z     vdW  Elec       q    Type
REMARK                         _______ _______ _______ _____ _____    ______ ____
ROOT
ATOM      1  O   UNL     1      -9.400  14.466  67.925  0.00  0.00    -0.217 OA
ATOM      2  C   UNL     1     -10.383  14.971  67.079  0.00  0.00    +0.192 C 
ENDROOT
BRANCH   2   3
ATOM      3  C   UNL     1     -10.517  16.453  67.256  0.00  0.00    +0.036 A 
ATOM      4  C   UNL     1     -10.306  16.958  68.535  0.00  0.00    +0.141 A 
ATOM      5  F   UNL     1     -10.919  16.292  69.555  0.00  0.00    -0.204 F 
ATOM      6  C   UNL     1      -9.884  18.267  68.736  0.00  0.00    +0.059 A 
ATOM      7  C   UNL     1      -9.351  18.962  67.661  0.00  0.00    +0.142 A 
ATOM      8  F   UNL     1      -8.263  19.775  67.791  0.00  0.00    -0.204 F 
ATOM      9  C   UNL     1      -9.857  18.607  66.418  0.00  0.00    +0.030 A 
ATOM     10  C   UNL     1     -10.333  17.321  66.193  0.00  0.00    +0.003 A 
ENDBRANCH   2   3
BRANCH   2  11
ATOM     11  C   UNL     1     -11.746  14.368  67.339  0.00  0.00    +0.166 C 
BRANCH  11  12
ATOM     12  N   UNL     1     -11.689  13.187  68.162  0.00  0.00    -0.227 N 
ATOM     13  N   UNL     1     -11.913  13.093  69.472  0.00  0.00    -0.145 NA
ATOM     14  C   UNL     1     -11.833  11.789  69.836  0.00  0.00    +0.221 A 
ATOM     15  N   UNL     1     -12.079  11.118  68.687  0.00  0.00    -0.201 NA
ATOM     16  C   UNL     1     -11.625  11.919  67.699  0.00  0.00    +0.197 A 
ENDBRANCH  11  12
ENDBRANCH   2  11
BRANCH   2  17
ATOM     17  C   UNL     1     -10.063  14.736  65.628  0.00  0.00    +0.166 C 
BRANCH  17  18
ATOM     18  N   UNL     1     -11.065  13.967  64.937  0.00  0.00    -0.227 N 
ATOM     19  N   UNL     1     -10.790  12.872  64.239  0.00  0.00    -0.145 NA
ATOM     20  C   UNL     1     -11.880  12.571  63.507  0.00  0.00    +0.221 A 
ATOM     21  N   UNL     1     -12.556  13.710  63.371  0.00  0.00    -0.201 NA
ATOM     22  C   UNL     1     -12.133  14.543  64.333  0.00  0.00    +0.197 A 
ENDBRANCH  17  18
ENDBRANCH   2  17
TORSDOF 5
ENDMDL
MODEL 7
REMARK VINA RESULT:      -6.2      1.736      2.263
REMARK  Name = 
REMARK  5 active torsions:
REMARK  status: ('A' for Active; 'I' for Inactive)
REMARK    1  A    between atoms: C_2  and  C_3
REMARK    2  A    between atoms: C_2  and  C_9
REMARK    3  A    between atoms: C_2  and  C_15
REMARK    4  A    between atoms: C_3  and  N_4
REMARK    5  A    between atoms: C_9  and  N_10
REMARK                            x       y       z     vdW  Elec       q    Type
REMARK                         _______ _______ _______ _____ _____    ______ ____
ROOT
ATOM      1  O   UNL     1     -12.344  16.054  68.943  0.00  0.00    -0.217 OA
ATOM      2  C   UNL     1     -11.383  15.074  69.174  0.00  0.00    +0.192 C 
ENDROOT
BRANCH   2   3
ATOM      3  C   UNL     1     -11.827  13.761  68.607  0.00  0.00    +0.036 A 
ATOM      4  C   UNL     1     -11.834  13.640  67.222  0.00  0.00    +0.141 A 
ATOM      5  F   UNL     1     -12.386  14.676  66.529  0.00  0.00    -0.204 F 
ATOM      6  C   UNL     1     -11.703  12.403  66.601  0.00  0.00    +0.059 A 
ATOM      7  C   UNL     1     -11.229  11.336  67.349  0.00  0.00    +0.142 A 
ATOM      8  F   UNL     1     -10.342  10.431  66.842  0.00  0.00    -0.204 F 
ATOM      9  C   UNL     1     -11.543  11.375  68.701  0.00  0.00    +0.030 A 
ATOM     10  C   UNL     1     -11.730  12.592  69.345  0.00  0.00    +0.003 A 
ENDBRANCH   2   3
BRANCH   2  11
ATOM     11  C   UNL     1     -11.112  14.855  70.646  0.00  0.00    +0.166 C 
BRANCH  11  12
ATOM     12  N   UNL     1     -12.172  15.343  71.490  0.00  0.00    -0.227 N 
ATOM     13  N   UNL     1     -13.415  14.875  71.594  0.00  0.00    -0.145 NA
ATOM     14  C   UNL     1     -14.064  15.571  72.560  0.00  0.00    +0.221 A 
ATOM     15  N   UNL     1     -13.066  16.055  73.335  0.00  0.00    -0.201 NA
ATOM     16  C   UNL     1     -12.015  16.224  72.503  0.00  0.00    +0.197 A 
ENDBRANCH  11  12
ENDBRANCH   2  11
BRANCH   2  17
ATOM     17  C   UNL     1     -10.066  15.403  68.525  0.00  0.00    +0.166 C 
BRANCH  17  18
ATOM     18  N   UNL     1     -10.022  16.724  67.952  0.00  0.00    -0.227 N 
ATOM     19  N   UNL     1     -10.077  16.953  66.646  0.00  0.00    -0.145 NA
ATOM     20  C   UNL     1      -9.733  18.241  66.444  0.00  0.00    +0.221 A 
ATOM     21  N   UNL     1      -9.005  18.595  67.501  0.00  0.00    -0.201 NA
ATOM     22  C   UNL     1      -9.270  17.719  68.481  0.00  0.00    +0.197 A 
ENDBRANCH  17  18
ENDBRANCH   2  17
TORSDOF 5
ENDMDL
MODEL 8
REMARK VINA RESULT:      -6.1      3.014      4.952
REMARK  Name = 
REMARK  5 active torsions:
REMARK  status: ('A' for Active; 'I' for Inactive)
REMARK    1  A    between atoms: C_2  and  C_3
REMARK    2  A    between atoms: C_2  and  C_9
REMARK    3  A    between atoms: C_2  and  C_15
REMARK    4  A    between atoms: C_3  and  N_4
REMARK    5  A    between atoms: C_9  and  N_10
REMARK                            x       y       z     vdW  Elec       q    Type
REMARK                         _______ _______ _______ _____ _____    ______ ____
ROOT
ATOM      1  O   UNL     1      -9.213  14.706  67.788  0.00  0.00    -0.217 OA
ATOM      2  C   UNL     1     -10.040  15.480  66.978  0.00  0.00    +0.192 C 
ENDROOT
BRANCH   2   3
ATOM      3  C   UNL     1      -9.591  16.909  66.984  0.00  0.00    +0.036 A 
ATOM      4  C   UNL     1     -10.433  17.839  66.383  0.00  0.00    +0.141 A 
ATOM      5  F   UNL     1     -10.936  17.496  65.163  0.00  0.00    -0.204 F 
ATOM      6  C   UNL     1     -10.424  19.176  66.761  0.00  0.00    +0.059 A 
ATOM      7  C   UNL     1      -9.822  19.519  67.962  0.00  0.00    +0.142 A 
ATOM      8  F   UNL     1     -10.364  20.442  68.808  0.00  0.00    -0.204 F 
ATOM      9  C   UNL     1      -8.760  18.709  68.343  0.00  0.00    +0.030 A 
ATOM     10  C   UNL     1      -8.711  17.380  67.944  0.00  0.00    +0.003 A 
ENDBRANCH   2   3
BRANCH   2  11
ATOM     11  C   UNL     1     -11.483  15.465  67.431  0.00  0.00    +0.166 C 
BRANCH  11  12
ATOM     12  N   UNL     1     -11.622  15.354  68.860  0.00  0.00    -0.227 N 
ATOM     13  N   UNL     1     -11.606  16.337  69.760  0.00  0.00    -0.145 NA
ATOM     14  C   UNL     1     -11.849  15.809  70.985  0.00  0.00    +0.221 A 
ATOM     15  N   UNL     1     -12.501  14.655  70.716  0.00  0.00    -0.201 NA
ATOM     16  C   UNL     1     -12.029  14.246  69.518  0.00  0.00    +0.197 A 
ENDBRANCH  11  12
ENDBRANCH   2  11
BRANCH   2  17
ATOM     17  C   UNL     1     -10.020  15.026  65.543  0.00  0.00    +0.166 C 
BRANCH  17  18
ATOM     18  N   UNL     1     -11.096  14.130  65.210  0.00  0.00    -0.227 N 
ATOM     19  N   UNL     1     -10.955  12.812  65.152  0.00  0.00    -0.145 NA
ATOM     20  C   UNL     1     -12.051  12.310  64.550  0.00  0.00    +0.221 A 
ATOM     21  N   UNL     1     -12.555  13.304  63.821  0.00  0.00    -0.201 NA
ATOM     22  C   UNL     1     -12.051  14.449  64.303  0.00  0.00    +0.197 A 
ENDBRANCH  17  18
ENDBRANCH   2  17
TORSDOF 5
ENDMDL
MODEL 9
REMARK VINA RESULT:      -6.1      3.090      5.463
REMARK  Name = 
REMARK  5 active torsions:
REMARK  status: ('A' for Active; 'I' for Inactive)
REMARK    1  A    between atoms: C_2  and  C_3
REMARK    2  A    between atoms: C_2  and  C_9
REMARK    3  A    between atoms: C_2  and  C_15
REMARK    4  A    between atoms: C_3  and  N_4
REMARK    5  A    between atoms: C_9  and  N_10
REMARK                            x       y       z     vdW  Elec       q    Type
REMARK                         _______ _______ _______ _____ _____    ______ ____
ROOT
ATOM      1  O   UNL     1     -12.315  14.732  67.651  0.00  0.00    -0.217 OA
ATOM      2  C   UNL     1     -11.055  14.166  67.821  0.00  0.00    +0.192 C 
ENDROOT
BRANCH   2   3
ATOM      3  C   UNL     1     -11.064  13.198  68.965  0.00  0.00    +0.036 A 
ATOM      4  C   UNL     1     -11.941  13.464  70.011  0.00  0.00    +0.141 A 
ATOM      5  F   UNL     1     -11.966  14.750  70.465  0.00  0.00    -0.204 F 
ATOM      6  C   UNL     1     -12.428  12.449  70.825  0.00  0.00    +0.059 A 
ATOM      7  C   UNL     1     -12.308  11.138  70.389  0.00  0.00    +0.142 A 
ATOM      8  F   UNL     1     -13.307  10.224  70.553  0.00  0.00    -0.204 F 
ATOM      9  C   UNL     1     -11.204  10.880  69.586  0.00  0.00    +0.030 A 
ATOM     10  C   UNL     1     -10.660  11.885  68.796  0.00  0.00    +0.003 A 
ENDBRANCH   2   3
BRANCH   2  11
ATOM     11  C   UNL     1      -9.986  15.194  68.118  0.00  0.00    +0.166 C 
BRANCH  11  12
ATOM     12  N   UNL     1     -10.235  16.462  67.480  0.00  0.00    -0.227 N 
ATOM     13  N   UNL     1     -10.659  17.591  68.046  0.00  0.00    -0.145 NA
ATOM     14  C   UNL     1     -10.685  18.567  67.105  0.00  0.00    +0.221 A 
ATOM     15  N   UNL     1      -9.806  18.138  66.171  0.00  0.00    -0.201 NA
ATOM     16  C   UNL     1      -9.853  16.789  66.226  0.00  0.00    +0.197 A 
ENDBRANCH  11  12
ENDBRANCH   2  11
BRANCH   2  17
ATOM     17  C   UNL     1     -10.606  13.397  66.607  0.00  0.00    +0.166 C 
BRANCH  17  18
ATOM     18  N   UNL     1     -11.628  13.267  65.601  0.00  0.00    -0.227 N 
ATOM     19  N   UNL     1     -12.237  12.121  65.325  0.00  0.00    -0.145 NA
ATOM     20  C   UNL     1     -12.912  12.286  64.170  0.00  0.00    +0.221 A 
ATOM     21  N   UNL     1     -12.307  13.286  63.532  0.00  0.00    -0.201 NA
ATOM     22  C   UNL     1     -11.597  13.969  64.442  0.00  0.00    +0.197 A 
ENDBRANCH  17  18
ENDBRANCH   2  17
TORSDOF 5
ENDMDL
