MODEL 1
REMARK VINA RESULT:      -8.0      0.000      0.000
REMARK  Name = 
REMARK  6 active torsions:
REMARK  status: ('A' for Active; 'I' for Inactive)
REMARK    1  A    between atoms: C_4  and  C_6
REMARK    2  A    between atoms: C_9  and  N_10
REMARK    3  A    between atoms: C_11  and  C_13
REMARK    4  A    between atoms: N_15  and  C_16
REMARK    5  A    between atoms: C_23  and  N_24
REMARK    6  A    between atoms: C_25  and  C_27
REMARK                            x       y       z     vdW  Elec       q    Type
REMARK                         _______ _______ _______ _____ _____    ______ ____
ROOT
ATOM      1  C   UNL     1     -10.105  11.948  65.147  0.00  0.00    +0.079 C 
ATOM      2  C   UNL     1      -9.829  10.545  65.919  0.00  0.00    +0.033 C 
ATOM      3  C   UNL     1      -9.603  10.936  67.483  0.00  0.00    +0.116 C 
ATOM      4  C   UNL     1     -11.299  10.934  67.783  0.00  0.00    +0.116 C 
ATOM      5  C   UNL     1     -11.667  12.309  66.992  0.00  0.00    +0.024 C 
ATOM      6  C   UNL     1     -11.692  11.969  65.555  0.00  0.00    +0.011 C 
ENDROOT
BRANCH   1   9
ATOM      7  C   UNL     1      -9.052  11.350  62.609  0.00  0.00    +0.115 C 
ATOM      8  N   UNL     1      -9.316  10.934  62.930  0.00  0.00    -0.276 N 
ATOM      9  C   UNL     1     -10.442  11.183  63.770  0.00  0.00    +0.225 C 
ATOM     10  O   UNL     1     -11.471  11.710  63.279  0.00  0.00    -0.275 OA
ATOM     11  C   UNL     1      -9.078   9.522  62.607  0.00  0.00    +0.115 C 
ENDBRANCH   1   9
BRANCH   3  12
ATOM     12  N   UNL     1      -9.425  12.484  67.340  0.00  0.00    -0.200 NA
ATOM     13  C   UNL     1      -8.231  13.039  67.831  0.00  0.00    +0.289 C 
ATOM     14  O   UNL     1      -7.158  12.377  67.687  0.00  0.00    -0.266 OA
BRANCH  13  15
ATOM     15  C   UNL     1      -8.154  14.502  67.969  0.00  0.00    +0.165 A 
ATOM     16  S   UNL     1      -7.044  15.638  67.309  0.00  0.00    -0.065 S 
ATOM     17  C   UNL     1      -8.040  17.041  67.384  0.00  0.00    +0.039 A 
ATOM     18  C   UNL     1      -8.033  18.285  66.553  0.00  0.00    +0.107 C 
ATOM     19  N   UNL     1      -9.324  18.691  66.103  0.00  0.00    -0.267 NA
ATOM     20  C   UNL     1     -10.344  17.682  66.161  0.00  0.00    +0.079 C 
ATOM     21  C   UNL     1     -10.451  17.289  67.633  0.00  0.00    +0.063 C 
ATOM     22  C   UNL     1      -9.764  19.770  66.987  0.00  0.00    +0.090 C 
ATOM     23  C   UNL     1      -9.213  16.470  67.866  0.00  0.00    +0.064 A 
ATOM     24  N   UNL     1      -8.994  15.358  68.556  0.00  0.00    -0.238 NA
ENDBRANCH  13  15
ENDBRANCH   3  12
BRANCH   4  25
ATOM     25  N   UNL     1     -11.109  11.688  69.142  0.00  0.00    -0.198 NA
ATOM     26  C   UNL     1     -11.954  11.268  70.199  0.00  0.00    +0.321 C 
ATOM     27  O   UNL     1     -12.154  10.015  70.249  0.00  0.00    -0.263 OA
BRANCH  26  28
ATOM     28  C   UNL     1     -12.872  12.175  70.901  0.00  0.00    +0.326 C 
ATOM     29  N   UNL     1     -13.189  13.452  70.396  0.00  0.00    -0.153 NA
ATOM     30  O   UNL     1     -13.216  11.988  72.106  0.00  0.00    -0.263 OA
BRANCH  29  31
ATOM     31  C   UNL     1     -13.071  14.660  71.166  0.00  0.00    +0.155 A 
ATOM     32  N   UNL     1     -11.847  14.771  71.743  0.00  0.00    -0.226 NA
ATOM     33  C   UNL     1     -11.581  15.563  72.779  0.00  0.00    +0.112 A 
ATOM     34  C   UNL     1     -12.596  16.066  73.539  0.00  0.00    +0.077 A 
ATOM     35 CL   UNL     1     -12.393  16.376  75.261  0.00  0.00    -0.081 Cl
ATOM     36  C   UNL     1     -13.885  15.927  73.039  0.00  0.00    +0.016 A 
ATOM     37  C   UNL     1     -14.120  15.189  71.881  0.00  0.00    +0.037 A 
ENDBRANCH  29  31
ENDBRANCH  26  28
ENDBRANCH   4  25
TORSDOF 6
ENDMDL
MODEL 2
REMARK VINA RESULT:      -7.8      3.651      5.409
REMARK  Name = 
REMARK  6 active torsions:
REMARK  status: ('A' for Active; 'I' for Inactive)
REMARK    1  A    between atoms: C_4  and  C_6
REMARK    2  A    between atoms: C_9  and  N_10
REMARK    3  A    between atoms: C_11  and  C_13
REMARK    4  A    between atoms: N_15  and  C_16
REMARK    5  A    between atoms: C_23  and  N_24
REMARK    6  A    between atoms: C_25  and  C_27
REMARK                            x       y       z     vdW  Elec       q    Type
REMARK                         _______ _______ _______ _____ _____    ______ ____
ROOT
ATOM      1  C   UNL     1      -8.856  10.505  64.761  0.00  0.00    +0.079 C 
ATOM      2  C   UNL     1     -10.260  10.077  65.457  0.00  0.00    +0.033 C 
ATOM      3  C   UNL     1     -10.738  11.370  66.324  0.00  0.00    +0.116 C 
ATOM      4  C   UNL     1     -11.475  12.090  64.945  0.00  0.00    +0.116 C 
ATOM      5  C   UNL     1     -10.112  12.514  64.160  0.00  0.00    +0.024 C 
ATOM      6  C   UNL     1      -9.598  11.283  63.524  0.00  0.00    +0.011 C 
ENDROOT
BRANCH   1   9
ATOM      7  C   UNL     1      -7.132   8.431  63.967  0.00  0.00    +0.115 C 
ATOM      8  N   UNL     1      -7.673   8.313  64.165  0.00  0.00    -0.276 N 
ATOM      9  C   UNL     1      -8.804   9.140  63.907  0.00  0.00    +0.225 C 
ATOM     10  O   UNL     1      -9.106   9.419  62.720  0.00  0.00    -0.275 OA
ATOM     11  C   UNL     1      -7.984   6.954  64.625  0.00  0.00    +0.115 C 
ENDBRANCH   1   9
BRANCH   3  12
ATOM     12  N   UNL     1      -9.412  12.201  66.302  0.00  0.00    -0.200 NA
ATOM     13  C   UNL     1      -8.766  12.408  67.532  0.00  0.00    +0.289 C 
ATOM     14  O   UNL     1      -8.772  11.463  68.380  0.00  0.00    -0.266 OA
BRANCH  13  15
ATOM     15  C   UNL     1      -7.688  13.408  67.588  0.00  0.00    +0.165 A 
ATOM     16  S   UNL     1      -7.665  15.003  68.232  0.00  0.00    -0.065 S 
ATOM     17  C   UNL     1      -5.969  15.147  68.494  0.00  0.00    +0.039 A 
ATOM     18  C   UNL     1      -5.204  15.973  69.479  0.00  0.00    +0.107 C 
ATOM     19  N   UNL     1      -4.174  15.260  70.161  0.00  0.00    -0.267 NA
ATOM     20  C   UNL     1      -4.279  13.829  70.112  0.00  0.00    +0.079 C 
ATOM     21  C   UNL     1      -4.215  13.462  68.631  0.00  0.00    +0.063 C 
ATOM     22  C   UNL     1      -2.912  15.601  69.507  0.00  0.00    +0.090 C 
ATOM     23  C   UNL     1      -5.564  13.873  68.112  0.00  0.00    +0.064 A 
ATOM     24  N   UNL     1      -6.401  13.307  67.252  0.00  0.00    -0.238 NA
ENDBRANCH  13  15
ENDBRANCH   3  12
BRANCH   4  25
ATOM     25  N   UNL     1     -11.574  13.478  65.661  0.00  0.00    -0.198 NA
ATOM     26  C   UNL     1     -11.966  14.565  64.839  0.00  0.00    +0.321 C 
ATOM     27  O   UNL     1     -12.860  14.283  63.983  0.00  0.00    -0.263 OA
BRANCH  26  28
ATOM     28  C   UNL     1     -11.146  15.770  64.659  0.00  0.00    +0.326 C 
ATOM     29  N   UNL     1     -10.038  16.049  65.485  0.00  0.00    -0.153 NA
ATOM     30  O   UNL     1     -11.528  16.747  63.948  0.00  0.00    -0.263 OA
BRANCH  29  31
ATOM     31  C   UNL     1      -9.859  17.296  66.174  0.00  0.00    +0.155 A 
ATOM     32  N   UNL     1      -8.652  17.856  65.898  0.00  0.00    -0.226 NA
ATOM     33  C   UNL     1      -8.073  18.786  66.652  0.00  0.00    +0.112 A 
ATOM     34  C   UNL     1      -8.500  19.002  67.930  0.00  0.00    +0.077 A 
ATOM     35 CL   UNL     1      -7.394  19.524  69.196  0.00  0.00    -0.081 Cl
ATOM     36  C   UNL     1      -9.697  18.402  68.302  0.00  0.00    +0.016 A 
ATOM     37  C   UNL     1     -10.346  17.521  67.441  0.00  0.00    +0.037 A 
ENDBRANCH  29  31
ENDBRANCH  26  28
ENDBRANCH   4  25
TORSDOF 6
ENDMDL
MODEL 3
REMARK VINA RESULT:      -7.6      4.749      8.444
REMARK  Name = 
REMARK  6 active torsions:
REMARK  status: ('A' for Active; 'I' for Inactive)
REMARK    1  A    between atoms: C_4  and  C_6
REMARK    2  A    between atoms: C_9  and  N_10
REMARK    3  A    between atoms: C_11  and  C_13
REMARK    4  A    between atoms: N_15  and  C_16
REMARK    5  A    between atoms: C_23  and  N_24
REMARK    6  A    between atoms: C_25  and  C_27
REMARK                            x       y       z     vdW  Elec       q    Type
REMARK                         _______ _______ _______ _____ _____    ______ ____
ROOT
ATOM      1  C   UNL     1      -5.941  19.375  64.804  0.00  0.00    +0.079 C 
ATOM      2  C   UNL     1      -6.416  20.818  65.380  0.00  0.00    +0.033 C 
ATOM      3  C   UNL     1      -7.159  20.507  66.796  0.00  0.00    +0.116 C 
ATOM      4  C   UNL     1      -5.659  20.500  67.642  0.00  0.00    +0.116 C 
ATOM      5  C   UNL     1      -5.090  19.083  67.076  0.00  0.00    +0.024 C 
ATOM      6  C   UNL     1      -4.580  19.352  65.716  0.00  0.00    +0.011 C 
ENDROOT
BRANCH   1   9
ATOM      7  C   UNL     1      -5.082  18.939  62.162  0.00  0.00    +0.115 C 
ATOM      8  N   UNL     1      -5.333  19.448  62.316  0.00  0.00    -0.276 N 
ATOM      9  C   UNL     1      -5.145  20.067  63.586  0.00  0.00    +0.225 C 
ATOM     10  O   UNL     1      -3.979  20.318  63.982  0.00  0.00    -0.275 OA
ATOM     11  C   UNL     1      -5.878  20.321  61.269  0.00  0.00    +0.115 C 
ENDBRANCH   1   9
BRANCH   3  12
ATOM     12  N   UNL     1      -7.325  18.957  66.666  0.00  0.00    -0.200 NA
ATOM     13  C   UNL     1      -8.636  18.459  66.571  0.00  0.00    +0.289 C 
ATOM     14  O   UNL     1      -9.485  19.129  65.908  0.00  0.00    -0.266 OA
BRANCH  13  15
ATOM     15  C   UNL     1      -8.839  17.011  66.732  0.00  0.00    +0.165 A 
ATOM     16  S   UNL     1      -9.353  16.090  68.091  0.00  0.00    -0.065 S 
ATOM     17  C   UNL     1      -9.950  14.710  67.252  0.00  0.00    +0.039 A 
ATOM     18  C   UNL     1     -11.009  13.723  67.633  0.00  0.00    +0.107 C 
ATOM     19  N   UNL     1     -11.941  13.439  66.592  0.00  0.00    -0.267 NA
ATOM     20  C   UNL     1     -11.978  14.393  65.519  0.00  0.00    +0.079 C 
ATOM     21  C   UNL     1     -10.574  14.392  64.919  0.00  0.00    +0.063 C 
ATOM     22  C   UNL     1     -11.540  12.166  65.994  0.00  0.00    +0.090 C 
ATOM     23  C   UNL     1      -9.757  15.130  65.941  0.00  0.00    +0.064 A 
ATOM     24  N   UNL     1      -8.786  16.028  65.830  0.00  0.00    -0.238 NA
ENDBRANCH  13  15
ENDBRANCH   3  12
BRANCH   4  25
ATOM     25  N   UNL     1      -6.311  19.816  68.890  0.00  0.00    -0.198 NA
ATOM     26  C   UNL     1      -5.630  20.008  70.119  0.00  0.00    +0.321 C 
ATOM     27  O   UNL     1      -5.143  21.170  70.276  0.00  0.00    -0.263 OA
BRANCH  26  28
ATOM     28  C   UNL     1      -5.134  18.898  70.942  0.00  0.00    +0.326 C 
ATOM     29  N   UNL     1      -4.705  17.681  70.374  0.00  0.00    -0.153 NA
ATOM     30  O   UNL     1      -5.307  18.857  72.197  0.00  0.00    -0.263 OA
BRANCH  29  31
ATOM     31  C   UNL     1      -5.194  16.397  70.791  0.00  0.00    +0.155 A 
ATOM     32  N   UNL     1      -4.255  15.698  71.479  0.00  0.00    -0.226 NA
ATOM     33  C   UNL     1      -4.289  14.380  71.659  0.00  0.00    +0.112 A 
ATOM     34  C   UNL     1      -5.095  13.600  70.882  0.00  0.00    +0.077 A 
ATOM     35 CL   UNL     1      -4.649  11.951  70.457  0.00  0.00    -0.081 Cl
ATOM     36  C   UNL     1      -6.038  14.255  70.099  0.00  0.00    +0.016 A 
ATOM     37  C   UNL     1      -6.055  15.645  70.024  0.00  0.00    +0.037 A 
ENDBRANCH  29  31
ENDBRANCH  26  28
ENDBRANCH   4  25
TORSDOF 6
ENDMDL
MODEL 4
REMARK VINA RESULT:      -7.5      2.912      6.496
REMARK  Name = 
REMARK  6 active torsions:
REMARK  status: ('A' for Active; 'I' for Inactive)
REMARK    1  A    between atoms: C_4  and  C_6
REMARK    2  A    between atoms: C_9  and  N_10
REMARK    3  A    between atoms: C_11  and  C_13
REMARK    4  A    between atoms: N_15  and  C_16
REMARK    5  A    between atoms: C_23  and  N_24
REMARK    6  A    between atoms: C_25  and  C_27
REMARK                            x       y       z     vdW  Elec       q    Type
REMARK                         _______ _______ _______ _____ _____    ______ ____
ROOT
ATOM      1  C   UNL     1      -8.988  15.925  67.794  0.00  0.00    +0.079 C 
ATOM      2  C   UNL     1     -10.087  17.108  67.979  0.00  0.00    +0.033 C 
ATOM      3  C   UNL     1     -11.532  16.361  68.069  0.00  0.00    +0.116 C 
ATOM      4  C   UNL     1     -11.340  16.077  69.756  0.00  0.00    +0.116 C 
ATOM      5  C   UNL     1     -10.202  14.915  69.659  0.00  0.00    +0.024 C 
ATOM      6  C   UNL     1      -8.923  15.606  69.400  0.00  0.00    +0.011 C 
ENDROOT
BRANCH   1   9
ATOM      7  C   UNL     1      -6.654  16.807  66.498  0.00  0.00    +0.115 C 
ATOM      8  N   UNL     1      -7.037  17.193  66.721  0.00  0.00    -0.276 N 
ATOM      9  C   UNL     1      -7.768  16.969  67.925  0.00  0.00    +0.225 C 
ATOM     10  O   UNL     1      -7.146  16.702  68.983  0.00  0.00    -0.275 OA
ATOM     11  C   UNL     1      -6.997  18.587  66.264  0.00  0.00    +0.115 C 
ENDBRANCH   1   9
BRANCH   3  12
ATOM     12  N   UNL     1     -11.116  14.935  67.576  0.00  0.00    -0.200 NA
ATOM     13  C   UNL     1     -11.600  14.525  66.321  0.00  0.00    +0.289 C 
ATOM     14  O   UNL     1     -11.680  15.391  65.397  0.00  0.00    -0.266 OA
BRANCH  13  15
ATOM     15  C   UNL     1     -11.467  13.105  65.959  0.00  0.00    +0.165 A 
ATOM     16  S   UNL     1     -11.010  12.360  64.478  0.00  0.00    -0.065 S 
ATOM     17  C   UNL     1     -10.471  10.851  65.108  0.00  0.00    +0.039 A 
ATOM     18  C   UNL     1      -9.463   9.879  64.578  0.00  0.00    +0.107 C 
ATOM     19  N   UNL     1      -8.536   9.411  65.556  0.00  0.00    -0.267 NA
ATOM     20  C   UNL     1      -8.444  10.205  66.749  0.00  0.00    +0.079 C 
ATOM     21  C   UNL     1      -9.841  10.184  67.366  0.00  0.00    +0.063 C 
ATOM     22  C   UNL     1      -8.992   8.087  65.978  0.00  0.00    +0.090 C 
ATOM     23  C   UNL     1     -10.632  11.093  66.468  0.00  0.00    +0.064 A 
ATOM     24  N   UNL     1     -11.558  12.010  66.717  0.00  0.00    -0.238 NA
ENDBRANCH  13  15
ENDBRANCH   3  12
BRANCH   4  25
ATOM     25  N   UNL     1     -12.504  15.030  69.762  0.00  0.00    -0.198 NA
ATOM     26  C   UNL     1     -13.172  14.864  71.002  0.00  0.00    +0.321 C 
ATOM     27  O   UNL     1     -13.349  15.939  71.654  0.00  0.00    -0.263 OA
BRANCH  26  28
ATOM     28  C   UNL     1     -13.264  13.573  71.696  0.00  0.00    +0.326 C 
ATOM     29  N   UNL     1     -12.332  12.539  71.476  0.00  0.00    -0.153 NA
ATOM     30  O   UNL     1     -14.310  13.212  72.315  0.00  0.00    -0.263 OA
BRANCH  29  31
ATOM     31  C   UNL     1     -12.706  11.197  71.129  0.00  0.00    +0.155 A 
ATOM     32  N   UNL     1     -13.271  10.544  72.177  0.00  0.00    -0.226 NA
ATOM     33  C   UNL     1     -13.369   9.219  72.263  0.00  0.00    +0.112 A 
ATOM     34  C   UNL     1     -12.613   8.418  71.459  0.00  0.00    +0.077 A 
ATOM     35 CL   UNL     1     -12.050   6.839  71.996  0.00  0.00    -0.081 Cl
ATOM     36  C   UNL     1     -11.952   9.033  70.402  0.00  0.00    +0.016 A 
ATOM     37  C   UNL     1     -11.966  10.419  70.268  0.00  0.00    +0.037 A 
ENDBRANCH  29  31
ENDBRANCH  26  28
ENDBRANCH   4  25
TORSDOF 6
ENDMDL
MODEL 5
REMARK VINA RESULT:      -7.2      3.363      7.477
REMARK  Name = 
REMARK  6 active torsions:
REMARK  status: ('A' for Active; 'I' for Inactive)
REMARK    1  A    between atoms: C_4  and  C_6
REMARK    2  A    between atoms: C_9  and  N_10
REMARK    3  A    between atoms: C_11  and  C_13
REMARK    4  A    between atoms: N_15  and  C_16
REMARK    5  A    between atoms: C_23  and  N_24
REMARK    6  A    between atoms: C_25  and  C_27
REMARK                            x       y       z     vdW  Elec       q    Type
REMARK                         _______ _______ _______ _____ _____    ______ ____
ROOT
ATOM      1  C   UNL     1     -11.308  14.982  70.567  0.00  0.00    +0.079 C 
ATOM      2  C   UNL     1     -11.976  15.920  69.420  0.00  0.00    +0.033 C 
ATOM      3  C   UNL     1     -11.086  15.682  68.078  0.00  0.00    +0.116 C 
ATOM      4  C   UNL     1     -11.991  14.278  67.661  0.00  0.00    +0.116 C 
ATOM      5  C   UNL     1     -11.404  13.285  68.811  0.00  0.00    +0.024 C 
ATOM      6  C   UNL     1     -12.101  13.639  70.064  0.00  0.00    +0.011 C 
ENDROOT
BRANCH   1   9
ATOM      7  C   UNL     1     -12.027  14.774  73.277  0.00  0.00    +0.115 C 
ATOM      8  N   UNL     1     -12.113  15.275  72.981  0.00  0.00    -0.276 N 
ATOM      9  C   UNL     1     -12.490  15.323  71.607  0.00  0.00    +0.225 C 
ATOM     10  O   UNL     1     -13.522  14.714  71.229  0.00  0.00    -0.275 OA
ATOM     11  C   UNL     1     -12.317  16.522  73.729  0.00  0.00    +0.115 C 
ENDBRANCH   1   9
BRANCH   3  12
ATOM     12  N   UNL     1      -9.856  14.950  68.710  0.00  0.00    -0.200 NA
ATOM     13  C   UNL     1      -8.582  15.457  68.403  0.00  0.00    +0.289 C 
ATOM     14  O   UNL     1      -8.444  16.715  68.309  0.00  0.00    -0.266 OA
BRANCH  13  15
ATOM     15  C   UNL     1      -7.410  14.635  68.743  0.00  0.00    +0.165 A 
ATOM     16  S   UNL     1      -6.440  14.590  70.162  0.00  0.00    -0.065 S 
ATOM     17  C   UNL     1      -5.817  12.993  69.995  0.00  0.00    +0.039 A 
ATOM     18  C   UNL     1      -5.344  12.019  71.028  0.00  0.00    +0.107 C 
ATOM     19  N   UNL     1      -5.852  10.698  70.858  0.00  0.00    -0.267 NA
ATOM     20  C   UNL     1      -7.006  10.585  70.012  0.00  0.00    +0.079 C 
ATOM     21  C   UNL     1      -6.568  11.108  68.646  0.00  0.00    +0.063 C 
ATOM     22  C   UNL     1      -4.797   9.912  70.220  0.00  0.00    +0.090 C 
ATOM     23  C   UNL     1      -6.496  12.595  68.849  0.00  0.00    +0.064 A 
ATOM     24  N   UNL     1      -6.849  13.619  68.082  0.00  0.00    -0.238 NA
ENDBRANCH  13  15
ENDBRANCH   3  12
BRANCH   4  25
ATOM     25  N   UNL     1     -10.909  13.828  66.624  0.00  0.00    -0.198 NA
ATOM     26  C   UNL     1     -11.183  12.617  65.939  0.00  0.00    +0.321 C 
ATOM     27  O   UNL     1     -12.401  12.456  65.621  0.00  0.00    -0.263 OA
BRANCH  26  28
ATOM     28  C   UNL     1     -10.283  11.457  65.972  0.00  0.00    +0.326 C 
ATOM     29  N   UNL     1     -10.765  10.143  66.141  0.00  0.00    -0.153 NA
ATOM     30  O   UNL     1      -9.030  11.578  66.119  0.00  0.00    -0.263 OA
BRANCH  29  31
ATOM     31  C   UNL     1     -10.269   9.241  67.142  0.00  0.00    +0.155 A 
ATOM     32  N   UNL     1     -10.513   7.945  66.818  0.00  0.00    -0.226 NA
ATOM     33  C   UNL     1     -10.506   6.944  67.694  0.00  0.00    +0.112 A 
ATOM     34  C   UNL     1     -10.579   7.199  69.032  0.00  0.00    +0.077 A 
ATOM     35 CL   UNL     1     -11.371   6.085  70.142  0.00  0.00    -0.081 Cl
ATOM     36  C   UNL     1     -10.404   8.519  69.430  0.00  0.00    +0.016 A 
ATOM     37  C   UNL     1     -10.294   9.536  68.485  0.00  0.00    +0.037 A 
ENDBRANCH  29  31
ENDBRANCH  26  28
ENDBRANCH   4  25
TORSDOF 6
ENDMDL
MODEL 6
REMARK VINA RESULT:      -7.2      3.524      4.833
REMARK  Name = 
REMARK  6 active torsions:
REMARK  status: ('A' for Active; 'I' for Inactive)
REMARK    1  A    between atoms: C_4  and  C_6
REMARK    2  A    between atoms: C_9  and  N_10
REMARK    3  A    between atoms: C_11  and  C_13
REMARK    4  A    between atoms: N_15  and  C_16
REMARK    5  A    between atoms: C_23  and  N_24
REMARK    6  A    between atoms: C_25  and  C_27
REMARK                            x       y       z     vdW  Elec       q    Type
REMARK                         _______ _______ _______ _____ _____    ______ ____
ROOT
ATOM      1  C   UNL     1      -9.226   6.395  67.283  0.00  0.00    +0.079 C 
ATOM      2  C   UNL     1      -8.270   6.355  68.596  0.00  0.00    +0.033 C 
ATOM      3  C   UNL     1      -8.241   7.879  69.171  0.00  0.00    +0.116 C 
ATOM      4  C   UNL     1      -9.702   7.633  70.048  0.00  0.00    +0.116 C 
ATOM      5  C   UNL     1     -10.724   7.615  68.780  0.00  0.00    +0.024 C 
ATOM      6  C   UNL     1     -10.602   6.278  68.165  0.00  0.00    +0.011 C 
ENDROOT
BRANCH   1   9
ATOM      7  C   UNL     1      -9.672   4.313  65.447  0.00  0.00    +0.115 C 
ATOM      8  N   UNL     1      -9.187   4.322  65.778  0.00  0.00    -0.276 N 
ATOM      9  C   UNL     1      -9.160   4.794  67.123  0.00  0.00    +0.225 C 
ATOM     10  O   UNL     1      -9.942   4.291  67.968  0.00  0.00    -0.275 OA
ATOM     11  C   UNL     1      -8.032   3.508  65.378  0.00  0.00    +0.115 C 
ENDBRANCH   1   9
BRANCH   3  12
ATOM     12  N   UNL     1      -8.865   8.629  67.946  0.00  0.00    -0.200 NA
ATOM     13  C   UNL     1      -8.045   9.552  67.276  0.00  0.00    +0.289 C 
ATOM     14  O   UNL     1      -6.814   9.275  67.142  0.00  0.00    -0.266 OA
BRANCH  13  15
ATOM     15  C   UNL     1      -8.678  10.469  66.314  0.00  0.00    +0.165 A 
ATOM     16  S   UNL     1      -9.779  10.165  65.028  0.00  0.00    -0.065 S 
ATOM     17  C   UNL     1     -10.483  11.733  64.920  0.00  0.00    +0.039 A 
ATOM     18  C   UNL     1     -11.835  12.163  64.445  0.00  0.00    +0.107 C 
ATOM     19  N   UNL     1     -12.487  13.092  65.309  0.00  0.00    -0.267 NA
ATOM     20  C   UNL     1     -11.963  13.167  66.643  0.00  0.00    +0.079 C 
ATOM     21  C   UNL     1     -10.505  13.597  66.490  0.00  0.00    +0.063 C 
ATOM     22  C   UNL     1     -12.307  14.420  64.723  0.00  0.00    +0.090 C 
ATOM     23  C   UNL     1      -9.828  12.358  65.976  0.00  0.00    +0.064 A 
ATOM     24  N   UNL     1      -8.655  11.802  66.251  0.00  0.00    -0.238 NA
ENDBRANCH  13  15
ENDBRANCH   3  12
BRANCH   4  25
ATOM     25  N   UNL     1      -9.890   9.171  70.264  0.00  0.00    -0.198 NA
ATOM     26  C   UNL     1     -11.002   9.547  71.059  0.00  0.00    +0.321 C 
ATOM     27  O   UNL     1     -11.222   8.786  72.051  0.00  0.00    -0.263 OA
BRANCH  26  28
ATOM     28  C   UNL     1     -12.068  10.435  70.577  0.00  0.00    +0.326 C 
ATOM     29  N   UNL     1     -11.812  11.766  70.190  0.00  0.00    -0.153 NA
ATOM     30  O   UNL     1     -13.296  10.161  70.730  0.00  0.00    -0.263 OA
BRANCH  29  31
ATOM     31  C   UNL     1     -12.538  12.894  70.706  0.00  0.00    +0.155 A 
ATOM     32  N   UNL     1     -11.907  14.065  70.436  0.00  0.00    -0.226 NA
ATOM     33  C   UNL     1     -12.137  15.203  71.088  0.00  0.00    +0.112 A 
ATOM     34  C   UNL     1     -12.781  15.189  72.290  0.00  0.00    +0.077 A 
ATOM     35 CL   UNL     1     -12.424  16.376  73.541  0.00  0.00    -0.081 Cl
ATOM     36  C   UNL     1     -13.394  13.999  72.661  0.00  0.00    +0.016 A 
ATOM     37  C   UNL     1     -13.234  12.849  71.892  0.00  0.00    +0.037 A 
ENDBRANCH  29  31
ENDBRANCH  26  28
ENDBRANCH   4  25
TORSDOF 6
ENDMDL
MODEL 7
REMARK VINA RESULT:      -7.2      5.060      8.893
REMARK  Name = 
REMARK  6 active torsions:
REMARK  status: ('A' for Active; 'I' for Inactive)
REMARK    1  A    between atoms: C_4  and  C_6
REMARK    2  A    between atoms: C_9  and  N_10
REMARK    3  A    between atoms: C_11  and  C_13
REMARK    4  A    between atoms: N_15  and  C_16
REMARK    5  A    between atoms: C_23  and  N_24
REMARK    6  A    between atoms: C_25  and  C_27
REMARK                            x       y       z     vdW  Elec       q    Type
REMARK                         _______ _______ _______ _____ _____    ______ ____
ROOT
ATOM      1  C   UNL     1      -5.431  19.304  69.108  0.00  0.00    +0.079 C 
ATOM      2  C   UNL     1      -6.842  20.008  69.501  0.00  0.00    +0.033 C 
ATOM      3  C   UNL     1      -7.724  20.029  68.132  0.00  0.00    +0.116 C 
ATOM      4  C   UNL     1      -8.283  18.424  68.405  0.00  0.00    +0.116 C 
ATOM      5  C   UNL     1      -6.893  17.643  68.070  0.00  0.00    +0.024 C 
ATOM      6  C   UNL     1      -6.036  17.789  69.263  0.00  0.00    +0.011 C 
ENDROOT
BRANCH   1   9
ATOM      7  C   UNL     1      -3.306  20.065  70.784  0.00  0.00    +0.115 C 
ATOM      8  N   UNL     1      -3.863  20.175  70.936  0.00  0.00    -0.276 N 
ATOM      9  C   UNL     1      -4.947  19.298  70.644  0.00  0.00    +0.225 C 
ATOM     10  O   UNL     1      -4.892  18.102  71.025  0.00  0.00    -0.275 OA
ATOM     11  C   UNL     1      -4.135  21.185  71.967  0.00  0.00    +0.115 C 
ENDBRANCH   1   9
BRANCH   3  12
ATOM     12  N   UNL     1      -6.603  19.680  67.097  0.00  0.00    -0.200 NA
ATOM     13  C   UNL     1      -6.156  20.718  66.263  0.00  0.00    +0.289 C 
ATOM     14  O   UNL     1      -6.063  21.885  66.754  0.00  0.00    -0.266 OA
BRANCH  13  15
ATOM     15  C   UNL     1      -5.321  20.364  65.104  0.00  0.00    +0.165 A 
ATOM     16  S   UNL     1      -4.908  18.832  64.441  0.00  0.00    -0.065 S 
ATOM     17  C   UNL     1      -4.539  19.340  62.837  0.00  0.00    +0.039 A 
ATOM     18  C   UNL     1      -4.610  18.597  61.541  0.00  0.00    +0.107 C 
ATOM     19  N   UNL     1      -5.243  19.322  60.488  0.00  0.00    -0.267 NA
ATOM     20  C   UNL     1      -6.046  20.437  60.904  0.00  0.00    +0.079 C 
ATOM     21  C   UNL     1      -5.092  21.383  61.631  0.00  0.00    +0.063 C 
ATOM     22  C   UNL     1      -4.180  19.872  59.649  0.00  0.00    +0.090 C 
ATOM     23  C   UNL     1      -4.848  20.691  62.942  0.00  0.00    +0.064 A 
ATOM     24  N   UNL     1      -4.747  21.144  64.186  0.00  0.00    -0.238 NA
ENDBRANCH  13  15
ENDBRANCH   3  12
BRANCH   4  25
ATOM     25  N   UNL     1      -8.788  18.297  66.929  0.00  0.00    -0.198 NA
ATOM     26  C   UNL     1      -9.935  17.485  66.742  0.00  0.00    +0.321 C 
ATOM     27  O   UNL     1     -10.812  17.593  67.653  0.00  0.00    -0.263 OA
BRANCH  26  28
ATOM     28  C   UNL     1      -9.952  16.312  65.857  0.00  0.00    +0.326 C 
ATOM     29  N   UNL     1     -11.138  15.849  65.253  0.00  0.00    -0.153 NA
ATOM     30  O   UNL     1      -8.981  15.499  65.795  0.00  0.00    -0.263 OA
BRANCH  29  31
ATOM     31  C   UNL     1     -11.591  14.489  65.339  0.00  0.00    +0.155 A 
ATOM     32  N   UNL     1     -11.674  14.065  66.626  0.00  0.00    -0.226 NA
ATOM     33  C   UNL     1     -11.700  12.785  66.989  0.00  0.00    +0.112 A 
ATOM     34  C   UNL     1     -11.313  11.813  66.115  0.00  0.00    +0.077 A 
ATOM     35 CL   UNL     1     -10.547  10.327  66.667  0.00  0.00    -0.081 Cl
ATOM     36  C   UNL     1     -11.143  12.192  64.788  0.00  0.00    +0.016 A 
ATOM     37  C   UNL     1     -11.240  13.530  64.416  0.00  0.00    +0.037 A 
ENDBRANCH  29  31
ENDBRANCH  26  28
ENDBRANCH   4  25
TORSDOF 6
ENDMDL
MODEL 8
REMARK VINA RESULT:      -7.2      3.835      7.300
REMARK  Name = 
REMARK  6 active torsions:
REMARK  status: ('A' for Active; 'I' for Inactive)
REMARK    1  A    between atoms: C_4  and  C_6
REMARK    2  A    between atoms: C_9  and  N_10
REMARK    3  A    between atoms: C_11  and  C_13
REMARK    4  A    between atoms: N_15  and  C_16
REMARK    5  A    between atoms: C_23  and  N_24
REMARK    6  A    between atoms: C_25  and  C_27
REMARK                            x       y       z     vdW  Elec       q    Type
REMARK                         _______ _______ _______ _____ _____    ______ ____
ROOT
ATOM      1  C   UNL     1      -7.791  17.754  68.421  0.00  0.00    +0.079 C 
ATOM      2  C   UNL     1      -7.730  17.680  66.799  0.00  0.00    +0.033 C 
ATOM      3  C   UNL     1      -7.803  16.097  66.424  0.00  0.00    +0.116 C 
ATOM      4  C   UNL     1      -9.523  16.103  66.503  0.00  0.00    +0.116 C 
ATOM      5  C   UNL     1      -9.672  16.222  68.120  0.00  0.00    +0.024 C 
ATOM      6  C   UNL     1      -9.426  17.638  68.458  0.00  0.00    +0.011 C 
ENDROOT
BRANCH   1   9
ATOM      7  C   UNL     1      -6.536  20.075  69.391  0.00  0.00    +0.115 C 
ATOM      8  N   UNL     1      -6.699  20.035  68.828  0.00  0.00    -0.276 N 
ATOM      9  C   UNL     1      -7.879  19.362  68.395  0.00  0.00    +0.225 C 
ATOM     10  O   UNL     1      -8.990  19.694  68.878  0.00  0.00    -0.275 OA
ATOM     11  C   UNL     1      -6.105  20.950  67.845  0.00  0.00    +0.115 C 
ENDBRANCH   1   9
BRANCH   3  12
ATOM     12  N   UNL     1      -7.538  15.483  67.839  0.00  0.00    -0.200 NA
ATOM     13  C   UNL     1      -6.375  14.709  67.994  0.00  0.00    +0.289 C 
ATOM     14  O   UNL     1      -5.325  15.075  67.382  0.00  0.00    -0.266 OA
BRANCH  13  15
ATOM     15  C   UNL     1      -6.243  13.895  69.212  0.00  0.00    +0.165 A 
ATOM     16  S   UNL     1      -5.609  12.314  69.447  0.00  0.00    -0.065 S 
ATOM     17  C   UNL     1      -5.219  12.441  71.119  0.00  0.00    +0.039 A 
ATOM     18  C   UNL     1      -4.182  11.732  71.933  0.00  0.00    +0.107 C 
ATOM     19  N   UNL     1      -3.419  12.590  72.779  0.00  0.00    -0.267 NA
ATOM     20  C   UNL     1      -3.468  13.986  72.447  0.00  0.00    +0.079 C 
ATOM     21  C   UNL     1      -4.938  14.385  72.560  0.00  0.00    +0.063 C 
ATOM     22  C   UNL     1      -3.977  12.469  74.126  0.00  0.00    +0.090 C 
ATOM     23  C   UNL     1      -5.561  13.771  71.340  0.00  0.00    +0.064 A 
ATOM     24  N   UNL     1      -6.479  14.210  70.488  0.00  0.00    -0.238 NA
ENDBRANCH  13  15
ENDBRANCH   3  12
BRANCH   4  25
ATOM     25  N   UNL     1      -9.575  14.539  66.546  0.00  0.00    -0.198 NA
ATOM     26  C   UNL     1     -10.653  13.942  65.844  0.00  0.00    +0.321 C 
ATOM     27  O   UNL     1     -10.943  14.507  64.745  0.00  0.00    -0.263 OA
BRANCH  26  28
ATOM     28  C   UNL     1     -11.635  13.058  66.484  0.00  0.00    +0.326 C 
ATOM     29  N   UNL     1     -11.629  12.817  67.873  0.00  0.00    -0.153 NA
ATOM     30  O   UNL     1     -12.361  12.261  65.818  0.00  0.00    -0.263 OA
BRANCH  29  31
ATOM     31  C   UNL     1     -11.622  11.500  68.448  0.00  0.00    +0.155 A 
ATOM     32  N   UNL     1     -12.096  11.504  69.720  0.00  0.00    -0.226 NA
ATOM     33  C   UNL     1     -11.867  10.535  70.603  0.00  0.00    +0.112 A 
ATOM     34  C   UNL     1     -10.866   9.633  70.392  0.00  0.00    +0.077 A 
ATOM     35 CL   UNL     1      -9.975   8.913  71.729  0.00  0.00    -0.081 Cl
ATOM     36  C   UNL     1     -10.288   9.620  69.128  0.00  0.00    +0.016 A 
ATOM     37  C   UNL     1     -10.637  10.578  68.179  0.00  0.00    +0.037 A 
ENDBRANCH  29  31
ENDBRANCH  26  28
ENDBRANCH   4  25
TORSDOF 6
ENDMDL
MODEL 9
REMARK VINA RESULT:      -7.2      4.106      7.413
REMARK  Name = 
REMARK  6 active torsions:
REMARK  status: ('A' for Active; 'I' for Inactive)
REMARK    1  A    between atoms: C_4  and  C_6
REMARK    2  A    between atoms: C_9  and  N_10
REMARK    3  A    between atoms: C_11  and  C_13
REMARK    4  A    between atoms: N_15  and  C_16
REMARK    5  A    between atoms: C_23  and  N_24
REMARK    6  A    between atoms: C_25  and  C_27
REMARK                            x       y       z     vdW  Elec       q    Type
REMARK                         _______ _______ _______ _____ _____    ______ ____
ROOT
ATOM      1  C   UNL     1      -5.849  18.323  68.585  0.00  0.00    +0.079 C 
ATOM      2  C   UNL     1      -5.982  18.281  66.966  0.00  0.00    +0.033 C 
ATOM      3  C   UNL     1      -6.726  16.874  66.619  0.00  0.00    +0.116 C 
ATOM      4  C   UNL     1      -8.280  17.571  66.874  0.00  0.00    +0.116 C 
ATOM      5  C   UNL     1      -8.208  17.691  68.497  0.00  0.00    +0.024 C 
ATOM      6  C   UNL     1      -7.378  18.876  68.791  0.00  0.00    +0.011 C 
ENDROOT
BRANCH   1   9
ATOM      7  C   UNL     1      -3.729  19.933  69.492  0.00  0.00    +0.115 C 
ATOM      8  N   UNL     1      -3.914  19.966  68.935  0.00  0.00    -0.276 N 
ATOM      9  C   UNL     1      -5.280  19.830  68.549  0.00  0.00    +0.225 C 
ATOM     10  O   UNL     1      -6.144  20.579  69.069  0.00  0.00    -0.275 OA
ATOM     11  C   UNL     1      -3.036  20.570  67.924  0.00  0.00    +0.115 C 
ENDBRANCH   1   9
BRANCH   3  12
ATOM     12  N   UNL     1      -6.594  16.163  68.007  0.00  0.00    -0.200 NA
ATOM     13  C   UNL     1      -5.860  14.965  68.045  0.00  0.00    +0.289 C 
ATOM     14  O   UNL     1      -4.827  14.871  67.314  0.00  0.00    -0.266 OA
BRANCH  13  15
ATOM     15  C   UNL     1      -5.954  14.134  69.256  0.00  0.00    +0.165 A 
ATOM     16  S   UNL     1      -5.553  12.483  69.523  0.00  0.00    -0.065 S 
ATOM     17  C   UNL     1      -5.317  12.550  71.227  0.00  0.00    +0.039 A 
ATOM     18  C   UNL     1      -4.465  11.709  72.125  0.00  0.00    +0.107 C 
ATOM     19  N   UNL     1      -3.686  12.458  73.057  0.00  0.00    -0.267 NA
ATOM     20  C   UNL     1      -3.524  13.850  72.747  0.00  0.00    +0.079 C 
ATOM     21  C   UNL     1      -4.934  14.435  72.724  0.00  0.00    +0.063 C 
ATOM     22  C   UNL     1      -4.385  12.402  74.340  0.00  0.00    +0.090 C 
ATOM     23  C   UNL     1      -5.507  13.911  71.437  0.00  0.00    +0.064 A 
ATOM     24  N   UNL     1      -6.273  14.470  70.508  0.00  0.00    -0.238 NA
ENDBRANCH  13  15
ENDBRANCH   3  12
BRANCH   4  25
ATOM     25  N   UNL     1      -8.956  16.161  66.940  0.00  0.00    -0.198 NA
ATOM     26  C   UNL     1     -10.286  16.096  66.453  0.00  0.00    +0.321 C 
ATOM     27  O   UNL     1     -10.504  16.801  65.420  0.00  0.00    -0.263 OA
BRANCH  26  28
ATOM     28  C   UNL     1     -11.417  15.640  67.270  0.00  0.00    +0.326 C 
ATOM     29  N   UNL     1     -11.756  16.261  68.490  0.00  0.00    -0.153 NA
ATOM     30  O   UNL     1     -11.981  14.521  67.079  0.00  0.00    -0.263 OA
BRANCH  29  31
ATOM     31  C   UNL     1     -11.925  15.544  69.723  0.00  0.00    +0.155 A 
ATOM     32  N   UNL     1     -13.149  15.761  70.268  0.00  0.00    -0.226 NA
ATOM     33  C   UNL     1     -13.445  15.541  71.547  0.00  0.00    +0.112 A 
ATOM     34  C   UNL     1     -12.451  15.398  72.469  0.00  0.00    +0.077 A 
ATOM     35 CL   UNL     1     -12.659  15.916  74.139  0.00  0.00    -0.081 Cl
ATOM     36  C   UNL     1     -11.159  15.238  71.980  0.00  0.00    +0.016 A 
ATOM     37  C   UNL     1     -10.897  15.355  70.618  0.00  0.00    +0.037 A 
ENDBRANCH  29  31
ENDBRANCH  26  28
ENDBRANCH   4  25
TORSDOF 6
ENDMDL
