MODEL 1
REMARK VINA RESULT:      -6.7      0.000      0.000
REMARK  Name = 
REMARK  2 active torsions:
REMARK  status: ('A' for Active; 'I' for Inactive)
REMARK    1  A    between atoms: C_5  and  C_6
REMARK    2  A    between atoms: C_15  and  N_16
REMARK                            x       y       z     vdW  Elec       q    Type
REMARK                         _______ _______ _______ _____ _____    ______ ____
ROOT
ATOM      1  O   UNL     1     -12.278  14.206  64.328  0.00  0.00    -0.271 OA
ATOM      2  C   UNL     1     -11.598  14.317  65.392  0.00  0.00    +0.270 C 
ATOM      3  N   UNL     1     -12.132  13.732  66.587  0.00  0.00    -0.177 NA
ATOM      4  C   UNL     1     -11.711  14.144  67.894  0.00  0.00    +0.075 A 
ATOM      5  C   UNL     1     -10.831  15.151  68.282  0.00  0.00    +0.039 A 
ATOM      6  C   UNL     1     -10.968  15.715  69.546  0.00  0.00    +0.078 A 
ATOM      7  C   UNL     1     -11.687  14.972  70.474  0.00  0.00    +0.290 A 
ATOM      8  C   UNL     1     -11.974  13.640  70.204  0.00  0.00    +0.077 A 
ATOM      9  C   UNL     1     -10.177  16.084  67.356  0.00  0.00    +0.079 C 
ATOM     10  N   UNL     1      -9.826  15.811  66.157  0.00  0.00    -0.260 NA
ATOM     11  C   UNL     1     -12.238  13.320  68.881  0.00  0.00    +0.023 A 
ATOM     12  C   UNL     1     -10.203  14.815  65.193  0.00  0.00    +0.212 C 
ENDROOT
BRANCH   9  13
ATOM     13  C   UNL     1     -10.036  17.479  67.796  0.00  0.00    +0.028 A 
ATOM     14  C   UNL     1      -8.808  17.880  68.252  0.00  0.00    +0.059 A 
ATOM     15 CL   UNL     1      -7.639  16.713  68.827  0.00  0.00    -0.082 Cl
ATOM     16  C   UNL     1      -8.428  19.210  68.174  0.00  0.00    +0.011 A 
ATOM     17  C   UNL     1      -9.348  20.158  67.756  0.00  0.00    +0.001 A 
ATOM     18  C   UNL     1     -10.365  19.707  66.926  0.00  0.00    +0.000 A 
ATOM     19  C   UNL     1     -10.829  18.420  67.152  0.00  0.00    +0.002 A 
ENDBRANCH   9  13
BRANCH   7  20
ATOM     20  N   UNL     1     -11.705  15.447  71.825  0.00  0.00    +0.081 N 
ATOM     21  O   UNL     1     -12.405  14.651  72.714  0.00  0.00    -0.576 OA
ATOM     22  O   UNL     1     -11.671  16.690  72.003  0.00  0.00    +0.041 OA
ENDBRANCH   7  20
TORSDOF 2
ENDMDL
MODEL 2
REMARK VINA RESULT:      -6.5      2.752      4.894
REMARK  Name = 
REMARK  2 active torsions:
REMARK  status: ('A' for Active; 'I' for Inactive)
REMARK    1  A    between atoms: C_5  and  C_6
REMARK    2  A    between atoms: C_15  and  N_16
REMARK                            x       y       z     vdW  Elec       q    Type
REMARK                         _______ _______ _______ _____ _____    ______ ____
ROOT
ATOM      1  O   UNL     1      -8.432  17.856  67.910  0.00  0.00    -0.271 OA
ATOM      2  C   UNL     1      -9.539  17.243  67.987  0.00  0.00    +0.270 C 
ATOM      3  N   UNL     1     -10.146  17.124  69.280  0.00  0.00    -0.177 NA
ATOM      4  C   UNL     1     -11.125  16.119  69.576  0.00  0.00    +0.075 A 
ATOM      5  C   UNL     1     -11.619  15.083  68.789  0.00  0.00    +0.039 A 
ATOM      6  C   UNL     1     -12.136  13.951  69.412  0.00  0.00    +0.078 A 
ATOM      7  C   UNL     1     -12.502  14.098  70.744  0.00  0.00    +0.290 A 
ATOM      8  C   UNL     1     -12.603  15.374  71.285  0.00  0.00    +0.077 A 
ATOM      9  C   UNL     1     -11.143  14.768  67.436  0.00  0.00    +0.079 C 
ATOM     10  N   UNL     1     -10.712  15.622  66.587  0.00  0.00    -0.260 NA
ATOM     11  C   UNL     1     -11.687  16.312  70.832  0.00  0.00    +0.023 A 
ATOM     12  C   UNL     1     -10.188  16.957  66.671  0.00  0.00    +0.212 C 
ENDROOT
BRANCH   9  13
ATOM     13  C   UNL     1     -11.030  13.348  67.077  0.00  0.00    +0.028 A 
ATOM     14  C   UNL     1     -11.725  12.913  65.979  0.00  0.00    +0.059 A 
ATOM     15 CL   UNL     1     -13.101  13.808  65.376  0.00  0.00    -0.082 Cl
ATOM     16  C   UNL     1     -11.291  11.809  65.263  0.00  0.00    +0.011 A 
ATOM     17  C   UNL     1     -10.225  11.064  65.741  0.00  0.00    +0.001 A 
ATOM     18  C   UNL     1      -9.315  11.733  66.546  0.00  0.00    +0.000 A 
ATOM     19  C   UNL     1      -9.825  12.723  67.372  0.00  0.00    +0.002 A 
ENDBRANCH   9  13
BRANCH   7  20
ATOM     20  N   UNL     1     -13.187  13.004  71.363  0.00  0.00    +0.081 N 
ATOM     21  O   UNL     1     -13.905  13.332  72.500  0.00  0.00    -0.576 OA
ATOM     22  O   UNL     1     -12.665  11.865  71.270  0.00  0.00    +0.041 OA
ENDBRANCH   7  20
TORSDOF 2
ENDMDL
MODEL 3
REMARK VINA RESULT:      -6.5      3.214      4.687
REMARK  Name = 
REMARK  2 active torsions:
REMARK  status: ('A' for Active; 'I' for Inactive)
REMARK    1  A    between atoms: C_5  and  C_6
REMARK    2  A    between atoms: C_15  and  N_16
REMARK                            x       y       z     vdW  Elec       q    Type
REMARK                         _______ _______ _______ _____ _____    ______ ____
ROOT
ATOM      1  O   UNL     1      -6.324  13.180  69.004  0.00  0.00    -0.271 OA
ATOM      2  C   UNL     1      -7.358  13.873  68.759  0.00  0.00    +0.270 C 
ATOM      3  N   UNL     1      -8.431  13.241  68.051  0.00  0.00    -0.177 NA
ATOM      4  C   UNL     1      -9.429  13.991  67.346  0.00  0.00    +0.075 A 
ATOM      5  C   UNL     1      -9.546  15.362  67.138  0.00  0.00    +0.039 A 
ATOM      6  C   UNL     1     -10.250  15.818  66.028  0.00  0.00    +0.078 A 
ATOM      7  C   UNL     1     -11.123  14.911  65.441  0.00  0.00    +0.290 A 
ATOM      8  C   UNL     1     -11.456  13.747  66.124  0.00  0.00    +0.077 A 
ATOM      9  C   UNL     1      -8.561  16.357  67.581  0.00  0.00    +0.079 C 
ATOM     10  N   UNL     1      -7.839  16.263  68.634  0.00  0.00    -0.260 NA
ATOM     11  C   UNL     1     -10.452  13.170  66.888  0.00  0.00    +0.023 A 
ATOM     12  C   UNL     1      -7.417  15.182  69.480  0.00  0.00    +0.212 C 
ENDROOT
BRANCH   9  13
ATOM     13  C   UNL     1      -8.287  17.481  66.677  0.00  0.00    +0.028 A 
ATOM     14  C   UNL     1      -8.785  18.710  67.023  0.00  0.00    +0.059 A 
ATOM     15 CL   UNL     1     -10.128  18.854  68.134  0.00  0.00    -0.082 Cl
ATOM     16  C   UNL     1      -8.169  19.870  66.578  0.00  0.00    +0.011 A 
ATOM     17  C   UNL     1      -7.126  19.782  65.671  0.00  0.00    +0.001 A 
ATOM     18  C   UNL     1      -6.394  18.604  65.684  0.00  0.00    +0.000 A 
ATOM     19  C   UNL     1      -7.090  17.440  65.973  0.00  0.00    +0.002 A 
ENDBRANCH   9  13
BRANCH   7  20
ATOM     20  N   UNL     1     -11.980  15.399  64.403  0.00  0.00    +0.081 N 
ATOM     21  O   UNL     1     -12.593  14.418  63.643  0.00  0.00    -0.576 OA
ATOM     22  O   UNL     1     -11.678  16.496  63.869  0.00  0.00    +0.041 OA
ENDBRANCH   7  20
TORSDOF 2
ENDMDL
MODEL 4
REMARK VINA RESULT:      -6.4      2.759      3.987
REMARK  Name = 
REMARK  2 active torsions:
REMARK  status: ('A' for Active; 'I' for Inactive)
REMARK    1  A    between atoms: C_5  and  C_6
REMARK    2  A    between atoms: C_15  and  N_16
REMARK                            x       y       z     vdW  Elec       q    Type
REMARK                         _______ _______ _______ _____ _____    ______ ____
ROOT
ATOM      1  O   UNL     1     -10.927   8.917  68.405  0.00  0.00    -0.271 OA
ATOM      2  C   UNL     1     -10.849  10.050  68.970  0.00  0.00    +0.270 C 
ATOM      3  N   UNL     1     -11.791  10.340  70.010  0.00  0.00    -0.177 NA
ATOM      4  C   UNL     1     -12.096  11.682  70.414  0.00  0.00    +0.075 A 
ATOM      5  C   UNL     1     -11.656  12.899  69.901  0.00  0.00    +0.039 A 
ATOM      6  C   UNL     1     -12.448  14.029  70.073  0.00  0.00    +0.078 A 
ATOM      7  C   UNL     1     -13.404  13.960  71.079  0.00  0.00    +0.290 A 
ATOM      8  C   UNL     1     -13.337  12.933  72.013  0.00  0.00    +0.077 A 
ATOM      9  C   UNL     1     -10.786  13.039  68.727  0.00  0.00    +0.079 C 
ATOM     10  N   UNL     1      -9.878  12.209  68.376  0.00  0.00    -0.260 NA
ATOM     11  C   UNL     1     -12.900  11.702  71.546  0.00  0.00    +0.023 A 
ATOM     12  C   UNL     1      -9.612  10.824  68.650  0.00  0.00    +0.212 C 
ENDROOT
BRANCH   9  13
ATOM     13  C   UNL     1     -11.069  14.151  67.809  0.00  0.00    +0.028 A 
ATOM     14  C   UNL     1     -10.214  15.222  67.826  0.00  0.00    +0.059 A 
ATOM     15 CL   UNL     1      -9.198  15.538  69.214  0.00  0.00    -0.082 Cl
ATOM     16  C   UNL     1     -10.063  16.020  66.703  0.00  0.00    +0.011 A 
ATOM     17  C   UNL     1     -10.881  15.811  65.605  0.00  0.00    +0.001 A 
ATOM     18  C   UNL     1     -11.387  14.529  65.446  0.00  0.00    +0.000 A 
ATOM     19  C   UNL     1     -11.681  13.827  66.605  0.00  0.00    +0.002 A 
ENDBRANCH   9  13
BRANCH   7  20
ATOM     20  N   UNL     1     -14.122  15.160  71.388  0.00  0.00    +0.081 N 
ATOM     21  O   UNL     1     -13.512  15.980  72.322  0.00  0.00    -0.576 OA
ATOM     22  O   UNL     1     -15.376  15.118  71.327  0.00  0.00    +0.041 OA
ENDBRANCH   7  20
TORSDOF 2
ENDMDL
MODEL 5
REMARK VINA RESULT:      -6.3      2.571      5.665
REMARK  Name = 
REMARK  2 active torsions:
REMARK  status: ('A' for Active; 'I' for Inactive)
REMARK    1  A    between atoms: C_5  and  C_6
REMARK    2  A    between atoms: C_15  and  N_16
REMARK                            x       y       z     vdW  Elec       q    Type
REMARK                         _______ _______ _______ _____ _____    ______ ____
ROOT
ATOM      1  O   UNL     1     -13.670  15.076  70.928  0.00  0.00    -0.271 OA
ATOM      2  C   UNL     1     -12.552  15.048  70.329  0.00  0.00    +0.270 C 
ATOM      3  N   UNL     1     -11.848  16.286  70.176  0.00  0.00    -0.177 NA
ATOM      4  C   UNL     1     -10.835  16.472  69.179  0.00  0.00    +0.075 A 
ATOM      5  C   UNL     1     -10.389  15.614  68.177  0.00  0.00    +0.039 A 
ATOM      6  C   UNL     1      -9.810  16.155  67.034  0.00  0.00    +0.078 A 
ATOM      7  C   UNL     1      -9.346  17.461  67.141  0.00  0.00    +0.290 A 
ATOM      8  C   UNL     1      -9.222  18.037  68.400  0.00  0.00    +0.077 A 
ATOM      9  C   UNL     1     -10.961  14.290  67.901  0.00  0.00    +0.079 C 
ATOM     10  N   UNL     1     -11.468  13.507  68.777  0.00  0.00    -0.260 NA
ATOM     11  C   UNL     1     -10.181  17.687  69.338  0.00  0.00    +0.023 A 
ATOM     12  C   UNL     1     -12.002  13.677  70.100  0.00  0.00    +0.212 C 
ENDROOT
BRANCH   9  13
ATOM     13  C   UNL     1     -11.083  13.891  66.492  0.00  0.00    +0.028 A 
ATOM     14  C   UNL     1     -10.240  12.912  66.035  0.00  0.00    +0.059 A 
ATOM     15 CL   UNL     1      -8.743  12.557  66.866  0.00  0.00    -0.082 Cl
ATOM     16  C   UNL     1     -10.604  12.115  64.962  0.00  0.00    +0.011 A 
ATOM     17  C   UNL     1     -11.768  12.400  64.266  0.00  0.00    +0.001 A 
ATOM     18  C   UNL     1     -12.764  13.059  64.972  0.00  0.00    +0.000 A 
ATOM     19  C   UNL     1     -12.349  13.975  65.926  0.00  0.00    +0.002 A 
ENDBRANCH   9  13
BRANCH   7  20
ATOM     20  N   UNL     1      -8.601  17.987  66.037  0.00  0.00    +0.081 N 
ATOM     21  O   UNL     1      -7.392  17.358  65.796  0.00  0.00    -0.576 OA
ATOM     22  O   UNL     1      -8.721  19.213  65.789  0.00  0.00    +0.041 OA
ENDBRANCH   7  20
TORSDOF 2
ENDMDL
MODEL 6
REMARK VINA RESULT:      -6.2      3.051      5.347
REMARK  Name = 
REMARK  2 active torsions:
REMARK  status: ('A' for Active; 'I' for Inactive)
REMARK    1  A    between atoms: C_5  and  C_6
REMARK    2  A    between atoms: C_15  and  N_16
REMARK                            x       y       z     vdW  Elec       q    Type
REMARK                         _______ _______ _______ _____ _____    ______ ____
ROOT
ATOM      1  O   UNL     1     -13.157  15.305  73.548  0.00  0.00    -0.271 OA
ATOM      2  C   UNL     1     -13.166  14.698  72.434  0.00  0.00    +0.270 C 
ATOM      3  N   UNL     1     -13.153  13.265  72.458  0.00  0.00    -0.177 NA
ATOM      4  C   UNL     1     -12.730  12.485  71.331  0.00  0.00    +0.075 A 
ATOM      5  C   UNL     1     -12.216  12.884  70.101  0.00  0.00    +0.039 A 
ATOM      6  C   UNL     1     -11.403  12.006  69.393  0.00  0.00    +0.078 A 
ATOM      7  C   UNL     1     -11.492  10.666  69.750  0.00  0.00    +0.290 A 
ATOM      8  C   UNL     1     -12.544  10.244  70.554  0.00  0.00    +0.077 A 
ATOM      9  C   UNL     1     -11.932  14.277  69.732  0.00  0.00    +0.079 C 
ATOM     10  N   UNL     1     -12.587  15.298  70.140  0.00  0.00    -0.260 NA
ATOM     11  C   UNL     1     -12.968  11.131  71.532  0.00  0.00    +0.023 A 
ATOM     12  C   UNL     1     -13.456  15.565  71.252  0.00  0.00    +0.212 C 
ENDROOT
BRANCH   9  13
ATOM     13  C   UNL     1     -10.721  14.529  68.939  0.00  0.00    +0.028 A 
ATOM     14  C   UNL     1     -10.875  14.745  67.595  0.00  0.00    +0.059 A 
ATOM     15 CL   UNL     1     -12.309  14.196  66.757  0.00  0.00    -0.082 Cl
ATOM     16  C   UNL     1      -9.944  15.490  66.890  0.00  0.00    +0.011 A 
ATOM     17  C   UNL     1      -8.784  15.906  67.523  0.00  0.00    +0.001 A 
ATOM     18  C   UNL     1      -8.854  16.059  68.901  0.00  0.00    +0.000 A 
ATOM     19  C   UNL     1      -9.675  15.177  69.585  0.00  0.00    +0.002 A 
ENDBRANCH   9  13
BRANCH   7  20
ATOM     20  N   UNL     1     -10.794   9.719  68.933  0.00  0.00    +0.081 N 
ATOM     21  O   UNL     1      -9.559   9.327  69.419  0.00  0.00    -0.576 OA
ATOM     22  O   UNL     1     -10.979   9.776  67.691  0.00  0.00    +0.041 OA
ENDBRANCH   7  20
TORSDOF 2
ENDMDL
MODEL 7
REMARK VINA RESULT:      -6.2      3.392      4.596
REMARK  Name = 
REMARK  2 active torsions:
REMARK  status: ('A' for Active; 'I' for Inactive)
REMARK    1  A    between atoms: C_5  and  C_6
REMARK    2  A    between atoms: C_15  and  N_16
REMARK                            x       y       z     vdW  Elec       q    Type
REMARK                         _______ _______ _______ _____ _____    ______ ____
ROOT
ATOM      1  O   UNL     1      -5.342  13.342  67.486  0.00  0.00    -0.271 OA
ATOM      2  C   UNL     1      -6.588  13.496  67.667  0.00  0.00    +0.270 C 
ATOM      3  N   UNL     1      -7.476  12.618  66.965  0.00  0.00    -0.177 NA
ATOM      4  C   UNL     1      -8.853  12.946  66.735  0.00  0.00    +0.075 A 
ATOM      5  C   UNL     1      -9.567  14.101  67.040  0.00  0.00    +0.039 A 
ATOM      6  C   UNL     1     -10.693  14.416  66.287  0.00  0.00    +0.078 A 
ATOM      7  C   UNL     1     -11.262  13.371  65.568  0.00  0.00    +0.290 A 
ATOM      8  C   UNL     1     -10.876  12.065  65.846  0.00  0.00    +0.077 A 
ATOM      9  C   UNL     1      -8.980  15.306  67.638  0.00  0.00    +0.079 C 
ATOM     10  N   UNL     1      -8.001  15.321  68.462  0.00  0.00    -0.260 NA
ATOM     11  C   UNL     1      -9.546  11.873  66.190  0.00  0.00    +0.023 A 
ATOM     12  C   UNL     1      -6.947  14.405  68.798  0.00  0.00    +0.212 C 
ENDROOT
BRANCH   9  13
ATOM     13  C   UNL     1      -9.468  16.604  67.152  0.00  0.00    +0.028 A 
ATOM     14  C   UNL     1     -10.312  17.311  67.966  0.00  0.00    +0.059 A 
ATOM     15 CL   UNL     1     -11.221  16.510  69.229  0.00  0.00    -0.082 Cl
ATOM     16  C   UNL     1     -10.389  18.691  67.872  0.00  0.00    +0.011 A 
ATOM     17  C   UNL     1      -9.707  19.344  66.859  0.00  0.00    +0.001 A 
ATOM     18  C   UNL     1      -8.579  18.706  66.364  0.00  0.00    +0.000 A 
ATOM     19  C   UNL     1      -8.614  17.321  66.322  0.00  0.00    +0.002 A 
ENDBRANCH   9  13
BRANCH   7  20
ATOM     20  N   UNL     1     -12.512  13.624  64.917  0.00  0.00    +0.081 N 
ATOM     21  O   UNL     1     -13.293  12.502  64.699  0.00  0.00    -0.576 OA
ATOM     22  O   UNL     1     -12.558  14.578  64.101  0.00  0.00    +0.041 OA
ENDBRANCH   7  20
TORSDOF 2
ENDMDL
MODEL 8
REMARK VINA RESULT:      -6.2      2.793      6.482
REMARK  Name = 
REMARK  2 active torsions:
REMARK  status: ('A' for Active; 'I' for Inactive)
REMARK    1  A    between atoms: C_5  and  C_6
REMARK    2  A    between atoms: C_15  and  N_16
REMARK                            x       y       z     vdW  Elec       q    Type
REMARK                         _______ _______ _______ _____ _____    ______ ____
ROOT
ATOM      1  O   UNL     1     -10.608  17.466  69.178  0.00  0.00    -0.271 OA
ATOM      2  C   UNL     1     -10.273  16.443  68.507  0.00  0.00    +0.270 C 
ATOM      3  N   UNL     1     -10.678  16.387  67.133  0.00  0.00    -0.177 NA
ATOM      4  C   UNL     1     -10.754  15.152  66.408  0.00  0.00    +0.075 A 
ATOM      5  C   UNL     1     -10.546  13.843  66.833  0.00  0.00    +0.039 A 
ATOM      6  C   UNL     1     -11.166  12.805  66.147  0.00  0.00    +0.078 A 
ATOM      7  C   UNL     1     -11.606  13.097  64.861  0.00  0.00    +0.290 A 
ATOM      8  C   UNL     1     -11.171  14.262  64.242  0.00  0.00    +0.077 A 
ATOM      9  C   UNL     1     -10.253  13.457  68.219  0.00  0.00    +0.079 C 
ATOM     10  N   UNL     1      -9.598  14.164  69.061  0.00  0.00    -0.260 NA
ATOM     11  C   UNL     1     -11.001  15.370  65.058  0.00  0.00    +0.023 A 
ATOM     12  C   UNL     1      -9.271  15.558  69.175  0.00  0.00    +0.212 C 
ENDROOT
BRANCH   9  13
ATOM     13  C   UNL     1     -10.874  12.223  68.719  0.00  0.00    +0.028 A 
ATOM     14  C   UNL     1     -10.070  11.124  68.872  0.00  0.00    +0.059 A 
ATOM     15 CL   UNL     1      -8.556  10.993  68.007  0.00  0.00    -0.082 Cl
ATOM     16  C   UNL     1     -10.392  10.140  69.793  0.00  0.00    +0.011 A 
ATOM     17  C   UNL     1     -11.602  10.204  70.464  0.00  0.00    +0.001 A 
ATOM     18  C   UNL     1     -12.154  11.467  70.621  0.00  0.00    +0.000 A 
ATOM     19  C   UNL     1     -11.945  12.371  69.592  0.00  0.00    +0.002 A 
ENDBRANCH   9  13
BRANCH   7  20
ATOM     20  N   UNL     1     -12.098  12.008  64.071  0.00  0.00    +0.081 N 
ATOM     21  O   UNL     1     -11.120  11.235  63.471  0.00  0.00    -0.576 OA
ATOM     22  O   UNL     1     -13.204  12.163  63.496  0.00  0.00    +0.041 OA
ENDBRANCH   7  20
TORSDOF 2
ENDMDL
MODEL 9
REMARK VINA RESULT:      -6.1      3.850      6.333
REMARK  Name = 
REMARK  2 active torsions:
REMARK  status: ('A' for Active; 'I' for Inactive)
REMARK    1  A    between atoms: C_5  and  C_6
REMARK    2  A    between atoms: C_15  and  N_16
REMARK                            x       y       z     vdW  Elec       q    Type
REMARK                         _______ _______ _______ _____ _____    ______ ____
ROOT
ATOM      1  O   UNL     1     -12.599  14.561  63.504  0.00  0.00    -0.271 OA
ATOM      2  C   UNL     1     -12.042  14.419  64.634  0.00  0.00    +0.270 C 
ATOM      3  N   UNL     1     -10.901  15.236  64.921  0.00  0.00    -0.177 NA
ATOM      4  C   UNL     1      -9.944  14.887  65.931  0.00  0.00    +0.075 A 
ATOM      5  C   UNL     1      -9.861  13.758  66.740  0.00  0.00    +0.039 A 
ATOM      6  C   UNL     1      -8.621  13.381  67.246  0.00  0.00    +0.078 A 
ATOM      7  C   UNL     1      -7.638  14.363  67.254  0.00  0.00    +0.290 A 
ATOM      8  C   UNL     1      -7.999  15.688  67.041  0.00  0.00    +0.077 A 
ATOM      9  C   UNL     1     -10.766  12.605  66.655  0.00  0.00    +0.079 C 
ATOM     10  N   UNL     1     -12.001  12.659  66.325  0.00  0.00    -0.260 NA
ATOM     11  C   UNL     1      -9.030  15.911  66.141  0.00  0.00    +0.023 A 
ATOM     12  C   UNL     1     -12.820  13.602  65.615  0.00  0.00    +0.212 C 
ENDROOT
BRANCH   9  13
ATOM     13  C   UNL     1     -10.176  11.271  66.832  0.00  0.00    +0.028 A 
ATOM     14  C   UNL     1     -10.635  10.506  67.871  0.00  0.00    +0.059 A 
ATOM     15 CL   UNL     1     -11.434  11.242  69.242  0.00  0.00    -0.082 Cl
ATOM     16  C   UNL     1     -10.566   9.124  67.812  0.00  0.00    +0.011 A 
ATOM     17  C   UNL     1      -9.907   8.520  66.754  0.00  0.00    +0.001 A 
ATOM     18  C   UNL     1      -9.852   9.239  65.569  0.00  0.00    +0.000 A 
ATOM     19  C   UNL     1      -9.754  10.617  65.681  0.00  0.00    +0.002 A 
ENDBRANCH   9  13
BRANCH   7  20
ATOM     20  N   UNL     1      -6.406  14.056  67.916  0.00  0.00    +0.081 N 
ATOM     21  O   UNL     1      -5.594  13.156  67.249  0.00  0.00    -0.576 OA
ATOM     22  O   UNL     1      -6.401  14.080  69.172  0.00  0.00    +0.041 OA
ENDBRANCH   7  20
TORSDOF 2
ENDMDL
