MODEL 1
REMARK VINA RESULT:      -4.6      0.000      0.000
REMARK  Name = 
REMARK  3 active torsions:
REMARK  status: ('A' for Active; 'I' for Inactive)
REMARK    1  A    between atoms: C_2  and  O_4
REMARK    2  A    between atoms: O_4  and  C_5
REMARK    3  A    between atoms: C_5  and  C_7
REMARK                            x       y       z     vdW  Elec       q    Type
REMARK                         _______ _______ _______ _____ _____    ______ ____
ROOT
ATOM      1  C   UNL     1     -13.325  15.669  72.410  0.00  0.00    +0.378 C 
ATOM      2  F   UNL     1     -14.616  16.290  72.925  0.00  0.00    -0.194 F 
ENDROOT
BRANCH   1   3
ATOM      3  C   UNL     1     -14.128  14.393  71.721  0.00  0.00    +0.456 C 
ATOM      4  F   UNL     1     -14.177  13.349  72.526  0.00  0.00    -0.165 F 
ATOM      5  F   UNL     1     -15.324  14.872  71.271  0.00  0.00    -0.165 F 
ATOM      6  F   UNL     1     -13.367  14.183  70.573  0.00  0.00    -0.165 F 
ENDBRANCH   1   3
BRANCH   1   7
ATOM      7  O   UNL     1     -13.114  14.961  73.756  0.00  0.00    -0.264 OA
BRANCH   7   9
ATOM      8  F   UNL     1     -12.619  15.732  75.744  0.00  0.00    -0.166 F 
ATOM      9  C   UNL     1     -12.287  15.756  74.493  0.00  0.00    +0.452 C 
ATOM     10  F   UNL     1     -12.063  17.005  73.996  0.00  0.00    -0.166 F 
ENDBRANCH   7   9
ENDBRANCH   1   7
TORSDOF 3
ENDMDL
MODEL 2
REMARK VINA RESULT:      -4.4      1.956      3.928
REMARK  Name = 
REMARK  3 active torsions:
REMARK  status: ('A' for Active; 'I' for Inactive)
REMARK    1  A    between atoms: C_2  and  O_4
REMARK    2  A    between atoms: O_4  and  C_5
REMARK    3  A    between atoms: C_5  and  C_7
REMARK                            x       y       z     vdW  Elec       q    Type
REMARK                         _______ _______ _______ _____ _____    ______ ____
ROOT
ATOM      1  C   UNL     1     -11.986  16.242  72.290  0.00  0.00    +0.378 C 
ATOM      2  F   UNL     1     -11.250  14.933  72.040  0.00  0.00    -0.194 F 
ENDROOT
BRANCH   1   3
ATOM      3  C   UNL     1     -12.941  15.567  73.465  0.00  0.00    +0.456 C 
ATOM      4  F   UNL     1     -12.999  14.252  73.356  0.00  0.00    -0.165 F 
ATOM      5  F   UNL     1     -12.510  16.060  74.661  0.00  0.00    -0.165 F 
ATOM      6  F   UNL     1     -14.157  16.204  73.226  0.00  0.00    -0.165 F 
ENDBRANCH   1   3
BRANCH   1   7
ATOM      7  O   UNL     1     -12.963  15.926  71.149  0.00  0.00    -0.264 OA
BRANCH   7   9
ATOM      8  F   UNL     1     -11.961  16.192  69.220  0.00  0.00    -0.166 F 
ATOM      9  C   UNL     1     -12.233  15.341  70.158  0.00  0.00    +0.452 C 
ATOM     10  F   UNL     1     -12.694  14.140  69.707  0.00  0.00    -0.166 F 
ENDBRANCH   7   9
ENDBRANCH   1   7
TORSDOF 3
ENDMDL
MODEL 3
REMARK VINA RESULT:      -4.3      1.666      3.704
REMARK  Name = 
REMARK  3 active torsions:
REMARK  status: ('A' for Active; 'I' for Inactive)
REMARK    1  A    between atoms: C_2  and  O_4
REMARK    2  A    between atoms: O_4  and  C_5
REMARK    3  A    between atoms: C_5  and  C_7
REMARK                            x       y       z     vdW  Elec       q    Type
REMARK                         _______ _______ _______ _____ _____    ______ ____
ROOT
ATOM      1  C   UNL     1     -12.380  14.750  72.438  0.00  0.00    +0.378 C 
ATOM      2  F   UNL     1     -13.589  13.926  72.862  0.00  0.00    -0.194 F 
ENDROOT
BRANCH   1   3
ATOM      3  C   UNL     1     -12.647  15.882  73.620  0.00  0.00    +0.456 C 
ATOM      4  F   UNL     1     -12.514  15.370  74.830  0.00  0.00    -0.165 F 
ATOM      5  F   UNL     1     -11.863  16.959  73.325  0.00  0.00    -0.165 F 
ATOM      6  F   UNL     1     -13.946  16.286  73.321  0.00  0.00    -0.165 F 
ENDBRANCH   1   3
BRANCH   1   7
ATOM      7  O   UNL     1     -13.229  15.477  71.386  0.00  0.00    -0.264 OA
BRANCH   7   9
ATOM      8  F   UNL     1     -12.303  14.528  69.644  0.00  0.00    -0.166 F 
ATOM      9  C   UNL     1     -12.437  15.643  70.289  0.00  0.00    +0.452 C 
ATOM     10  F   UNL     1     -11.270  16.317  70.493  0.00  0.00    -0.166 F 
ENDBRANCH   7   9
ENDBRANCH   1   7
TORSDOF 3
ENDMDL
MODEL 4
REMARK VINA RESULT:      -4.2      1.890      3.431
REMARK  Name = 
REMARK  3 active torsions:
REMARK  status: ('A' for Active; 'I' for Inactive)
REMARK    1  A    between atoms: C_2  and  O_4
REMARK    2  A    between atoms: O_4  and  C_5
REMARK    3  A    between atoms: C_5  and  C_7
REMARK                            x       y       z     vdW  Elec       q    Type
REMARK                         _______ _______ _______ _____ _____    ______ ____
ROOT
ATOM      1  C   UNL     1     -12.815  14.196  72.287  0.00  0.00    +0.378 C 
ATOM      2  F   UNL     1     -12.948  14.515  73.770  0.00  0.00    -0.194 F 
ENDROOT
BRANCH   1   3
ATOM      3  C   UNL     1     -14.105  15.158  71.889  0.00  0.00    +0.456 C 
ATOM      4  F   UNL     1     -15.200  14.451  71.684  0.00  0.00    -0.165 F 
ATOM      5  F   UNL     1     -14.180  16.136  72.837  0.00  0.00    -0.165 F 
ATOM      6  F   UNL     1     -13.625  15.795  70.747  0.00  0.00    -0.165 F 
ENDBRANCH   1   3
BRANCH   1   7
ATOM      7  O   UNL     1     -13.664  12.930  72.469  0.00  0.00    -0.264 OA
BRANCH   7   9
ATOM      8  F   UNL     1     -13.020  10.855  72.197  0.00  0.00    -0.166 F 
ATOM      9  C   UNL     1     -13.170  11.998  71.606  0.00  0.00    +0.452 C 
ATOM     10  F   UNL     1     -12.099  12.386  70.859  0.00  0.00    -0.166 F 
ENDBRANCH   7   9
ENDBRANCH   1   7
TORSDOF 3
ENDMDL
MODEL 5
REMARK VINA RESULT:      -4.2      1.420      2.174
REMARK  Name = 
REMARK  3 active torsions:
REMARK  status: ('A' for Active; 'I' for Inactive)
REMARK    1  A    between atoms: C_2  and  O_4
REMARK    2  A    between atoms: O_4  and  C_5
REMARK    3  A    between atoms: C_5  and  C_7
REMARK                            x       y       z     vdW  Elec       q    Type
REMARK                         _______ _______ _______ _____ _____    ______ ____
ROOT
ATOM      1  C   UNL     1     -13.558  14.575  72.566  0.00  0.00    +0.378 C 
ATOM      2  F   UNL     1     -13.366  13.065  72.591  0.00  0.00    -0.194 F 
ENDROOT
BRANCH   1   3
ATOM      3  C   UNL     1     -12.626  14.745  71.205  0.00  0.00    +0.456 C 
ATOM      4  F   UNL     1     -12.832  13.766  70.344  0.00  0.00    -0.165 F 
ATOM      5  F   UNL     1     -12.822  16.014  70.744  0.00  0.00    -0.165 F 
ATOM      6  F   UNL     1     -11.346  14.751  71.753  0.00  0.00    -0.165 F 
ENDBRANCH   1   3
BRANCH   1   7
ATOM      7  O   UNL     1     -12.382  14.753  73.536  0.00  0.00    -0.264 OA
BRANCH   7   9
ATOM      8  F   UNL     1     -12.017  16.905  73.712  0.00  0.00    -0.166 F 
ATOM      9  C   UNL     1     -12.625  15.893  74.244  0.00  0.00    +0.452 C 
ATOM     10  F   UNL     1     -12.478  15.797  75.596  0.00  0.00    -0.166 F 
ENDBRANCH   7   9
ENDBRANCH   1   7
TORSDOF 3
ENDMDL
MODEL 6
REMARK VINA RESULT:      -4.2      1.954      2.954
REMARK  Name = 
REMARK  3 active torsions:
REMARK  status: ('A' for Active; 'I' for Inactive)
REMARK    1  A    between atoms: C_2  and  O_4
REMARK    2  A    between atoms: O_4  and  C_5
REMARK    3  A    between atoms: C_5  and  C_7
REMARK                            x       y       z     vdW  Elec       q    Type
REMARK                         _______ _______ _______ _____ _____    ______ ____
ROOT
ATOM      1  C   UNL     1     -13.742  15.240  71.444  0.00  0.00    +0.378 C 
ATOM      2  F   UNL     1     -14.510  15.934  72.561  0.00  0.00    -0.194 F 
ENDROOT
BRANCH   1   3
ATOM      3  C   UNL     1     -13.398  13.928  72.398  0.00  0.00    +0.456 C 
ATOM      4  F   UNL     1     -12.748  14.273  73.493  0.00  0.00    -0.165 F 
ATOM      5  F   UNL     1     -14.565  13.244  72.572  0.00  0.00    -0.165 F 
ATOM      6  F   UNL     1     -12.647  13.146  71.522  0.00  0.00    -0.165 F 
ENDBRANCH   1   3
BRANCH   1   7
ATOM      7  O   UNL     1     -12.467  16.002  71.829  0.00  0.00    -0.264 OA
BRANCH   7   9
ATOM      8  F   UNL     1     -12.415  15.947  69.641  0.00  0.00    -0.166 F 
ATOM      9  C   UNL     1     -11.691  16.061  70.709  0.00  0.00    +0.452 C 
ATOM     10  F   UNL     1     -10.575  15.280  70.716  0.00  0.00    -0.166 F 
ENDBRANCH   7   9
ENDBRANCH   1   7
TORSDOF 3
ENDMDL
MODEL 7
REMARK VINA RESULT:      -4.2      1.991      3.745
REMARK  Name = 
REMARK  3 active torsions:
REMARK  status: ('A' for Active; 'I' for Inactive)
REMARK    1  A    between atoms: C_2  and  O_4
REMARK    2  A    between atoms: O_4  and  C_5
REMARK    3  A    between atoms: C_5  and  C_7
REMARK                            x       y       z     vdW  Elec       q    Type
REMARK                         _______ _______ _______ _____ _____    ______ ____
ROOT
ATOM      1  C   UNL     1     -13.092  15.419  70.977  0.00  0.00    +0.378 C 
ATOM      2  F   UNL     1     -12.444  16.269  72.061  0.00  0.00    -0.194 F 
ENDROOT
BRANCH   1   3
ATOM      3  C   UNL     1     -14.379  15.031  71.947  0.00  0.00    +0.456 C 
ATOM      4  F   UNL     1     -15.496  14.906  71.256  0.00  0.00    -0.165 F 
ATOM      5  F   UNL     1     -14.002  13.954  72.696  0.00  0.00    -0.165 F 
ATOM      6  F   UNL     1     -14.383  16.105  72.834  0.00  0.00    -0.165 F 
ENDBRANCH   1   3
BRANCH   1   7
ATOM      7  O   UNL     1     -12.252  14.208  71.405  0.00  0.00    -0.264 OA
BRANCH   7   9
ATOM      8  F   UNL     1     -12.540  14.041  69.241  0.00  0.00    -0.166 F 
ATOM      9  C   UNL     1     -12.044  13.458  70.286  0.00  0.00    +0.452 C 
ATOM     10  F   UNL     1     -12.355  12.135  70.390  0.00  0.00    -0.166 F 
ENDBRANCH   7   9
ENDBRANCH   1   7
TORSDOF 3
ENDMDL
MODEL 8
REMARK VINA RESULT:      -4.2      1.552      2.198
REMARK  Name = 
REMARK  3 active torsions:
REMARK  status: ('A' for Active; 'I' for Inactive)
REMARK    1  A    between atoms: C_2  and  O_4
REMARK    2  A    between atoms: O_4  and  C_5
REMARK    3  A    between atoms: C_5  and  C_7
REMARK                            x       y       z     vdW  Elec       q    Type
REMARK                         _______ _______ _______ _____ _____    ______ ____
ROOT
ATOM      1  C   UNL     1     -11.776  15.327  71.990  0.00  0.00    +0.378 C 
ATOM      2  F   UNL     1     -11.634  16.436  70.956  0.00  0.00    -0.194 F 
ENDROOT
BRANCH   1   3
ATOM      3  C   UNL     1     -12.860  14.493  71.054  0.00  0.00    +0.456 C 
ATOM      4  F   UNL     1     -12.371  14.219  69.860  0.00  0.00    -0.165 F 
ATOM      5  F   UNL     1     -13.291  13.431  71.794  0.00  0.00    -0.165 F 
ATOM      6  F   UNL     1     -13.935  15.379  71.032  0.00  0.00    -0.165 F 
ENDBRANCH   1   3
BRANCH   1   7
ATOM      7  O   UNL     1     -12.853  16.135  72.727  0.00  0.00    -0.264 OA
BRANCH   7   9
ATOM      8  F   UNL     1     -12.118  16.975  74.611  0.00  0.00    -0.166 F 
ATOM      9  C   UNL     1     -12.653  15.932  74.060  0.00  0.00    +0.452 C 
ATOM     10  F   UNL     1     -12.060  14.753  74.401  0.00  0.00    -0.166 F 
ENDBRANCH   7   9
ENDBRANCH   1   7
TORSDOF 3
ENDMDL
MODEL 9
REMARK VINA RESULT:      -4.1      7.704      9.440
REMARK  Name = 
REMARK  3 active torsions:
REMARK  status: ('A' for Active; 'I' for Inactive)
REMARK    1  A    between atoms: C_2  and  O_4
REMARK    2  A    between atoms: O_4  and  C_5
REMARK    3  A    between atoms: C_5  and  C_7
REMARK                            x       y       z     vdW  Elec       q    Type
REMARK                         _______ _______ _______ _____ _____    ______ ____
ROOT
ATOM      1  C   UNL     1     -12.144  13.541  65.461  0.00  0.00    +0.378 C 
ATOM      2  F   UNL     1     -13.419  14.342  65.692  0.00  0.00    -0.194 F 
ENDROOT
BRANCH   1   3
ATOM      3  C   UNL     1     -11.225  14.912  65.304  0.00  0.00    +0.456 C 
ATOM      4  F   UNL     1     -11.172  15.600  66.429  0.00  0.00    -0.165 F 
ATOM      5  F   UNL     1     -10.030  14.531  64.767  0.00  0.00    -0.165 F 
ATOM      6  F   UNL     1     -11.893  15.569  64.273  0.00  0.00    -0.165 F 
ENDBRANCH   1   3
BRANCH   1   7
ATOM      7  O   UNL     1     -12.463  13.442  63.963  0.00  0.00    -0.264 OA
BRANCH   7   9
ATOM      8  F   UNL     1     -10.891  12.276  62.982  0.00  0.00    -0.166 F 
ATOM      9  C   UNL     1     -12.050  12.208  63.555  0.00  0.00    +0.452 C 
ATOM     10  F   UNL     1     -12.969  11.467  62.874  0.00  0.00    -0.166 F 
ENDBRANCH   7   9
ENDBRANCH   1   7
TORSDOF 3
ENDMDL
