MODEL 1
REMARK VINA RESULT:      -7.7      0.000      0.000
REMARK  Name = 
REMARK  13 active torsions:
REMARK  status: ('A' for Active; 'I' for Inactive)
REMARK    1  A    between atoms: C_3  and  C_4
REMARK    2  A    between atoms: C_4  and  C_5
REMARK    3  A    between atoms: C_5  and  C_7
REMARK    4  A    between atoms: C_7  and  C_9
REMARK    5  A    between atoms: C_10  and  C_11
REMARK    6  A    between atoms: C_15  and  C_16
REMARK    7  A    between atoms: C_16  and  C_17
REMARK    8  A    between atoms: C_17  and  C_18
REMARK    9  A    between atoms: C_18  and  C_19
REMARK   10  A    between atoms: C_19  and  O_21
REMARK   11  A    between atoms: O_21  and  C_22
REMARK   12  A    between atoms: C_22  and  C_23
REMARK   13  A    between atoms: C_23  and  C_25
REMARK                            x       y       z     vdW  Elec       q    Type
REMARK                         _______ _______ _______ _____ _____    ______ ____
ROOT
ATOM      1  C   UNL     1     -10.753  14.772  65.338  0.00  0.00    +0.052 C 
ATOM      2  C   UNL     1     -12.401  14.356  65.289  0.00  0.00    +0.156 C 
ATOM      3  O   UNL     1     -12.411  14.117  63.784  0.00  0.00    -0.223 OA
ATOM      4  C   UNL     1     -12.188  12.773  65.488  0.00  0.00    +0.034 C 
ATOM      5  C   UNL     1     -11.516  13.012  67.125  0.00  0.00    +0.007 C 
ATOM      6  C   UNL     1     -11.991  14.048  66.835  0.00  0.00    +0.022 C 
ATOM      7  C   UNL     1     -11.241  12.714  66.205  0.00  0.00    -0.048 C 
ATOM      8  C   UNL     1     -11.393  11.443  66.533  0.00  0.00    -0.035 C 
ATOM      9  C   UNL     1     -10.172  12.839  65.255  0.00  0.00    +0.022 C 
ATOM     10  C   UNL     1     -10.064  13.777  66.497  0.00  0.00    +0.011 C 
ENDROOT
BRANCH   1  12
ATOM     11  C   UNL     1      -9.827  16.386  66.889  0.00  0.00    +0.002 C 
ATOM     12  C   UNL     1     -10.900  15.947  66.415  0.00  0.00    -0.026 C 
BRANCH  11  13
ATOM     13  C   UNL     1      -9.443  17.901  66.434  0.00  0.00    +0.175 C 
ATOM     14  O   UNL     1      -8.186  17.385  65.744  0.00  0.00    -0.218 OA
BRANCH  13  15
ATOM     15  C   UNL     1      -8.568  18.117  67.899  0.00  0.00    +0.048 C 
ATOM     16  C   UNL     1      -9.860  18.735  68.659  0.00  0.00    +0.004 C 
BRANCH  15  17
ATOM     17  C   UNL     1      -7.958  19.507  67.361  0.00  0.00    +0.079 C 
BRANCH  17  20
ATOM     18  C   UNL     1      -5.268  20.853  69.415  0.00  0.00    +0.090 C 
ATOM     19  C   UNL     1      -6.033  20.459  68.931  0.00  0.00    -0.090 C 
ATOM     20  C   UNL     1      -6.914  20.007  68.213  0.00  0.00    -0.091 C 
ENDBRANCH  17  20
ENDBRANCH  15  17
ENDBRANCH  13  15
ENDBRANCH  11  13
ENDBRANCH   1  12
BRANCH   8  21
ATOM     21  C   UNL     1     -10.301  10.532  66.446  0.00  0.00    +0.026 C 
BRANCH  21  22
ATOM     22  C   UNL     1     -10.456   9.430  67.265  0.00  0.00    +0.016 C 
BRANCH  22  23
ATOM     23  C   UNL     1      -9.982  10.096  68.564  0.00  0.00    +0.110 C 
BRANCH  23  24
ATOM     24  C   UNL     1     -10.663   9.283  69.557  0.00  0.00    +0.317 C 
ATOM     25  O   UNL     1     -10.885   8.080  69.256  0.00  0.00    -0.250 OA
BRANCH  24  26
ATOM     26  O   UNL     1     -11.607   9.822  70.433  0.00  0.00    -0.440 OA
BRANCH  26  27
ATOM     27  C   UNL     1     -12.060  11.119  70.043  0.00  0.00    +0.277 C 
BRANCH  27  28
ATOM     28  C   UNL     1     -12.704  11.682  71.275  0.00  0.00    +0.217 C 
ATOM     29  O   UNL     1     -13.223  10.852  72.078  0.00  0.00    -0.287 OA
BRANCH  28  30
ATOM     30  C   UNL     1     -12.841  13.115  71.433  0.00  0.00    +0.038 A 
ATOM     31  C   UNL     1     -13.639  13.682  72.416  0.00  0.00    +0.003 A 
ATOM     32  C   UNL     1     -13.454  14.990  72.828  0.00  0.00    +0.000 A 
ATOM     33  C   UNL     1     -12.694  15.832  72.036  0.00  0.00    +0.000 A 
ATOM     34  C   UNL     1     -12.208  15.349  70.835  0.00  0.00    +0.000 A 
ATOM     35  C   UNL     1     -12.332  14.009  70.500  0.00  0.00    +0.003 A 
ENDBRANCH  28  30
ENDBRANCH  27  28
ENDBRANCH  26  27
ENDBRANCH  24  26
ENDBRANCH  23  24
ENDBRANCH  22  23
ENDBRANCH  21  22
ENDBRANCH   8  21
TORSDOF 13
ENDMDL
MODEL 2
REMARK VINA RESULT:      -7.6      3.250      5.034
REMARK  Name = 
REMARK  13 active torsions:
REMARK  status: ('A' for Active; 'I' for Inactive)
REMARK    1  A    between atoms: C_3  and  C_4
REMARK    2  A    between atoms: C_4  and  C_5
REMARK    3  A    between atoms: C_5  and  C_7
REMARK    4  A    between atoms: C_7  and  C_9
REMARK    5  A    between atoms: C_10  and  C_11
REMARK    6  A    between atoms: C_15  and  C_16
REMARK    7  A    between atoms: C_16  and  C_17
REMARK    8  A    between atoms: C_17  and  C_18
REMARK    9  A    between atoms: C_18  and  C_19
REMARK   10  A    between atoms: C_19  and  O_21
REMARK   11  A    between atoms: O_21  and  C_22
REMARK   12  A    between atoms: C_22  and  C_23
REMARK   13  A    between atoms: C_23  and  C_25
REMARK                            x       y       z     vdW  Elec       q    Type
REMARK                         _______ _______ _______ _____ _____    ______ ____
ROOT
ATOM      1  C   UNL     1     -11.297  14.381  65.749  0.00  0.00    +0.052 C 
ATOM      2  C   UNL     1     -12.739  14.100  64.894  0.00  0.00    +0.156 C 
ATOM      3  O   UNL     1     -12.503  15.233  63.902  0.00  0.00    -0.223 OA
ATOM      4  C   UNL     1     -12.106  13.089  63.812  0.00  0.00    +0.034 C 
ATOM      5  C   UNL     1     -11.729  11.885  65.075  0.00  0.00    +0.007 C 
ATOM      6  C   UNL     1     -12.443  12.660  65.596  0.00  0.00    +0.022 C 
ATOM      7  C   UNL     1     -11.273  12.512  64.434  0.00  0.00    -0.048 C 
ATOM      8  C   UNL     1     -11.093  11.540  63.556  0.00  0.00    -0.035 C 
ATOM      9  C   UNL     1     -10.181  13.439  64.353  0.00  0.00    +0.022 C 
ATOM     10  C   UNL     1     -10.493  12.911  65.787  0.00  0.00    +0.011 C 
ENDROOT
BRANCH   1  12
ATOM     11  C   UNL     1     -11.192  14.485  68.167  0.00  0.00    +0.002 C 
ATOM     12  C   UNL     1     -11.899  14.104  67.206  0.00  0.00    -0.026 C 
BRANCH  11  13
ATOM     13  C   UNL     1     -11.791  15.745  69.005  0.00  0.00    +0.175 C 
ATOM     14  O   UNL     1     -10.444  16.451  68.925  0.00  0.00    -0.218 OA
BRANCH  13  15
ATOM     15  C   UNL     1     -11.323  14.986  70.476  0.00  0.00    +0.048 C 
ATOM     16  C   UNL     1     -12.741  14.209  70.606  0.00  0.00    +0.004 C 
BRANCH  15  17
ATOM     17  C   UNL     1     -11.729  16.301  71.314  0.00  0.00    +0.079 C 
BRANCH  17  20
ATOM     18  C   UNL     1     -12.505  15.538  74.790  0.00  0.00    +0.090 C 
ATOM     19  C   UNL     1     -12.379  15.748  73.833  0.00  0.00    -0.090 C 
ATOM     20  C   UNL     1     -12.088  15.989  72.671  0.00  0.00    -0.091 C 
ENDBRANCH  17  20
ENDBRANCH  15  17
ENDBRANCH  13  15
ENDBRANCH  11  13
ENDBRANCH   1  12
BRANCH   8  21
ATOM     21  C   UNL     1      -9.783  11.185  63.122  0.00  0.00    +0.026 C 
BRANCH  21  22
ATOM     22  C   UNL     1      -9.428   9.900  63.487  0.00  0.00    +0.016 C 
BRANCH  22  23
ATOM     23  C   UNL     1      -8.078  10.255  64.126  0.00  0.00    +0.110 C 
BRANCH  23  24
ATOM     24  C   UNL     1      -8.075   9.367  65.276  0.00  0.00    +0.317 C 
ATOM     25  O   UNL     1      -6.962   8.905  65.639  0.00  0.00    -0.250 OA
BRANCH  24  26
ATOM     26  O   UNL     1      -9.150   8.522  65.561  0.00  0.00    -0.440 OA
BRANCH  26  27
ATOM     27  C   UNL     1      -8.960   7.750  66.747  0.00  0.00    +0.277 C 
BRANCH  27  28
ATOM     28  C   UNL     1     -10.292   7.776  67.434  0.00  0.00    +0.217 C 
ATOM     29  O   UNL     1     -11.164   6.956  67.022  0.00  0.00    -0.287 OA
BRANCH  28  30
ATOM     30  C   UNL     1     -10.584   8.803  68.413  0.00  0.00    +0.038 A 
ATOM     31  C   UNL     1     -10.961  10.089  68.052  0.00  0.00    +0.003 A 
ATOM     32  C   UNL     1     -11.623  10.921  68.938  0.00  0.00    +0.000 A 
ATOM     33  C   UNL     1     -11.620  10.593  70.282  0.00  0.00    +0.000 A 
ATOM     34  C   UNL     1     -10.901   9.484  70.690  0.00  0.00    +0.000 A 
ATOM     35  C   UNL     1     -10.329   8.622  69.766  0.00  0.00    +0.003 A 
ENDBRANCH  28  30
ENDBRANCH  27  28
ENDBRANCH  26  27
ENDBRANCH  24  26
ENDBRANCH  23  24
ENDBRANCH  22  23
ENDBRANCH  21  22
ENDBRANCH   8  21
TORSDOF 13
ENDMDL
MODEL 3
REMARK VINA RESULT:      -7.4      3.539      5.719
REMARK  Name = 
REMARK  13 active torsions:
REMARK  status: ('A' for Active; 'I' for Inactive)
REMARK    1  A    between atoms: C_3  and  C_4
REMARK    2  A    between atoms: C_4  and  C_5
REMARK    3  A    between atoms: C_5  and  C_7
REMARK    4  A    between atoms: C_7  and  C_9
REMARK    5  A    between atoms: C_10  and  C_11
REMARK    6  A    between atoms: C_15  and  C_16
REMARK    7  A    between atoms: C_16  and  C_17
REMARK    8  A    between atoms: C_17  and  C_18
REMARK    9  A    between atoms: C_18  and  C_19
REMARK   10  A    between atoms: C_19  and  O_21
REMARK   11  A    between atoms: O_21  and  C_22
REMARK   12  A    between atoms: C_22  and  C_23
REMARK   13  A    between atoms: C_23  and  C_25
REMARK                            x       y       z     vdW  Elec       q    Type
REMARK                         _______ _______ _______ _____ _____    ______ ____
ROOT
ATOM      1  C   UNL     1     -11.374  14.417  65.777  0.00  0.00    +0.052 C 
ATOM      2  C   UNL     1     -12.765  13.974  64.906  0.00  0.00    +0.156 C 
ATOM      3  O   UNL     1     -12.601  15.077  63.867  0.00  0.00    -0.223 OA
ATOM      4  C   UNL     1     -12.022  12.973  63.888  0.00  0.00    +0.034 C 
ATOM      5  C   UNL     1     -11.576  11.865  65.215  0.00  0.00    +0.007 C 
ATOM      6  C   UNL     1     -12.366  12.599  65.683  0.00  0.00    +0.022 C 
ATOM      7  C   UNL     1     -11.159  12.498  64.554  0.00  0.00    -0.048 C 
ATOM      8  C   UNL     1     -10.876  11.506  63.728  0.00  0.00    -0.035 C 
ATOM      9  C   UNL     1     -10.148  13.511  64.451  0.00  0.00    +0.022 C 
ATOM     10  C   UNL     1     -10.449  13.025  65.903  0.00  0.00    +0.011 C 
ENDROOT
BRANCH   1  12
ATOM     11  C   UNL     1     -11.268  14.510  68.196  0.00  0.00    +0.002 C 
ATOM     12  C   UNL     1     -11.987  14.157  67.233  0.00  0.00    -0.026 C 
BRANCH  11  13
ATOM     13  C   UNL     1     -11.825  15.788  69.037  0.00  0.00    +0.175 C 
ATOM     14  O   UNL     1     -10.462  16.461  68.936  0.00  0.00    -0.218 OA
BRANCH  13  15
ATOM     15  C   UNL     1     -11.356  15.023  70.504  0.00  0.00    +0.048 C 
ATOM     16  C   UNL     1     -12.782  14.263  70.643  0.00  0.00    +0.004 C 
BRANCH  15  17
ATOM     17  C   UNL     1     -11.740  16.343  71.345  0.00  0.00    +0.079 C 
BRANCH  17  20
ATOM     18  C   UNL     1     -12.506  15.497  74.804  0.00  0.00    +0.090 C 
ATOM     19  C   UNL     1     -12.363  15.782  73.870  0.00  0.00    -0.090 C 
ATOM     20  C   UNL     1     -12.091  16.035  72.705  0.00  0.00    -0.091 C 
ENDBRANCH  17  20
ENDBRANCH  15  17
ENDBRANCH  13  15
ENDBRANCH  11  13
ENDBRANCH   1  12
BRANCH   8  21
ATOM     21  C   UNL     1      -9.531  11.245  63.338  0.00  0.00    +0.026 C 
BRANCH  21  22
ATOM     22  C   UNL     1      -9.342   9.947  62.902  0.00  0.00    +0.016 C 
BRANCH  22  23
ATOM     23  C   UNL     1      -7.937  10.149  62.318  0.00  0.00    +0.110 C 
BRANCH  23  24
ATOM     24  C   UNL     1      -7.132   9.399  63.266  0.00  0.00    +0.317 C 
ATOM     25  O   UNL     1      -7.569   8.272  63.620  0.00  0.00    -0.250 OA
BRANCH  24  26
ATOM     26  O   UNL     1      -6.359  10.030  64.242  0.00  0.00    -0.440 OA
BRANCH  26  27
ATOM     27  C   UNL     1      -6.514   9.457  65.541  0.00  0.00    +0.277 C 
BRANCH  27  28
ATOM     28  C   UNL     1      -7.197  10.522  66.347  0.00  0.00    +0.217 C 
ATOM     29  O   UNL     1      -6.581  11.620  66.479  0.00  0.00    -0.287 OA
BRANCH  28  30
ATOM     30  C   UNL     1      -8.427  10.224  67.049  0.00  0.00    +0.038 A 
ATOM     31  C   UNL     1      -8.742  10.797  68.273  0.00  0.00    +0.003 A 
ATOM     32  C   UNL     1     -10.047  10.844  68.733  0.00  0.00    +0.000 A 
ATOM     33  C   UNL     1     -10.991  10.034  68.127  0.00  0.00    +0.000 A 
ATOM     34  C   UNL     1     -10.577   9.165  67.134  0.00  0.00    +0.000 A 
ATOM     35  C   UNL     1      -9.284   9.212  66.635  0.00  0.00    +0.003 A 
ENDBRANCH  28  30
ENDBRANCH  27  28
ENDBRANCH  26  27
ENDBRANCH  24  26
ENDBRANCH  23  24
ENDBRANCH  22  23
ENDBRANCH  21  22
ENDBRANCH   8  21
TORSDOF 13
ENDMDL
MODEL 4
REMARK VINA RESULT:      -7.4      3.281      4.777
REMARK  Name = 
REMARK  13 active torsions:
REMARK  status: ('A' for Active; 'I' for Inactive)
REMARK    1  A    between atoms: C_3  and  C_4
REMARK    2  A    between atoms: C_4  and  C_5
REMARK    3  A    between atoms: C_5  and  C_7
REMARK    4  A    between atoms: C_7  and  C_9
REMARK    5  A    between atoms: C_10  and  C_11
REMARK    6  A    between atoms: C_15  and  C_16
REMARK    7  A    between atoms: C_16  and  C_17
REMARK    8  A    between atoms: C_17  and  C_18
REMARK    9  A    between atoms: C_18  and  C_19
REMARK   10  A    between atoms: C_19  and  O_21
REMARK   11  A    between atoms: O_21  and  C_22
REMARK   12  A    between atoms: C_22  and  C_23
REMARK   13  A    between atoms: C_23  and  C_25
REMARK                            x       y       z     vdW  Elec       q    Type
REMARK                         _______ _______ _______ _____ _____    ______ ____
ROOT
ATOM      1  C   UNL     1     -11.322  14.359  65.779  0.00  0.00    +0.052 C 
ATOM      2  C   UNL     1     -12.731  14.047  64.880  0.00  0.00    +0.156 C 
ATOM      3  O   UNL     1     -12.479  15.174  63.885  0.00  0.00    -0.223 OA
ATOM      4  C   UNL     1     -12.047  13.036  63.830  0.00  0.00    +0.034 C 
ATOM      5  C   UNL     1     -11.693  11.850  65.117  0.00  0.00    +0.007 C 
ATOM      6  C   UNL     1     -12.436  12.619  65.606  0.00  0.00    +0.022 C 
ATOM      7  C   UNL     1     -11.226  12.478  64.485  0.00  0.00    -0.048 C 
ATOM      8  C   UNL     1     -11.003  11.500  63.624  0.00  0.00    -0.035 C 
ATOM      9  C   UNL     1     -10.147  13.421  64.430  0.00  0.00    +0.022 C 
ATOM     10  C   UNL     1     -10.497  12.903  65.859  0.00  0.00    +0.011 C 
ENDROOT
BRANCH   1  12
ATOM     11  C   UNL     1     -11.283  14.460  68.199  0.00  0.00    +0.002 C 
ATOM     12  C   UNL     1     -11.968  14.088  67.219  0.00  0.00    -0.026 C 
BRANCH  11  13
ATOM     13  C   UNL     1     -11.894  15.726  69.022  0.00  0.00    +0.175 C 
ATOM     14  O   UNL     1     -10.566  16.462  68.893  0.00  0.00    -0.218 OA
BRANCH  13  15
ATOM     15  C   UNL     1     -11.372  15.014  70.498  0.00  0.00    +0.048 C 
ATOM     16  C   UNL     1     -12.784  14.243  70.704  0.00  0.00    +0.004 C 
BRANCH  15  17
ATOM     17  C   UNL     1     -11.748  16.356  71.308  0.00  0.00    +0.079 C 
BRANCH  17  20
ATOM     18  C   UNL     1     -12.507  15.547  74.777  0.00  0.00    +0.090 C 
ATOM     19  C   UNL     1     -12.271  15.841  73.865  0.00  0.00    -0.090 C 
ATOM     20  C   UNL     1     -12.040  16.090  72.690  0.00  0.00    -0.091 C 
ENDBRANCH  17  20
ENDBRANCH  15  17
ENDBRANCH  13  15
ENDBRANCH  11  13
ENDBRANCH   1  12
BRANCH   8  21
ATOM     21  C   UNL     1      -9.674  11.161  63.236  0.00  0.00    +0.026 C 
BRANCH  21  22
ATOM     22  C   UNL     1      -9.305   9.893  63.641  0.00  0.00    +0.016 C 
BRANCH  22  23
ATOM     23  C   UNL     1      -8.052  10.305  64.426  0.00  0.00    +0.110 C 
BRANCH  23  24
ATOM     24  C   UNL     1      -8.009   9.269  65.443  0.00  0.00    +0.317 C 
ATOM     25  O   UNL     1      -7.749   8.099  65.057  0.00  0.00    -0.250 OA
BRANCH  24  26
ATOM     26  O   UNL     1      -8.818   9.315  66.580  0.00  0.00    -0.440 OA
BRANCH  26  27
ATOM     27  C   UNL     1      -8.093   9.115  67.795  0.00  0.00    +0.277 C 
BRANCH  27  28
ATOM     28  C   UNL     1      -8.557  10.217  68.699  0.00  0.00    +0.217 C 
ATOM     29  O   UNL     1      -7.697  11.087  69.026  0.00  0.00    -0.287 OA
BRANCH  28  30
ATOM     30  C   UNL     1      -9.886  10.175  69.272  0.00  0.00    +0.038 A 
ATOM     31  C   UNL     1     -10.186   9.425  70.400  0.00  0.00    +0.003 A 
ATOM     32  C   UNL     1     -11.303   9.697  71.171  0.00  0.00    +0.000 A 
ATOM     33  C   UNL     1     -12.293  10.504  70.639  0.00  0.00    +0.000 A 
ATOM     34  C   UNL     1     -12.155  10.948  69.337  0.00  0.00    +0.000 A 
ATOM     35  C   UNL     1     -10.982  10.733  68.628  0.00  0.00    +0.003 A 
ENDBRANCH  28  30
ENDBRANCH  27  28
ENDBRANCH  26  27
ENDBRANCH  24  26
ENDBRANCH  23  24
ENDBRANCH  22  23
ENDBRANCH  21  22
ENDBRANCH   8  21
TORSDOF 13
ENDMDL
MODEL 5
REMARK VINA RESULT:      -7.2      2.367      8.215
REMARK  Name = 
REMARK  13 active torsions:
REMARK  status: ('A' for Active; 'I' for Inactive)
REMARK    1  A    between atoms: C_3  and  C_4
REMARK    2  A    between atoms: C_4  and  C_5
REMARK    3  A    between atoms: C_5  and  C_7
REMARK    4  A    between atoms: C_7  and  C_9
REMARK    5  A    between atoms: C_10  and  C_11
REMARK    6  A    between atoms: C_15  and  C_16
REMARK    7  A    between atoms: C_16  and  C_17
REMARK    8  A    between atoms: C_17  and  C_18
REMARK    9  A    between atoms: C_18  and  C_19
REMARK   10  A    between atoms: C_19  and  O_21
REMARK   11  A    between atoms: O_21  and  C_22
REMARK   12  A    between atoms: C_22  and  C_23
REMARK   13  A    between atoms: C_23  and  C_25
REMARK                            x       y       z     vdW  Elec       q    Type
REMARK                         _______ _______ _______ _____ _____    ______ ____
ROOT
ATOM      1  C   UNL     1     -11.896  13.102  67.325  0.00  0.00    +0.052 C 
ATOM      2  C   UNL     1     -11.843  12.871  65.641  0.00  0.00    +0.156 C 
ATOM      3  O   UNL     1     -13.094  13.699  65.376  0.00  0.00    -0.223 OA
ATOM      4  C   UNL     1     -10.967  14.182  65.313  0.00  0.00    +0.034 C 
ATOM      5  C   UNL     1      -9.564  13.538  66.210  0.00  0.00    +0.007 C 
ATOM      6  C   UNL     1     -10.297  12.626  66.094  0.00  0.00    +0.022 C 
ATOM      7  C   UNL     1     -10.249  14.273  66.257  0.00  0.00    -0.048 C 
ATOM      8  C   UNL     1      -9.411  15.137  65.712  0.00  0.00    -0.035 C 
ATOM      9  C   UNL     1     -11.105  14.955  67.185  0.00  0.00    +0.022 C 
ATOM     10  C   UNL     1     -10.388  13.692  67.755  0.00  0.00    +0.011 C 
ENDROOT
BRANCH   1  12
ATOM     11  C   UNL     1     -11.164  11.440  68.928  0.00  0.00    +0.002 C 
ATOM     12  C   UNL     1     -11.443  11.618  67.721  0.00  0.00    -0.026 C 
BRANCH  11  13
ATOM     13  C   UNL     1     -12.216  10.505  69.746  0.00  0.00    +0.175 C 
ATOM     14  O   UNL     1     -12.436  11.622  70.759  0.00  0.00    -0.218 OA
BRANCH  13  15
ATOM     15  C   UNL     1     -10.923   9.881  70.693  0.00  0.00    +0.048 C 
ATOM     16  C   UNL     1     -10.662   8.661  69.657  0.00  0.00    +0.004 C 
BRANCH  15  17
ATOM     17  C   UNL     1     -11.962   9.117  71.658  0.00  0.00    +0.079 C 
BRANCH  17  20
ATOM     18  C   UNL     1     -10.351   6.631  73.776  0.00  0.00    +0.090 C 
ATOM     19  C   UNL     1     -10.737   7.363  73.238  0.00  0.00    -0.090 C 
ATOM     20  C   UNL     1     -11.305   8.177  72.525  0.00  0.00    -0.091 C 
ENDBRANCH  17  20
ENDBRANCH  15  17
ENDBRANCH  13  15
ENDBRANCH  11  13
ENDBRANCH   1  12
BRANCH   8  21
ATOM     21  C   UNL     1      -9.040  16.327  66.402  0.00  0.00    +0.026 C 
BRANCH  21  22
ATOM     22  C   UNL     1      -7.732  16.701  66.160  0.00  0.00    +0.016 C 
BRANCH  22  23
ATOM     23  C   UNL     1      -7.120  16.061  67.414  0.00  0.00    +0.110 C 
BRANCH  23  24
ATOM     24  C   UNL     1      -5.783  16.628  67.389  0.00  0.00    +0.317 C 
ATOM     25  O   UNL     1      -4.829  15.833  67.182  0.00  0.00    -0.250 OA
BRANCH  24  26
ATOM     26  O   UNL     1      -5.432  17.729  68.172  0.00  0.00    -0.440 OA
BRANCH  26  27
ATOM     27  C   UNL     1      -6.286  17.911  69.303  0.00  0.00    +0.277 C 
BRANCH  27  28
ATOM     28  C   UNL     1      -6.804  19.312  69.165  0.00  0.00    +0.217 C 
ATOM     29  O   UNL     1      -6.249  20.198  69.879  0.00  0.00    -0.287 OA
BRANCH  28  30
ATOM     30  C   UNL     1      -7.979  19.575  68.361  0.00  0.00    +0.038 A 
ATOM     31  C   UNL     1      -7.918  20.270  67.161  0.00  0.00    +0.003 A 
ATOM     32  C   UNL     1      -8.925  20.166  66.217  0.00  0.00    +0.000 A 
ATOM     33  C   UNL     1     -10.141  19.630  66.603  0.00  0.00    +0.000 A 
ATOM     34  C   UNL     1     -10.320  19.284  67.930  0.00  0.00    +0.000 A 
ATOM     35  C   UNL     1      -9.261  19.314  68.826  0.00  0.00    +0.003 A 
ENDBRANCH  28  30
ENDBRANCH  27  28
ENDBRANCH  26  27
ENDBRANCH  24  26
ENDBRANCH  23  24
ENDBRANCH  22  23
ENDBRANCH  21  22
ENDBRANCH   8  21
TORSDOF 13
ENDMDL
MODEL 6
REMARK VINA RESULT:      -7.1      1.964      2.615
REMARK  Name = 
REMARK  13 active torsions:
REMARK  status: ('A' for Active; 'I' for Inactive)
REMARK    1  A    between atoms: C_3  and  C_4
REMARK    2  A    between atoms: C_4  and  C_5
REMARK    3  A    between atoms: C_5  and  C_7
REMARK    4  A    between atoms: C_7  and  C_9
REMARK    5  A    between atoms: C_10  and  C_11
REMARK    6  A    between atoms: C_15  and  C_16
REMARK    7  A    between atoms: C_16  and  C_17
REMARK    8  A    between atoms: C_17  and  C_18
REMARK    9  A    between atoms: C_18  and  C_19
REMARK   10  A    between atoms: C_19  and  O_21
REMARK   11  A    between atoms: O_21  and  C_22
REMARK   12  A    between atoms: C_22  and  C_23
REMARK   13  A    between atoms: C_23  and  C_25
REMARK                            x       y       z     vdW  Elec       q    Type
REMARK                         _______ _______ _______ _____ _____    ______ ____
ROOT
ATOM      1  C   UNL     1     -10.639  14.443  65.616  0.00  0.00    +0.052 C 
ATOM      2  C   UNL     1     -12.289  14.041  65.697  0.00  0.00    +0.156 C 
ATOM      3  O   UNL     1     -12.432  13.856  64.191  0.00  0.00    -0.223 OA
ATOM      4  C   UNL     1     -12.075  12.450  65.821  0.00  0.00    +0.034 C 
ATOM      5  C   UNL     1     -11.262  12.627  67.400  0.00  0.00    +0.007 C 
ATOM      6  C   UNL     1     -11.749  13.675  67.189  0.00  0.00    +0.022 C 
ATOM      7  C   UNL     1     -11.070  12.359  66.450  0.00  0.00    -0.048 C 
ATOM      8  C   UNL     1     -11.207  11.078  66.746  0.00  0.00    -0.035 C 
ATOM      9  C   UNL     1     -10.088  12.510  65.415  0.00  0.00    +0.022 C 
ATOM     10  C   UNL     1      -9.862  13.403  66.675  0.00  0.00    +0.011 C 
ENDROOT
BRANCH   1  12
ATOM     11  C   UNL     1      -9.588  16.147  66.980  0.00  0.00    +0.002 C 
ATOM     12  C   UNL     1     -10.680  15.581  66.742  0.00  0.00    -0.026 C 
BRANCH  11  13
ATOM     13  C   UNL     1      -9.504  17.703  66.508  0.00  0.00    +0.175 C 
ATOM     14  O   UNL     1      -8.261  17.395  65.683  0.00  0.00    -0.218 OA
BRANCH  13  15
ATOM     15  C   UNL     1      -8.526  18.063  67.876  0.00  0.00    +0.048 C 
ATOM     16  C   UNL     1      -9.785  18.659  68.705  0.00  0.00    +0.004 C 
BRANCH  15  17
ATOM     17  C   UNL     1      -8.046  19.445  67.202  0.00  0.00    +0.079 C 
BRANCH  17  20
ATOM     18  C   UNL     1      -5.337  20.902  69.153  0.00  0.00    +0.090 C 
ATOM     19  C   UNL     1      -6.051  20.562  68.561  0.00  0.00    -0.090 C 
ATOM     20  C   UNL     1      -6.975  20.062  67.936  0.00  0.00    -0.091 C 
ENDBRANCH  17  20
ENDBRANCH  15  17
ENDBRANCH  13  15
ENDBRANCH  11  13
ENDBRANCH   1  12
BRANCH   8  21
ATOM     21  C   UNL     1     -10.136  10.164  66.532  0.00  0.00    +0.026 C 
BRANCH  21  22
ATOM     22  C   UNL     1     -10.363   8.929  67.109  0.00  0.00    +0.016 C 
BRANCH  22  23
ATOM     23  C   UNL     1      -8.969   8.752  67.728  0.00  0.00    +0.110 C 
BRANCH  23  24
ATOM     24  C   UNL     1      -9.145   7.507  68.455  0.00  0.00    +0.317 C 
ATOM     25  O   UNL     1     -10.249   6.918  68.322  0.00  0.00    -0.250 OA
BRANCH  24  26
ATOM     26  O   UNL     1      -8.537   7.281  69.691  0.00  0.00    -0.440 OA
BRANCH  26  27
ATOM     27  C   UNL     1      -9.474   7.087  70.752  0.00  0.00    +0.277 C 
BRANCH  27  28
ATOM     28  C   UNL     1      -9.625   8.442  71.377  0.00  0.00    +0.217 C 
ATOM     29  O   UNL     1      -8.660   8.854  72.086  0.00  0.00    -0.287 OA
BRANCH  28  30
ATOM     30  C   UNL     1     -10.884   9.150  71.279  0.00  0.00    +0.038 A 
ATOM     31  C   UNL     1     -12.044   8.691  71.886  0.00  0.00    +0.003 A 
ATOM     32  C   UNL     1     -13.107   9.540  72.142  0.00  0.00    +0.000 A 
ATOM     33  C   UNL     1     -13.144  10.766  71.502  0.00  0.00    +0.000 A 
ATOM     34  C   UNL     1     -12.153  11.063  70.584  0.00  0.00    +0.000 A 
ATOM     35  C   UNL     1     -11.054  10.230  70.423  0.00  0.00    +0.003 A 
ENDBRANCH  28  30
ENDBRANCH  27  28
ENDBRANCH  26  27
ENDBRANCH  24  26
ENDBRANCH  23  24
ENDBRANCH  22  23
ENDBRANCH  21  22
ENDBRANCH   8  21
TORSDOF 13
ENDMDL
MODEL 7
REMARK VINA RESULT:      -7.1      2.151      2.957
REMARK  Name = 
REMARK  13 active torsions:
REMARK  status: ('A' for Active; 'I' for Inactive)
REMARK    1  A    between atoms: C_3  and  C_4
REMARK    2  A    between atoms: C_4  and  C_5
REMARK    3  A    between atoms: C_5  and  C_7
REMARK    4  A    between atoms: C_7  and  C_9
REMARK    5  A    between atoms: C_10  and  C_11
REMARK    6  A    between atoms: C_15  and  C_16
REMARK    7  A    between atoms: C_16  and  C_17
REMARK    8  A    between atoms: C_17  and  C_18
REMARK    9  A    between atoms: C_18  and  C_19
REMARK   10  A    between atoms: C_19  and  O_21
REMARK   11  A    between atoms: O_21  and  C_22
REMARK   12  A    between atoms: C_22  and  C_23
REMARK   13  A    between atoms: C_23  and  C_25
REMARK                            x       y       z     vdW  Elec       q    Type
REMARK                         _______ _______ _______ _____ _____    ______ ____
ROOT
ATOM      1  C   UNL     1     -10.498  14.475  66.157  0.00  0.00    +0.052 C 
ATOM      2  C   UNL     1     -12.104  14.051  65.798  0.00  0.00    +0.156 C 
ATOM      3  O   UNL     1     -11.848  13.902  64.303  0.00  0.00    -0.223 OA
ATOM      4  C   UNL     1     -11.901  12.460  65.940  0.00  0.00    +0.034 C 
ATOM      5  C   UNL     1     -11.529  12.606  67.680  0.00  0.00    +0.007 C 
ATOM      6  C   UNL     1     -11.964  13.654  67.371  0.00  0.00    +0.022 C 
ATOM      7  C   UNL     1     -11.092  12.366  66.806  0.00  0.00    -0.048 C 
ATOM      8  C   UNL     1     -11.277  11.076  67.029  0.00  0.00    -0.035 C 
ATOM      9  C   UNL     1      -9.877  12.554  66.066  0.00  0.00    +0.022 C 
ATOM     10  C   UNL     1     -10.003  13.418  67.360  0.00  0.00    +0.011 C 
ENDROOT
BRANCH   1  12
ATOM     11  C   UNL     1      -9.948  16.420  67.492  0.00  0.00    +0.002 C 
ATOM     12  C   UNL     1     -10.850  15.583  67.258  0.00  0.00    -0.026 C 
BRANCH  11  13
ATOM     13  C   UNL     1     -10.269  17.934  66.987  0.00  0.00    +0.175 C 
ATOM     14  O   UNL     1      -9.423  17.707  65.740  0.00  0.00    -0.218 OA
BRANCH  13  15
ATOM     15  C   UNL     1      -8.888  18.508  67.837  0.00  0.00    +0.048 C 
ATOM     16  C   UNL     1      -9.800  19.233  68.966  0.00  0.00    +0.004 C 
BRANCH  15  17
ATOM     17  C   UNL     1      -8.760  19.763  66.835  0.00  0.00    +0.079 C 
BRANCH  17  20
ATOM     18  C   UNL     1      -5.538  21.398  67.296  0.00  0.00    +0.090 C 
ATOM     19  C   UNL     1      -6.411  20.985  67.091  0.00  0.00    -0.090 C 
ATOM     20  C   UNL     1      -7.497  20.438  66.971  0.00  0.00    -0.091 C 
ENDBRANCH  17  20
ENDBRANCH  15  17
ENDBRANCH  13  15
ENDBRANCH  11  13
ENDBRANCH   1  12
BRANCH   8  21
ATOM     21  C   UNL     1     -10.171  10.180  67.082  0.00  0.00    +0.026 C 
BRANCH  21  22
ATOM     22  C   UNL     1     -10.510   8.889  66.725  0.00  0.00    +0.016 C 
BRANCH  22  23
ATOM     23  C   UNL     1      -9.768   8.179  67.866  0.00  0.00    +0.110 C 
BRANCH  23  24
ATOM     24  C   UNL     1     -10.422   6.882  67.858  0.00  0.00    +0.317 C 
ATOM     25  O   UNL     1     -11.233   6.657  66.921  0.00  0.00    -0.250 OA
BRANCH  24  26
ATOM     26  O   UNL     1     -10.728   6.200  69.037  0.00  0.00    -0.440 OA
BRANCH  26  27
ATOM     27  C   UNL     1     -10.022   6.699  70.175  0.00  0.00    +0.277 C 
BRANCH  27  28
ATOM     28  C   UNL     1     -11.089   6.972  71.193  0.00  0.00    +0.217 C 
ATOM     29  O   UNL     1     -11.576   5.970  71.792  0.00  0.00    -0.287 OA
BRANCH  28  30
ATOM     30  C   UNL     1     -11.617   8.311  71.349  0.00  0.00    +0.038 A 
ATOM     31  C   UNL     1     -10.955   9.432  70.868  0.00  0.00    +0.003 A 
ATOM     32  C   UNL     1     -11.624  10.624  70.647  0.00  0.00    +0.000 A 
ATOM     33  C   UNL     1     -12.875  10.795  71.211  0.00  0.00    +0.000 A 
ATOM     34  C   UNL     1     -13.376   9.794  72.025  0.00  0.00    +0.000 A 
ATOM     35  C   UNL     1     -12.721   8.577  72.147  0.00  0.00    +0.003 A 
ENDBRANCH  28  30
ENDBRANCH  27  28
ENDBRANCH  26  27
ENDBRANCH  24  26
ENDBRANCH  23  24
ENDBRANCH  22  23
ENDBRANCH  21  22
ENDBRANCH   8  21
TORSDOF 13
ENDMDL
MODEL 8
REMARK VINA RESULT:      -7.0      2.357      4.555
REMARK  Name = 
REMARK  13 active torsions:
REMARK  status: ('A' for Active; 'I' for Inactive)
REMARK    1  A    between atoms: C_3  and  C_4
REMARK    2  A    between atoms: C_4  and  C_5
REMARK    3  A    between atoms: C_5  and  C_7
REMARK    4  A    between atoms: C_7  and  C_9
REMARK    5  A    between atoms: C_10  and  C_11
REMARK    6  A    between atoms: C_15  and  C_16
REMARK    7  A    between atoms: C_16  and  C_17
REMARK    8  A    between atoms: C_17  and  C_18
REMARK    9  A    between atoms: C_18  and  C_19
REMARK   10  A    between atoms: C_19  and  O_21
REMARK   11  A    between atoms: O_21  and  C_22
REMARK   12  A    between atoms: C_22  and  C_23
REMARK   13  A    between atoms: C_23  and  C_25
REMARK                            x       y       z     vdW  Elec       q    Type
REMARK                         _______ _______ _______ _____ _____    ______ ____
ROOT
ATOM      1  C   UNL     1      -8.655  19.119  67.167  0.00  0.00    +0.052 C 
ATOM      2  C   UNL     1     -10.172  19.166  67.933  0.00  0.00    +0.156 C 
ATOM      3  O   UNL     1     -10.890  19.745  66.720  0.00  0.00    -0.223 OA
ATOM      4  C   UNL     1     -10.653  17.705  67.457  0.00  0.00    +0.034 C 
ATOM      5  C   UNL     1      -9.357  16.912  68.394  0.00  0.00    +0.007 C 
ATOM      6  C   UNL     1      -9.372  18.024  68.774  0.00  0.00    +0.022 C 
ATOM      7  C   UNL     1      -9.643  17.077  67.444  0.00  0.00    -0.048 C 
ATOM      8  C   UNL     1     -10.219  15.890  67.374  0.00  0.00    -0.035 C 
ATOM      9  C   UNL     1      -9.118  17.432  66.157  0.00  0.00    +0.022 C 
ATOM     10  C   UNL     1      -8.104  17.546  67.337  0.00  0.00    +0.011 C 
ENDROOT
BRANCH   1  12
ATOM     11  C   UNL     1      -6.559  19.436  68.340  0.00  0.00    +0.002 C 
ATOM     12  C   UNL     1      -7.799  19.571  68.443  0.00  0.00    -0.026 C 
BRANCH  11  13
ATOM     13  C   UNL     1      -5.721  20.829  68.253  0.00  0.00    +0.175 C 
ATOM     14  O   UNL     1      -6.768  21.411  67.311  0.00  0.00    -0.218 OA
BRANCH  13  15
ATOM     15  C   UNL     1      -4.838  20.211  66.912  0.00  0.00    +0.048 C 
ATOM     16  C   UNL     1      -3.678  19.604  67.869  0.00  0.00    +0.004 C 
BRANCH  15  17
ATOM     17  C   UNL     1      -4.164  21.653  66.658  0.00  0.00    +0.079 C 
BRANCH  17  20
ATOM     18  C   UNL     1      -2.829  21.964  63.283  0.00  0.00    +0.090 C 
ATOM     19  C   UNL     1      -3.110  21.873  64.225  0.00  0.00    -0.090 C 
ATOM     20  C   UNL     1      -3.588  21.757  65.344  0.00  0.00    -0.091 C 
ENDBRANCH  17  20
ENDBRANCH  15  17
ENDBRANCH  13  15
ENDBRANCH  11  13
ENDBRANCH   1  12
BRANCH   8  21
ATOM     21  C   UNL     1      -9.807  14.938  66.397  0.00  0.00    +0.026 C 
BRANCH  21  22
ATOM     22  C   UNL     1     -10.824  14.587  65.529  0.00  0.00    +0.016 C 
BRANCH  22  23
ATOM     23  C   UNL     1     -11.853  14.193  66.597  0.00  0.00    +0.110 C 
BRANCH  23  24
ATOM     24  C   UNL     1     -11.918  12.755  66.401  0.00  0.00    +0.317 C 
ATOM     25  O   UNL     1     -12.538  12.344  65.385  0.00  0.00    -0.250 OA
BRANCH  24  26
ATOM     26  O   UNL     1     -11.952  11.863  67.474  0.00  0.00    -0.440 OA
BRANCH  26  27
ATOM     27  C   UNL     1     -11.090  12.243  68.549  0.00  0.00    +0.277 C 
BRANCH  27  28
ATOM     28  C   UNL     1     -11.919  12.052  69.784  0.00  0.00    +0.217 C 
ATOM     29  O   UNL     1     -12.319  10.876  70.027  0.00  0.00    -0.287 OA
BRANCH  28  30
ATOM     30  C   UNL     1     -12.347  13.200  70.555  0.00  0.00    +0.038 A 
ATOM     31  C   UNL     1     -11.887  14.483  70.296  0.00  0.00    +0.003 A 
ATOM     32  C   UNL     1     -12.580  15.599  70.732  0.00  0.00    +0.000 A 
ATOM     33  C   UNL     1     -13.553  15.436  71.703  0.00  0.00    +0.000 A 
ATOM     34  C   UNL     1     -13.744  14.177  72.242  0.00  0.00    +0.000 A 
ATOM     35  C   UNL     1     -13.098  13.068  71.715  0.00  0.00    +0.003 A 
ENDBRANCH  28  30
ENDBRANCH  27  28
ENDBRANCH  26  27
ENDBRANCH  24  26
ENDBRANCH  23  24
ENDBRANCH  22  23
ENDBRANCH  21  22
ENDBRANCH   8  21
TORSDOF 13
ENDMDL
MODEL 9
REMARK VINA RESULT:      -6.9      2.025      7.148
REMARK  Name = 
REMARK  13 active torsions:
REMARK  status: ('A' for Active; 'I' for Inactive)
REMARK    1  A    between atoms: C_3  and  C_4
REMARK    2  A    between atoms: C_4  and  C_5
REMARK    3  A    between atoms: C_5  and  C_7
REMARK    4  A    between atoms: C_7  and  C_9
REMARK    5  A    between atoms: C_10  and  C_11
REMARK    6  A    between atoms: C_15  and  C_16
REMARK    7  A    between atoms: C_16  and  C_17
REMARK    8  A    between atoms: C_17  and  C_18
REMARK    9  A    between atoms: C_18  and  C_19
REMARK   10  A    between atoms: C_19  and  O_21
REMARK   11  A    between atoms: O_21  and  C_22
REMARK   12  A    between atoms: C_22  and  C_23
REMARK   13  A    between atoms: C_23  and  C_25
REMARK                            x       y       z     vdW  Elec       q    Type
REMARK                         _______ _______ _______ _____ _____    ______ ____
ROOT
ATOM      1  C   UNL     1     -12.057  12.626  67.015  0.00  0.00    +0.052 C 
ATOM      2  C   UNL     1     -11.812  12.149  65.402  0.00  0.00    +0.156 C 
ATOM      3  O   UNL     1     -13.129  12.738  64.911  0.00  0.00    -0.223 OA
ATOM      4  C   UNL     1     -11.087  13.506  64.927  0.00  0.00    +0.034 C 
ATOM      5  C   UNL     1      -9.705  13.215  66.020  0.00  0.00    +0.007 C 
ATOM      6  C   UNL     1     -10.299  12.201  66.002  0.00  0.00    +0.022 C 
ATOM      7  C   UNL     1     -10.481  13.843  65.893  0.00  0.00    -0.048 C 
ATOM      8  C   UNL     1      -9.714  14.724  65.276  0.00  0.00    -0.035 C 
ATOM      9  C   UNL     1     -11.503  14.530  66.630  0.00  0.00    +0.022 C 
ATOM     10  C   UNL     1     -10.687  13.485  67.452  0.00  0.00    +0.011 C 
ENDROOT
BRANCH   1  12
ATOM     11  C   UNL     1     -11.305  11.341  68.926  0.00  0.00    +0.002 C 
ATOM     12  C   UNL     1     -11.456  11.301  67.684  0.00  0.00    -0.026 C 
BRANCH  11  13
ATOM     13  C   UNL     1     -12.310  10.379  69.772  0.00  0.00    +0.175 C 
ATOM     14  O   UNL     1     -12.568  11.506  70.765  0.00  0.00    -0.218 OA
BRANCH  13  15
ATOM     15  C   UNL     1     -10.984   9.829  70.718  0.00  0.00    +0.048 C 
ATOM     16  C   UNL     1     -10.722   8.563  69.739  0.00  0.00    +0.004 C 
BRANCH  15  17
ATOM     17  C   UNL     1     -11.986   9.095  71.744  0.00  0.00    +0.079 C 
BRANCH  17  20
ATOM     18  C   UNL     1     -10.239   6.607  73.750  0.00  0.00    +0.090 C 
ATOM     19  C   UNL     1     -10.703   7.335  73.272  0.00  0.00    -0.090 C 
ATOM     20  C   UNL     1     -11.304   8.144  72.581  0.00  0.00    -0.091 C 
ENDBRANCH  17  20
ENDBRANCH  15  17
ENDBRANCH  13  15
ENDBRANCH  11  13
ENDBRANCH   1  12
BRANCH   8  21
ATOM     21  C   UNL     1      -9.569  16.047  65.785  0.00  0.00    +0.026 C 
BRANCH  21  22
ATOM     22  C   UNL     1      -8.368  16.239  66.441  0.00  0.00    +0.016 C 
BRANCH  22  23
ATOM     23  C   UNL     1      -8.418  17.773  66.475  0.00  0.00    +0.110 C 
BRANCH  23  24
ATOM     24  C   UNL     1      -9.646  17.994  67.218  0.00  0.00    +0.317 C 
ATOM     25  O   UNL     1     -10.352  18.979  66.875  0.00  0.00    -0.250 OA
BRANCH  24  26
ATOM     26  O   UNL     1      -9.760  17.669  68.571  0.00  0.00    -0.440 OA
BRANCH  26  27
ATOM     27  C   UNL     1     -11.015  17.072  68.903  0.00  0.00    +0.277 C 
BRANCH  27  28
ATOM     28  C   UNL     1     -10.683  16.045  69.943  0.00  0.00    +0.217 C 
ATOM     29  O   UNL     1      -9.544  15.498  69.863  0.00  0.00    -0.287 OA
BRANCH  28  30
ATOM     30  C   UNL     1     -11.694  15.616  70.887  0.00  0.00    +0.038 A 
ATOM     31  C   UNL     1     -11.398  15.326  72.212  0.00  0.00    +0.003 A 
ATOM     32  C   UNL     1     -12.383  15.322  73.185  0.00  0.00    +0.000 A 
ATOM     33  C   UNL     1     -13.707  15.286  72.787  0.00  0.00    +0.000 A 
ATOM     34  C   UNL     1     -13.989  15.189  71.436  0.00  0.00    +0.000 A 
ATOM     35  C   UNL     1     -12.982  15.289  70.487  0.00  0.00    +0.003 A 
ENDBRANCH  28  30
ENDBRANCH  27  28
ENDBRANCH  26  27
ENDBRANCH  24  26
ENDBRANCH  23  24
ENDBRANCH  22  23
ENDBRANCH  21  22
ENDBRANCH   8  21
TORSDOF 13
ENDMDL
