MODEL 1
REMARK VINA RESULT:      -8.8      0.000      0.000
REMARK  Name = 
REMARK  4 active torsions:
REMARK  status: ('A' for Active; 'I' for Inactive)
REMARK    1  A    between atoms: C_14  and  C_16
REMARK    2  A    between atoms: C_19  and  N_20
REMARK    3  A    between atoms: C_21  and  C_23
REMARK    4  A    between atoms: C_28  and  C_29
REMARK                            x       y       z     vdW  Elec       q    Type
REMARK                         _______ _______ _______ _____ _____    ______ ____
ROOT
ATOM      1  C   UNL     1      -9.916  11.375  68.133  0.00  0.00    +0.054 A 
ATOM      2  C   UNL     1      -8.878  10.719  68.781  0.00  0.00    +0.006 A 
ATOM      3  C   UNL     1      -9.157   9.537  69.437  0.00  0.00    +0.017 A 
ATOM      4  C   UNL     1     -10.292   8.781  69.171  0.00  0.00    +0.074 A 
ATOM      5  C   UNL     1     -11.290   9.393  68.423  0.00  0.00    +0.017 A 
ATOM      6  C   UNL     1     -11.008  10.593  67.783  0.00  0.00    +0.006 A 
ENDROOT
BRANCH   1  16
ATOM      7  C   UNL     1     -10.606  19.655  66.061  0.00  0.00    +0.074 C 
ATOM      8  C   UNL     1     -10.041  18.668  67.034  0.00  0.00    +0.139 A 
ATOM      9  N   UNL     1     -10.730  18.002  67.993  0.00  0.00    -0.229 NA
ATOM     10  C   UNL     1     -10.081  16.853  68.304  0.00  0.00    +0.097 A 
ATOM     11  C   UNL     1     -10.746  15.645  68.813  0.00  0.00    +0.033 A 
ATOM     12  C   UNL     1     -10.330  14.330  68.647  0.00  0.00    +0.056 A 
ATOM     13  N   UNL     1      -9.297  13.811  67.801  0.00  0.00    -0.255 N 
ATOM     14  C   UNL     1      -8.493  14.601  66.904  0.00  0.00    +0.105 C 
ATOM     15  C   UNL     1      -7.868  15.803  67.557  0.00  0.00    +0.069 C 
ATOM     16  C   UNL     1      -9.601  12.514  67.273  0.00  0.00    +0.253 C 
ATOM     17  O   UNL     1      -9.467  12.250  66.041  0.00  0.00    -0.270 OA
ATOM     18  C   UNL     1     -11.111  13.362  69.220  0.00  0.00    +0.015 A 
ATOM     19  C   UNL     1     -12.034  13.713  70.198  0.00  0.00    +0.001 A 
ATOM     20  C   UNL     1     -12.433  15.038  70.328  0.00  0.00    +0.000 A 
ATOM     21  C   UNL     1     -11.966  15.959  69.397  0.00  0.00    +0.003 A 
ATOM     22  C   UNL     1      -8.869  16.911  67.628  0.00  0.00    +0.080 A 
ATOM     23  N   UNL     1      -8.837  18.057  66.914  0.00  0.00    -0.233 NA
ENDBRANCH   1  16
BRANCH   4  24
ATOM     24  N   UNL     1     -10.141   7.356  69.177  0.00  0.00    -0.175 NA
ATOM     25  C   UNL     1      -9.629   6.634  70.282  0.00  0.00    +0.269 C 
ATOM     26  O   UNL     1      -8.821   7.260  71.033  0.00  0.00    -0.268 OA
BRANCH  25  27
ATOM     27  C   UNL     1     -10.364   5.542  70.938  0.00  0.00    +0.055 A 
ATOM     28  C   UNL     1     -11.119   5.883  72.049  0.00  0.00    +0.004 A 
ATOM     29  C   UNL     1     -11.385   4.945  73.038  0.00  0.00    +0.000 A 
ATOM     30  C   UNL     1     -10.508   3.885  73.215  0.00  0.00    +0.000 A 
ATOM     31  C   UNL     1      -9.843   3.460  72.073  0.00  0.00    +0.000 A 
ATOM     32  C   UNL     1      -9.842   4.255  70.933  0.00  0.00    +0.005 A 
BRANCH  28  33
ATOM     33  C   UNL     1     -11.995   7.051  71.902  0.00  0.00    +0.000 A 
ATOM     34  C   UNL     1     -13.234   6.834  71.314  0.00  0.00    +0.000 A 
ATOM     35  C   UNL     1     -14.221   7.799  71.463  0.00  0.00    +0.000 A 
ATOM     36  C   UNL     1     -13.802   9.095  71.730  0.00  0.00    +0.000 A 
ATOM     37  C   UNL     1     -12.509   9.332  72.180  0.00  0.00    +0.000 A 
ATOM     38  C   UNL     1     -11.654   8.275  72.466  0.00  0.00    +0.000 A 
ENDBRANCH  28  33
ENDBRANCH  25  27
ENDBRANCH   4  24
TORSDOF 4
ENDMDL
MODEL 2
REMARK VINA RESULT:      -8.6      3.733     11.586
REMARK  Name = 
REMARK  4 active torsions:
REMARK  status: ('A' for Active; 'I' for Inactive)
REMARK    1  A    between atoms: C_14  and  C_16
REMARK    2  A    between atoms: C_19  and  N_20
REMARK    3  A    between atoms: C_21  and  C_23
REMARK    4  A    between atoms: C_28  and  C_29
REMARK                            x       y       z     vdW  Elec       q    Type
REMARK                         _______ _______ _______ _____ _____    ______ ____
ROOT
ATOM      1  C   UNL     1      -8.907  14.788  67.775  0.00  0.00    +0.054 A 
ATOM      2  C   UNL     1      -9.130  15.000  66.421  0.00  0.00    +0.006 A 
ATOM      3  C   UNL     1      -9.016  16.285  65.931  0.00  0.00    +0.017 A 
ATOM      4  C   UNL     1      -8.329  17.287  66.605  0.00  0.00    +0.074 A 
ATOM      5  C   UNL     1      -7.999  17.036  67.931  0.00  0.00    +0.017 A 
ATOM      6  C   UNL     1      -8.137  15.744  68.423  0.00  0.00    +0.006 A 
ENDROOT
BRANCH   1  16
ATOM      7  C   UNL     1     -11.903   8.320  72.520  0.00  0.00    +0.074 C 
ATOM      8  C   UNL     1     -12.126   9.170  71.308  0.00  0.00    +0.139 A 
ATOM      9  N   UNL     1     -12.566  10.452  71.297  0.00  0.00    -0.229 NA
ATOM     10  C   UNL     1     -12.149  11.067  70.163  0.00  0.00    +0.097 A 
ATOM     11  C   UNL     1     -11.911  12.513  70.051  0.00  0.00    +0.033 A 
ATOM     12  C   UNL     1     -11.015  13.148  69.200  0.00  0.00    +0.056 A 
ATOM     13  N   UNL     1      -9.985  12.576  68.384  0.00  0.00    -0.255 N 
ATOM     14  C   UNL     1      -9.663  11.174  68.329  0.00  0.00    +0.105 C 
ATOM     15  C   UNL     1     -10.856  10.291  68.093  0.00  0.00    +0.069 C 
ATOM     16  C   UNL     1      -8.829  13.414  68.268  0.00  0.00    +0.253 C 
ATOM     17  O   UNL     1      -7.659  12.961  68.447  0.00  0.00    -0.270 OA
ATOM     18  C   UNL     1     -10.969  14.515  69.267  0.00  0.00    +0.015 A 
ATOM     19  C   UNL     1     -12.008  15.209  69.875  0.00  0.00    +0.001 A 
ATOM     20  C   UNL     1     -12.879  14.541  70.728  0.00  0.00    +0.000 A 
ATOM     21  C   UNL     1     -12.615  13.208  71.024  0.00  0.00    +0.003 A 
ATOM     22  C   UNL     1     -11.579  10.069  69.383  0.00  0.00    +0.080 A 
ATOM     23  N   UNL     1     -11.637   8.908  70.072  0.00  0.00    -0.233 NA
ENDBRANCH   1  16
BRANCH   4  24
ATOM     24  N   UNL     1      -7.556  18.196  65.811  0.00  0.00    -0.175 NA
ATOM     25  C   UNL     1      -7.740  19.600  65.838  0.00  0.00    +0.269 C 
ATOM     26  O   UNL     1      -8.905  20.006  66.134  0.00  0.00    -0.268 OA
BRANCH  25  27
ATOM     27  C   UNL     1      -6.659  20.546  66.150  0.00  0.00    +0.055 A 
ATOM     28  C   UNL     1      -5.471  20.380  65.454  0.00  0.00    +0.004 A 
ATOM     29  C   UNL     1      -4.265  20.794  66.004  0.00  0.00    +0.000 A 
ATOM     30  C   UNL     1      -4.143  20.865  67.384  0.00  0.00    +0.000 A 
ATOM     31  C   UNL     1      -5.311  21.157  68.075  0.00  0.00    +0.000 A 
ATOM     32  C   UNL     1      -6.540  21.065  67.432  0.00  0.00    +0.005 A 
BRANCH  28  33
ATOM     33  C   UNL     1      -5.590  20.225  63.999  0.00  0.00    +0.000 A 
ATOM     34  C   UNL     1      -6.285  21.217  63.320  0.00  0.00    +0.000 A 
ATOM     35  C   UNL     1      -6.135  21.312  61.943  0.00  0.00    +0.000 A 
ATOM     36  C   UNL     1      -5.735  20.166  61.270  0.00  0.00    +0.000 A 
ATOM     37  C   UNL     1      -5.171  19.106  61.970  0.00  0.00    +0.000 A 
ATOM     38  C   UNL     1      -4.907  19.217  63.330  0.00  0.00    +0.000 A 
ENDBRANCH  28  33
ENDBRANCH  25  27
ENDBRANCH   4  24
TORSDOF 4
ENDMDL
MODEL 3
REMARK VINA RESULT:      -8.2      2.519      4.872
REMARK  Name = 
REMARK  4 active torsions:
REMARK  status: ('A' for Active; 'I' for Inactive)
REMARK    1  A    between atoms: C_14  and  C_16
REMARK    2  A    between atoms: C_19  and  N_20
REMARK    3  A    between atoms: C_21  and  C_23
REMARK    4  A    between atoms: C_28  and  C_29
REMARK                            x       y       z     vdW  Elec       q    Type
REMARK                         _______ _______ _______ _____ _____    ______ ____
ROOT
ATOM      1  C   UNL     1      -9.313  14.997  67.808  0.00  0.00    +0.054 A 
ATOM      2  C   UNL     1      -9.865  14.777  69.063  0.00  0.00    +0.006 A 
ATOM      3  C   UNL     1     -11.003  14.002  69.153  0.00  0.00    +0.017 A 
ATOM      4  C   UNL     1     -11.399  13.131  68.145  0.00  0.00    +0.074 A 
ATOM      5  C   UNL     1     -10.767  13.268  66.916  0.00  0.00    +0.017 A 
ATOM      6  C   UNL     1      -9.634  14.067  66.829  0.00  0.00    +0.006 A 
ENDROOT
BRANCH   1  16
ATOM      7  C   UNL     1      -4.408  21.894  66.502  0.00  0.00    +0.074 C 
ATOM      8  C   UNL     1      -5.376  21.223  67.426  0.00  0.00    +0.139 A 
ATOM      9  N   UNL     1      -6.717  21.124  67.250  0.00  0.00    -0.229 NA
ATOM     10  C   UNL     1      -7.187  20.049  67.929  0.00  0.00    +0.097 A 
ATOM     11  C   UNL     1      -8.386  19.293  67.543  0.00  0.00    +0.033 A 
ATOM     12  C   UNL     1      -8.640  17.948  67.787  0.00  0.00    +0.056 A 
ATOM     13  N   UNL     1      -7.752  16.938  68.279  0.00  0.00    -0.255 N 
ATOM     14  C   UNL     1      -6.361  17.145  68.591  0.00  0.00    +0.105 C 
ATOM     15  C   UNL     1      -6.115  18.325  69.489  0.00  0.00    +0.069 C 
ATOM     16  C   UNL     1      -8.005  15.644  67.718  0.00  0.00    +0.253 C 
ATOM     17  O   UNL     1      -7.071  14.930  67.245  0.00  0.00    -0.270 OA
ATOM     18  C   UNL     1      -9.836  17.458  67.336  0.00  0.00    +0.015 A 
ATOM     19  C   UNL     1     -10.856  18.339  66.997  0.00  0.00    +0.001 A 
ATOM     20  C   UNL     1     -10.563  19.675  66.752  0.00  0.00    +0.000 A 
ATOM     21  C   UNL     1      -9.228  20.065  66.755  0.00  0.00    +0.003 A 
ATOM     22  C   UNL     1      -6.115  19.581  68.679  0.00  0.00    +0.080 A 
ATOM     23  N   UNL     1      -5.040  20.353  68.409  0.00  0.00    -0.233 NA
ENDBRANCH   1  16
BRANCH   4  24
ATOM     24  N   UNL     1     -11.958  11.875  68.552  0.00  0.00    -0.175 NA
ATOM     25  C   UNL     1     -11.214  10.877  69.227  0.00  0.00    +0.269 C 
ATOM     26  O   UNL     1      -9.967  10.858  68.999  0.00  0.00    -0.268 OA
BRANCH  25  27
ATOM     27  C   UNL     1     -11.613  10.322  70.529  0.00  0.00    +0.055 A 
ATOM     28  C   UNL     1     -11.657   8.941  70.627  0.00  0.00    +0.004 A 
ATOM     29  C   UNL     1     -12.502   8.322  71.539  0.00  0.00    +0.000 A 
ATOM     30  C   UNL     1     -13.647   8.986  71.954  0.00  0.00    +0.000 A 
ATOM     31  C   UNL     1     -13.562  10.371  71.976  0.00  0.00    +0.000 A 
ATOM     32  C   UNL     1     -12.513  11.013  71.330  0.00  0.00    +0.005 A 
BRANCH  28  33
ATOM     33  C   UNL     1     -10.483   8.219  70.120  0.00  0.00    +0.000 A 
ATOM     34  C   UNL     1      -9.351   8.224  70.924  0.00  0.00    +0.000 A 
ATOM     35  C   UNL     1      -8.352   7.292  70.674  0.00  0.00    +0.000 A 
ATOM     36  C   UNL     1      -8.285   6.766  69.392  0.00  0.00    +0.000 A 
ATOM     37  C   UNL     1      -9.367   6.890  68.529  0.00  0.00    +0.000 A 
ATOM     38  C   UNL     1     -10.563   7.447  68.968  0.00  0.00    +0.000 A 
ENDBRANCH  28  33
ENDBRANCH  25  27
ENDBRANCH   4  24
TORSDOF 4
ENDMDL
MODEL 4
REMARK VINA RESULT:      -8.1      2.309      3.302
REMARK  Name = 
REMARK  4 active torsions:
REMARK  status: ('A' for Active; 'I' for Inactive)
REMARK    1  A    between atoms: C_14  and  C_16
REMARK    2  A    between atoms: C_19  and  N_20
REMARK    3  A    between atoms: C_21  and  C_23
REMARK    4  A    between atoms: C_28  and  C_29
REMARK                            x       y       z     vdW  Elec       q    Type
REMARK                         _______ _______ _______ _____ _____    ______ ____
ROOT
ATOM      1  C   UNL     1     -10.403  11.022  67.027  0.00  0.00    +0.054 A 
ATOM      2  C   UNL     1      -9.812  10.467  65.900  0.00  0.00    +0.006 A 
ATOM      3  C   UNL     1      -9.331   9.176  65.980  0.00  0.00    +0.017 A 
ATOM      4  C   UNL     1      -9.737   8.283  66.965  0.00  0.00    +0.074 A 
ATOM      5  C   UNL     1     -10.432   8.816  68.043  0.00  0.00    +0.017 A 
ATOM      6  C   UNL     1     -10.895  10.123  67.963  0.00  0.00    +0.006 A 
ENDROOT
BRANCH   1  16
ATOM      7  C   UNL     1     -10.431  19.584  67.158  0.00  0.00    +0.074 C 
ATOM      8  C   UNL     1      -9.985  18.361  66.419  0.00  0.00    +0.139 A 
ATOM      9  N   UNL     1      -8.966  17.538  66.769  0.00  0.00    -0.229 NA
ATOM     10  C   UNL     1      -9.174  16.307  66.241  0.00  0.00    +0.097 A 
ATOM     11  C   UNL     1      -8.665  15.062  66.833  0.00  0.00    +0.033 A 
ATOM     12  C   UNL     1      -9.229  13.797  66.730  0.00  0.00    +0.056 A 
ATOM     13  N   UNL     1     -10.510  13.420  66.212  0.00  0.00    -0.255 N 
ATOM     14  C   UNL     1     -11.499  14.340  65.713  0.00  0.00    +0.105 C 
ATOM     15  C   UNL     1     -10.960  15.312  64.700  0.00  0.00    +0.069 C 
ATOM     16  C   UNL     1     -11.090  12.306  66.900  0.00  0.00    +0.253 C 
ATOM     17  O   UNL     1     -12.291  12.328  67.308  0.00  0.00    -0.270 OA
ATOM     18  C   UNL     1      -8.570  12.777  67.365  0.00  0.00    +0.015 A 
ATOM     19  C   UNL     1      -7.249  12.953  67.758  0.00  0.00    +0.001 A 
ATOM     20  C   UNL     1      -6.722  14.234  67.859  0.00  0.00    +0.000 A 
ATOM     21  C   UNL     1      -7.576  15.313  67.657  0.00  0.00    +0.003 A 
ATOM     22  C   UNL     1     -10.273  16.439  65.402  0.00  0.00    +0.080 A 
ATOM     23  N   UNL     1     -10.710  17.715  65.473  0.00  0.00    -0.233 NA
ENDBRANCH   1  16
BRANCH   4  24
ATOM     24  N   UNL     1      -9.918   6.917  66.572  0.00  0.00    -0.175 NA
ATOM     25  C   UNL     1      -9.097   5.861  67.037  0.00  0.00    +0.269 C 
ATOM     26  O   UNL     1      -7.910   6.174  67.354  0.00  0.00    -0.268 OA
BRANCH  25  27
ATOM     27  C   UNL     1      -9.628   4.674  67.723  0.00  0.00    +0.055 A 
ATOM     28  C   UNL     1      -9.450   4.619  69.096  0.00  0.00    +0.004 A 
ATOM     29  C   UNL     1      -9.387   3.398  69.754  0.00  0.00    +0.000 A 
ATOM     30  C   UNL     1      -8.969   2.276  69.053  0.00  0.00    +0.000 A 
ATOM     31  C   UNL     1      -9.260   2.274  67.696  0.00  0.00    +0.000 A 
ATOM     32  C   UNL     1      -9.654   3.449  67.068  0.00  0.00    +0.005 A 
BRANCH  28  33
ATOM     33  C   UNL     1      -9.816   5.829  69.844  0.00  0.00    +0.000 A 
ATOM     34  C   UNL     1     -11.172   6.104  69.963  0.00  0.00    +0.000 A 
ATOM     35  C   UNL     1     -11.585   7.011  70.929  0.00  0.00    +0.000 A 
ATOM     36  C   UNL     1     -10.652   7.943  71.362  0.00  0.00    +0.000 A 
ATOM     37  C   UNL     1      -9.299   7.743  71.114  0.00  0.00    +0.000 A 
ATOM     38  C   UNL     1      -8.854   6.566  70.524  0.00  0.00    +0.000 A 
ENDBRANCH  28  33
ENDBRANCH  25  27
ENDBRANCH   4  24
TORSDOF 4
ENDMDL
MODEL 5
REMARK VINA RESULT:      -8.0      1.901      9.943
REMARK  Name = 
REMARK  4 active torsions:
REMARK  status: ('A' for Active; 'I' for Inactive)
REMARK    1  A    between atoms: C_14  and  C_16
REMARK    2  A    between atoms: C_19  and  N_20
REMARK    3  A    between atoms: C_21  and  C_23
REMARK    4  A    between atoms: C_28  and  C_29
REMARK                            x       y       z     vdW  Elec       q    Type
REMARK                         _______ _______ _______ _____ _____    ______ ____
ROOT
ATOM      1  C   UNL     1     -10.822  11.958  68.388  0.00  0.00    +0.054 A 
ATOM      2  C   UNL     1     -11.461  12.265  67.194  0.00  0.00    +0.006 A 
ATOM      3  C   UNL     1     -12.012  13.522  67.049  0.00  0.00    +0.017 A 
ATOM      4  C   UNL     1     -11.642  14.599  67.843  0.00  0.00    +0.074 A 
ATOM      5  C   UNL     1     -10.901  14.312  68.983  0.00  0.00    +0.017 A 
ATOM      6  C   UNL     1     -10.366  13.038  69.131  0.00  0.00    +0.006 A 
ENDROOT
BRANCH   1  16
ATOM      7  C   UNL     1      -9.289   4.339  71.983  0.00  0.00    +0.074 C 
ATOM      8  C   UNL     1     -10.226   5.137  71.131  0.00  0.00    +0.139 A 
ATOM      9  N   UNL     1     -11.089   6.089  71.562  0.00  0.00    -0.229 NA
ATOM     10  C   UNL     1     -11.362   6.949  70.550  0.00  0.00    +0.097 A 
ATOM     11  C   UNL     1     -11.741   8.354  70.745  0.00  0.00    +0.033 A 
ATOM     12  C   UNL     1     -11.511   9.410  69.871  0.00  0.00    +0.056 A 
ATOM     13  N   UNL     1     -10.700   9.444  68.690  0.00  0.00    -0.255 N 
ATOM     14  C   UNL     1      -9.916   8.341  68.199  0.00  0.00    +0.105 C 
ATOM     15  C   UNL     1     -10.690   7.057  68.081  0.00  0.00    +0.069 C 
ATOM     16  C   UNL     1     -10.065  10.710  68.480  0.00  0.00    +0.253 C 
ATOM     17  O   UNL     1      -8.829  10.798  68.215  0.00  0.00    -0.270 OA
ATOM     18  C   UNL     1     -11.963  10.642  70.264  0.00  0.00    +0.015 A 
ATOM     19  C   UNL     1     -12.900  10.736  71.285  0.00  0.00    +0.001 A 
ATOM     20  C   UNL     1     -13.096   9.663  72.146  0.00  0.00    +0.000 A 
ATOM     21  C   UNL     1     -12.264   8.556  72.014  0.00  0.00    +0.003 A 
ATOM     22  C   UNL     1     -10.772   6.396  69.420  0.00  0.00    +0.080 A 
ATOM     23  N   UNL     1     -10.143   5.258  69.784  0.00  0.00    -0.233 NA
ENDBRANCH   1  16
BRANCH   4  24
ATOM     24  N   UNL     1     -11.544  15.878  67.203  0.00  0.00    -0.175 NA
ATOM     25  C   UNL     1     -10.833  16.970  67.756  0.00  0.00    +0.269 C 
ATOM     26  O   UNL     1     -10.744  16.997  69.021  0.00  0.00    -0.268 OA
BRANCH  25  27
ATOM     27  C   UNL     1      -9.749  17.665  67.045  0.00  0.00    +0.055 A 
ATOM     28  C   UNL     1      -8.491  17.610  67.625  0.00  0.00    +0.004 A 
ATOM     29  C   UNL     1      -7.562  18.616  67.397  0.00  0.00    +0.000 A 
ATOM     30  C   UNL     1      -8.013  19.887  67.068  0.00  0.00    +0.000 A 
ATOM     31  C   UNL     1      -9.214  19.937  66.375  0.00  0.00    +0.000 A 
ATOM     32  C   UNL     1     -10.026  18.811  66.311  0.00  0.00    +0.005 A 
BRANCH  28  33
ATOM     33  C   UNL     1      -8.033  16.281  68.049  0.00  0.00    +0.000 A 
ATOM     34  C   UNL     1      -8.031  15.283  67.084  0.00  0.00    +0.000 A 
ATOM     35  C   UNL     1      -7.298  14.128  67.321  0.00  0.00    +0.000 A 
ATOM     36  C   UNL     1      -7.034  13.807  68.645  0.00  0.00    +0.000 A 
ATOM     37  C   UNL     1      -7.178  14.769  69.638  0.00  0.00    +0.000 A 
ATOM     38  C   UNL     1      -7.487  16.083  69.311  0.00  0.00    +0.000 A 
ENDBRANCH  28  33
ENDBRANCH  25  27
ENDBRANCH   4  24
TORSDOF 4
ENDMDL
MODEL 6
REMARK VINA RESULT:      -8.0      1.701      3.522
REMARK  Name = 
REMARK  4 active torsions:
REMARK  status: ('A' for Active; 'I' for Inactive)
REMARK    1  A    between atoms: C_14  and  C_16
REMARK    2  A    between atoms: C_19  and  N_20
REMARK    3  A    between atoms: C_21  and  C_23
REMARK    4  A    between atoms: C_28  and  C_29
REMARK                            x       y       z     vdW  Elec       q    Type
REMARK                         _______ _______ _______ _____ _____    ______ ____
ROOT
ATOM      1  C   UNL     1      -9.784  12.481  68.232  0.00  0.00    +0.054 A 
ATOM      2  C   UNL     1     -10.935  12.295  68.986  0.00  0.00    +0.006 A 
ATOM      3  C   UNL     1     -11.527  11.048  68.982  0.00  0.00    +0.017 A 
ATOM      4  C   UNL     1     -10.851   9.897  68.596  0.00  0.00    +0.074 A 
ATOM      5  C   UNL     1      -9.639  10.074  67.940  0.00  0.00    +0.017 A 
ATOM      6  C   UNL     1      -9.059  11.337  67.931  0.00  0.00    +0.006 A 
ENDROOT
BRANCH   1  16
ATOM      7  C   UNL     1      -7.914  20.469  65.776  0.00  0.00    +0.074 C 
ATOM      8  C   UNL     1      -8.940  19.577  66.403  0.00  0.00    +0.139 A 
ATOM      9  N   UNL     1      -9.729  18.684  65.758  0.00  0.00    -0.229 NA
ATOM     10  C   UNL     1     -10.115  17.711  66.620  0.00  0.00    +0.097 A 
ATOM     11  C   UNL     1     -10.448  16.339  66.215  0.00  0.00    +0.033 A 
ATOM     12  C   UNL     1     -10.316  15.187  66.982  0.00  0.00    +0.056 A 
ATOM     13  N   UNL     1      -9.660  15.013  68.243  0.00  0.00    -0.255 N 
ATOM     14  C   UNL     1      -8.958  16.050  68.956  0.00  0.00    +0.105 C 
ATOM     15  C   UNL     1      -9.758  17.312  69.124  0.00  0.00    +0.069 C 
ATOM     16  C   UNL     1      -9.039  13.730  68.383  0.00  0.00    +0.253 C 
ATOM     17  O   UNL     1      -7.845  13.609  68.790  0.00  0.00    -0.270 OA
ATOM     18  C   UNL     1     -10.698  14.011  66.393  0.00  0.00    +0.015 A 
ATOM     19  C   UNL     1     -11.498  14.039  65.257  0.00  0.00    +0.001 A 
ATOM     20  C   UNL     1     -11.598  15.207  64.511  0.00  0.00    +0.000 A 
ATOM     21  C   UNL     1     -10.804  16.289  64.875  0.00  0.00    +0.003 A 
ATOM     22  C   UNL     1      -9.679  18.126  67.872  0.00  0.00    +0.080 A 
ATOM     23  N   UNL     1      -9.025  19.298  67.727  0.00  0.00    -0.233 NA
ENDBRANCH   1  16
BRANCH   4  24
ATOM     24  N   UNL     1     -11.120   8.702  69.340  0.00  0.00    -0.175 NA
ATOM     25  C   UNL     1     -10.957   8.609  70.743  0.00  0.00    +0.269 C 
ATOM     26  O   UNL     1     -10.086   9.374  71.257  0.00  0.00    -0.268 OA
BRANCH  25  27
ATOM     27  C   UNL     1     -12.040   8.206  71.652  0.00  0.00    +0.055 A 
ATOM     28  C   UNL     1     -12.464   6.889  71.567  0.00  0.00    +0.004 A 
ATOM     29  C   UNL     1     -13.759   6.538  71.922  0.00  0.00    +0.000 A 
ATOM     30  C   UNL     1     -14.762   7.494  71.842  0.00  0.00    +0.000 A 
ATOM     31  C   UNL     1     -14.359   8.805  72.053  0.00  0.00    +0.000 A 
ATOM     32  C   UNL     1     -13.008   9.129  72.028  0.00  0.00    +0.005 A 
BRANCH  28  33
ATOM     33  C   UNL     1     -11.408   5.869  71.572  0.00  0.00    +0.000 A 
ATOM     34  C   UNL     1     -11.068   5.328  72.805  0.00  0.00    +0.000 A 
ATOM     35  C   UNL     1     -10.347   4.141  72.836  0.00  0.00    +0.000 A 
ATOM     36  C   UNL     1      -9.592   3.831  71.714  0.00  0.00    +0.000 A 
ATOM     37  C   UNL     1      -9.832   4.480  70.509  0.00  0.00    +0.000 A 
ATOM     38  C   UNL     1     -10.893   5.368  70.383  0.00  0.00    +0.000 A 
ENDBRANCH  28  33
ENDBRANCH  25  27
ENDBRANCH   4  24
TORSDOF 4
ENDMDL
MODEL 7
REMARK VINA RESULT:      -8.0      2.445      3.880
REMARK  Name = 
REMARK  4 active torsions:
REMARK  status: ('A' for Active; 'I' for Inactive)
REMARK    1  A    between atoms: C_14  and  C_16
REMARK    2  A    between atoms: C_19  and  N_20
REMARK    3  A    between atoms: C_21  and  C_23
REMARK    4  A    between atoms: C_28  and  C_29
REMARK                            x       y       z     vdW  Elec       q    Type
REMARK                         _______ _______ _______ _____ _____    ______ ____
ROOT
ATOM      1  C   UNL     1      -9.537   8.849  67.210  0.00  0.00    +0.054 A 
ATOM      2  C   UNL     1     -10.715   8.120  67.305  0.00  0.00    +0.006 A 
ATOM      3  C   UNL     1     -10.717   6.815  66.855  0.00  0.00    +0.017 A 
ATOM      4  C   UNL     1      -9.551   6.081  66.678  0.00  0.00    +0.074 A 
ATOM      5  C   UNL     1      -8.356   6.789  66.697  0.00  0.00    +0.017 A 
ATOM      6  C   UNL     1      -8.366   8.109  67.132  0.00  0.00    +0.006 A 
ENDROOT
BRANCH   1  16
ATOM      7  C   UNL     1     -10.035  17.395  66.996  0.00  0.00    +0.074 C 
ATOM      8  C   UNL     1     -10.800  16.111  66.921  0.00  0.00    +0.139 A 
ATOM      9  N   UNL     1     -10.838  15.259  65.866  0.00  0.00    -0.229 NA
ATOM     10  C   UNL     1     -11.143  14.011  66.299  0.00  0.00    +0.097 A 
ATOM     11  C   UNL     1     -10.721  12.779  65.619  0.00  0.00    +0.033 A 
ATOM     12  C   UNL     1     -10.491  11.540  66.203  0.00  0.00    +0.056 A 
ATOM     13  N   UNL     1     -10.411  11.198  67.592  0.00  0.00    -0.255 N 
ATOM     14  C   UNL     1     -10.527  12.136  68.678  0.00  0.00    +0.105 C 
ATOM     15  C   UNL     1     -11.741  13.019  68.583  0.00  0.00    +0.069 C 
ATOM     16  C   UNL     1      -9.465  10.156  67.861  0.00  0.00    +0.253 C 
ATOM     17  O   UNL     1      -8.605  10.261  68.786  0.00  0.00    -0.270 OA
ATOM     18  C   UNL     1     -10.109  10.527  65.364  0.00  0.00    +0.015 A 
ATOM     19  C   UNL     1     -10.304  10.659  63.994  0.00  0.00    +0.001 A 
ATOM     20  C   UNL     1     -10.523  11.916  63.445  0.00  0.00    +0.000 A 
ATOM     21  C   UNL     1     -10.436  13.023  64.282  0.00  0.00    +0.003 A 
ATOM     22  C   UNL     1     -11.466  14.149  67.643  0.00  0.00    +0.080 A 
ATOM     23  N   UNL     1     -11.316  15.447  67.984  0.00  0.00    -0.233 NA
ENDBRANCH   1  16
BRANCH   4  24
ATOM     24  N   UNL     1      -9.592   4.694  67.039  0.00  0.00    -0.175 NA
ATOM     25  C   UNL     1      -8.823   4.144  68.093  0.00  0.00    +0.269 C 
ATOM     26  O   UNL     1      -7.731   4.732  68.355  0.00  0.00    -0.268 OA
BRANCH  25  27
ATOM     27  C   UNL     1      -9.417   3.410  69.221  0.00  0.00    +0.055 A 
ATOM     28  C   UNL     1      -9.348   4.020  70.463  0.00  0.00    +0.004 A 
ATOM     29  C   UNL     1      -9.347   3.262  71.626  0.00  0.00    +0.000 A 
ATOM     30  C   UNL     1      -8.884   1.955  71.576  0.00  0.00    +0.000 A 
ATOM     31  C   UNL     1      -9.067   1.298  70.367  0.00  0.00    +0.000 A 
ATOM     32  C   UNL     1      -9.401   2.021  69.229  0.00  0.00    +0.005 A 
BRANCH  28  33
ATOM     33  C   UNL     1      -9.762   5.428  70.515  0.00  0.00    +0.000 A 
ATOM     34  C   UNL     1     -11.104   5.694  70.279  0.00  0.00    +0.000 A 
ATOM     35  C   UNL     1     -11.614   6.931  70.651  0.00  0.00    +0.000 A 
ATOM     36  C   UNL     1     -10.712   7.980  70.761  0.00  0.00    +0.000 A 
ATOM     37  C   UNL     1      -9.349   7.722  70.849  0.00  0.00    +0.000 A 
ATOM     38  C   UNL     1      -8.879   6.417  70.933  0.00  0.00    +0.000 A 
ENDBRANCH  28  33
ENDBRANCH  25  27
ENDBRANCH   4  24
TORSDOF 4
ENDMDL
MODEL 8
REMARK VINA RESULT:      -8.0      2.186      3.885
REMARK  Name = 
REMARK  4 active torsions:
REMARK  status: ('A' for Active; 'I' for Inactive)
REMARK    1  A    between atoms: C_14  and  C_16
REMARK    2  A    between atoms: C_19  and  N_20
REMARK    3  A    between atoms: C_21  and  C_23
REMARK    4  A    between atoms: C_28  and  C_29
REMARK                            x       y       z     vdW  Elec       q    Type
REMARK                         _______ _______ _______ _____ _____    ______ ____
ROOT
ATOM      1  C   UNL     1      -9.586   8.439  68.569  0.00  0.00    +0.054 A 
ATOM      2  C   UNL     1     -10.781   7.734  68.541  0.00  0.00    +0.006 A 
ATOM      3  C   UNL     1     -10.729   6.356  68.494  0.00  0.00    +0.017 A 
ATOM      4  C   UNL     1      -9.598   5.635  68.856  0.00  0.00    +0.074 A 
ATOM      5  C   UNL     1      -8.418   6.353  69.000  0.00  0.00    +0.017 A 
ATOM      6  C   UNL     1      -8.476   7.741  69.026  0.00  0.00    +0.006 A 
ENDROOT
BRANCH   1  16
ATOM      7  C   UNL     1      -9.777  16.547  65.820  0.00  0.00    +0.074 C 
ATOM      8  C   UNL     1     -10.542  15.267  65.945  0.00  0.00    +0.139 A 
ATOM      9  N   UNL     1     -10.366  14.150  65.197  0.00  0.00    -0.229 NA
ATOM     10  C   UNL     1     -10.796  13.066  65.888  0.00  0.00    +0.097 A 
ATOM     11  C   UNL     1     -10.268  11.708  65.700  0.00  0.00    +0.033 A 
ATOM     12  C   UNL     1     -10.211  10.695  66.649  0.00  0.00    +0.056 A 
ATOM     13  N   UNL     1     -10.455  10.766  68.059  0.00  0.00    -0.255 N 
ATOM     14  C   UNL     1     -10.786  11.969  68.778  0.00  0.00    +0.105 C 
ATOM     15  C   UNL     1     -11.921  12.742  68.166  0.00  0.00    +0.069 C 
ATOM     16  C   UNL     1      -9.624   9.879  68.819  0.00  0.00    +0.253 C 
ATOM     17  O   UNL     1      -8.992  10.275  69.843  0.00  0.00    -0.270 OA
ATOM     18  C   UNL     1      -9.679   9.501  66.241  0.00  0.00    +0.015 A 
ATOM     19  C   UNL     1      -9.557   9.230  64.884  0.00  0.00    +0.001 A 
ATOM     20  C   UNL     1      -9.611  10.271  63.964  0.00  0.00    +0.000 A 
ATOM     21  C   UNL     1      -9.683  11.572  64.449  0.00  0.00    +0.003 A 
ATOM     22  C   UNL     1     -11.409  13.568  67.029  0.00  0.00    +0.080 A 
ATOM     23  N   UNL     1     -11.303  14.914  67.010  0.00  0.00    -0.233 NA
ENDBRANCH   1  16
BRANCH   4  24
ATOM     24  N   UNL     1      -9.807   4.409  69.568  0.00  0.00    -0.175 NA
ATOM     25  C   UNL     1      -9.303   4.172  70.870  0.00  0.00    +0.269 C 
ATOM     26  O   UNL     1      -8.246   4.799  71.183  0.00  0.00    -0.268 OA
BRANCH  25  27
ATOM     27  C   UNL     1     -10.158   3.794  72.005  0.00  0.00    +0.055 A 
ATOM     28  C   UNL     1     -10.325   4.746  72.999  0.00  0.00    +0.004 A 
ATOM     29  C   UNL     1     -10.609   4.364  74.303  0.00  0.00    +0.000 A 
ATOM     30  C   UNL     1     -10.211   3.109  74.740  0.00  0.00    +0.000 A 
ATOM     31  C   UNL     1     -10.164   2.122  73.765  0.00  0.00    +0.000 A 
ATOM     32  C   UNL     1     -10.212   2.470  72.421  0.00  0.00    +0.005 A 
BRANCH  28  33
ATOM     33  C   UNL     1     -10.671   6.099  72.546  0.00  0.00    +0.000 A 
ATOM     34  C   UNL     1     -11.911   6.257  71.939  0.00  0.00    +0.000 A 
ATOM     35  C   UNL     1     -12.431   7.538  71.811  0.00  0.00    +0.000 A 
ATOM     36  C   UNL     1     -11.527   8.591  71.819  0.00  0.00    +0.000 A 
ATOM     37  C   UNL     1     -10.235   8.398  72.291  0.00  0.00    +0.000 A 
ATOM     38  C   UNL     1      -9.860   7.184  72.853  0.00  0.00    +0.000 A 
ENDBRANCH  28  33
ENDBRANCH  25  27
ENDBRANCH   4  24
TORSDOF 4
ENDMDL
MODEL 9
REMARK VINA RESULT:      -7.9      2.018      2.704
REMARK  Name = 
REMARK  4 active torsions:
REMARK  status: ('A' for Active; 'I' for Inactive)
REMARK    1  A    between atoms: C_14  and  C_16
REMARK    2  A    between atoms: C_19  and  N_20
REMARK    3  A    between atoms: C_21  and  C_23
REMARK    4  A    between atoms: C_28  and  C_29
REMARK                            x       y       z     vdW  Elec       q    Type
REMARK                         _______ _______ _______ _____ _____    ______ ____
ROOT
ATOM      1  C   UNL     1      -9.472  10.832  66.975  0.00  0.00    +0.054 A 
ATOM      2  C   UNL     1     -10.102  10.112  67.981  0.00  0.00    +0.006 A 
ATOM      3  C   UNL     1     -10.541   8.834  67.697  0.00  0.00    +0.017 A 
ATOM      4  C   UNL     1     -10.060   8.098  66.622  0.00  0.00    +0.074 A 
ATOM      5  C   UNL     1      -9.327   8.790  65.667  0.00  0.00    +0.017 A 
ATOM      6  C   UNL     1      -8.907  10.084  65.952  0.00  0.00    +0.006 A 
ENDROOT
BRANCH   1  16
ATOM      7  C   UNL     1      -8.765  19.335  66.258  0.00  0.00    +0.074 C 
ATOM      8  C   UNL     1      -9.589  18.205  66.789  0.00  0.00    +0.139 A 
ATOM      9  N   UNL     1     -10.388  17.383  66.064  0.00  0.00    -0.229 NA
ATOM     10  C   UNL     1     -10.538  16.203  66.715  0.00  0.00    +0.097 A 
ATOM     11  C   UNL     1     -10.804  14.923  66.045  0.00  0.00    +0.033 A 
ATOM     12  C   UNL     1     -10.445  13.657  66.490  0.00  0.00    +0.056 A 
ATOM     13  N   UNL     1      -9.580  13.293  67.572  0.00  0.00    -0.255 N 
ATOM     14  C   UNL     1      -8.869  14.227  68.407  0.00  0.00    +0.105 C 
ATOM     15  C   UNL     1      -9.743  15.309  68.979  0.00  0.00    +0.069 C 
ATOM     16  C   UNL     1      -8.830  12.100  67.316  0.00  0.00    +0.253 C 
ATOM     17  O   UNL     1      -7.579  12.045  67.515  0.00  0.00    -0.270 OA
ATOM     18  C   UNL     1     -10.808  12.602  65.696  0.00  0.00    +0.015 A 
ATOM     19  C   UNL     1     -11.781  12.778  64.720  0.00  0.00    +0.001 A 
ATOM     20  C   UNL     1     -12.108  14.060  64.293  0.00  0.00    +0.000 A 
ATOM     21  C   UNL     1     -11.368  15.126  64.792  0.00  0.00    +0.003 A 
ATOM     22  C   UNL     1      -9.944  16.383  67.958  0.00  0.00    +0.080 A 
ATOM     23  N   UNL     1      -9.433  17.631  68.007  0.00  0.00    -0.233 NA
ENDBRANCH   1  16
BRANCH   4  24
ATOM     24  N   UNL     1      -9.859   6.694  66.831  0.00  0.00    -0.175 NA
ATOM     25  C   UNL     1      -9.163   6.167  67.946  0.00  0.00    +0.269 C 
ATOM     26  O   UNL     1      -8.275   6.916  68.456  0.00  0.00    -0.268 OA
BRANCH  25  27
ATOM     27  C   UNL     1      -9.753   5.188  68.871  0.00  0.00    +0.055 A 
ATOM     28  C   UNL     1      -9.702   5.501  70.220  0.00  0.00    +0.004 A 
ATOM     29  C   UNL     1      -9.697   4.497  71.180  0.00  0.00    +0.000 A 
ATOM     30  C   UNL     1      -9.214   3.242  70.839  0.00  0.00    +0.000 A 
ATOM     31  C   UNL     1      -9.379   2.876  69.511  0.00  0.00    +0.000 A 
ATOM     32  C   UNL     1      -9.716   3.834  68.563  0.00  0.00    +0.005 A 
BRANCH  28  33
ATOM     33  C   UNL     1     -10.137   6.854  70.587  0.00  0.00    +0.000 A 
ATOM     34  C   UNL     1     -11.496   7.123  70.486  0.00  0.00    +0.000 A 
ATOM     35  C   UNL     1     -12.005   8.240  71.135  0.00  0.00    +0.000 A 
ATOM     36  C   UNL     1     -11.117   9.270  71.410  0.00  0.00    +0.000 A 
ATOM     37  C   UNL     1      -9.747   9.041  71.368  0.00  0.00    +0.000 A 
ATOM     38  C   UNL     1      -9.249   7.761  71.152  0.00  0.00    +0.000 A 
ENDBRANCH  28  33
ENDBRANCH  25  27
ENDBRANCH   4  24
TORSDOF 4
ENDMDL
