MODEL 1
REMARK VINA RESULT:      -4.8      0.000      0.000
REMARK  Name = 
REMARK  3 active torsions:
REMARK  status: ('A' for Active; 'I' for Inactive)
REMARK    1  A    between atoms: C_2  and  O_4
REMARK    2  A    between atoms: O_4  and  C_5
REMARK    3  A    between atoms: C_5  and  C_7
REMARK                            x       y       z     vdW  Elec       q    Type
REMARK                         _______ _______ _______ _____ _____    ______ ____
ROOT
ATOM      1  C   UNL     1     -12.486  14.805  72.149  0.00  0.00    +0.378 C 
ATOM      2  F   UNL     1     -13.571  15.573  71.341  0.00  0.00    -0.194 F 
ENDROOT
BRANCH   1   3
ATOM      3  C   UNL     1     -12.667  15.860  73.473  0.00  0.00    +0.456 C 
ATOM      4  F   UNL     1     -13.938  16.279  73.407  0.00  0.00    -0.165 F 
ATOM      5  F   UNL     1     -12.284  15.115  74.528  0.00  0.00    -0.165 F 
ATOM      6  F   UNL     1     -11.821  16.843  73.075  0.00  0.00    -0.165 F 
ENDBRANCH   1   3
BRANCH   1   7
ATOM      7  O   UNL     1     -13.551  13.797  72.715  0.00  0.00    -0.264 OA
BRANCH   7   9
ATOM      8  F   UNL     1     -13.354  11.609  72.369  0.00  0.00    -0.166 F 
ATOM      9  C   UNL     1     -13.388  12.747  71.824  0.00  0.00    +0.452 C 
ATOM     10  F   UNL     1     -12.279  12.943  71.031  0.00  0.00    -0.166 F 
ENDBRANCH   7   9
ENDBRANCH   1   7
TORSDOF 3
ENDMDL
MODEL 2
REMARK VINA RESULT:      -4.7      1.803      3.699
REMARK  Name = 
REMARK  3 active torsions:
REMARK  status: ('A' for Active; 'I' for Inactive)
REMARK    1  A    between atoms: C_2  and  O_4
REMARK    2  A    between atoms: O_4  and  C_5
REMARK    3  A    between atoms: C_5  and  C_7
REMARK                            x       y       z     vdW  Elec       q    Type
REMARK                         _______ _______ _______ _____ _____    ______ ____
ROOT
ATOM      1  C   UNL     1     -12.806  15.901  72.165  0.00  0.00    +0.378 C 
ATOM      2  F   UNL     1     -11.856  14.813  72.742  0.00  0.00    -0.194 F 
ENDROOT
BRANCH   1   3
ATOM      3  C   UNL     1     -13.931  14.719  71.679  0.00  0.00    +0.456 C 
ATOM      4  F   UNL     1     -13.922  13.811  72.663  0.00  0.00    -0.165 F 
ATOM      5  F   UNL     1     -15.057  15.424  71.459  0.00  0.00    -0.165 F 
ATOM      6  F   UNL     1     -13.279  14.245  70.588  0.00  0.00    -0.165 F 
ENDBRANCH   1   3
BRANCH   1   7
ATOM      7  O   UNL     1     -13.506  16.098  73.558  0.00  0.00    -0.264 OA
BRANCH   7   9
ATOM      8  F   UNL     1     -12.548  15.649  75.514  0.00  0.00    -0.166 F 
ATOM      9  C   UNL     1     -12.393  16.182  74.380  0.00  0.00    +0.452 C 
ATOM     10  F   UNL     1     -11.972  17.487  74.505  0.00  0.00    -0.166 F 
ENDBRANCH   7   9
ENDBRANCH   1   7
TORSDOF 3
ENDMDL
MODEL 3
REMARK VINA RESULT:      -4.6      1.755      2.759
REMARK  Name = 
REMARK  3 active torsions:
REMARK  status: ('A' for Active; 'I' for Inactive)
REMARK    1  A    between atoms: C_2  and  O_4
REMARK    2  A    between atoms: O_4  and  C_5
REMARK    3  A    between atoms: C_5  and  C_7
REMARK                            x       y       z     vdW  Elec       q    Type
REMARK                         _______ _______ _______ _____ _____    ______ ____
ROOT
ATOM      1  C   UNL     1     -11.832  15.473  72.223  0.00  0.00    +0.378 C 
ATOM      2  F   UNL     1     -11.735  16.932  72.752  0.00  0.00    -0.194 F 
ENDROOT
BRANCH   1   3
ATOM      3  C   UNL     1     -13.084  15.115  73.319  0.00  0.00    +0.456 C 
ATOM      4  F   UNL     1     -13.898  16.177  73.270  0.00  0.00    -0.165 F 
ATOM      5  F   UNL     1     -13.547  13.924  72.894  0.00  0.00    -0.165 F 
ATOM      6  F   UNL     1     -12.363  15.119  74.469  0.00  0.00    -0.165 F 
ENDBRANCH   1   3
BRANCH   1   7
ATOM      7  O   UNL     1     -12.842  15.897  71.095  0.00  0.00    -0.264 OA
BRANCH   7   9
ATOM      8  F   UNL     1     -12.229  16.162  68.974  0.00  0.00    -0.166 F 
ATOM      9  C   UNL     1     -12.184  15.400  69.981  0.00  0.00    +0.452 C 
ATOM     10  F   UNL     1     -12.639  14.140  69.663  0.00  0.00    -0.166 F 
ENDBRANCH   7   9
ENDBRANCH   1   7
TORSDOF 3
ENDMDL
MODEL 4
REMARK VINA RESULT:      -4.4      1.658      2.427
REMARK  Name = 
REMARK  3 active torsions:
REMARK  status: ('A' for Active; 'I' for Inactive)
REMARK    1  A    between atoms: C_2  and  O_4
REMARK    2  A    between atoms: O_4  and  C_5
REMARK    3  A    between atoms: C_5  and  C_7
REMARK                            x       y       z     vdW  Elec       q    Type
REMARK                         _______ _______ _______ _____ _____    ______ ____
ROOT
ATOM      1  C   UNL     1     -13.957  13.656  72.351  0.00  0.00    +0.378 C 
ATOM      2  F   UNL     1     -12.894  14.261  73.313  0.00  0.00    -0.194 F 
ENDROOT
BRANCH   1   3
ATOM      3  C   UNL     1     -14.336  15.197  71.734  0.00  0.00    +0.456 C 
ATOM      4  F   UNL     1     -14.434  15.984  72.813  0.00  0.00    -0.165 F 
ATOM      5  F   UNL     1     -13.352  15.435  70.846  0.00  0.00    -0.165 F 
ATOM      6  F   UNL     1     -15.566  14.924  71.230  0.00  0.00    -0.165 F 
ENDBRANCH   1   3
BRANCH   1   7
ATOM      7  O   UNL     1     -12.875  13.398  71.240  0.00  0.00    -0.264 OA
BRANCH   7   9
ATOM      8  F   UNL     1     -13.244  11.457  72.261  0.00  0.00    -0.166 F 
ATOM      9  C   UNL     1     -12.920  12.014  71.175  0.00  0.00    +0.452 C 
ATOM     10  F   UNL     1     -11.731  11.506  70.699  0.00  0.00    -0.166 F 
ENDBRANCH   7   9
ENDBRANCH   1   7
TORSDOF 3
ENDMDL
MODEL 5
REMARK VINA RESULT:      -4.4      1.554      3.504
REMARK  Name = 
REMARK  3 active torsions:
REMARK  status: ('A' for Active; 'I' for Inactive)
REMARK    1  A    between atoms: C_2  and  O_4
REMARK    2  A    between atoms: O_4  and  C_5
REMARK    3  A    between atoms: C_5  and  C_7
REMARK                            x       y       z     vdW  Elec       q    Type
REMARK                         _______ _______ _______ _____ _____    ______ ____
ROOT
ATOM      1  C   UNL     1     -13.204  14.310  72.682  0.00  0.00    +0.378 C 
ATOM      2  F   UNL     1     -14.642  14.141  72.117  0.00  0.00    -0.194 F 
ENDROOT
BRANCH   1   3
ATOM      3  C   UNL     1     -12.586  14.631  71.129  0.00  0.00    +0.456 C 
ATOM      4  F   UNL     1     -12.660  13.461  70.481  0.00  0.00    -0.165 F 
ATOM      5  F   UNL     1     -13.337  15.660  70.694  0.00  0.00    -0.165 F 
ATOM      6  F   UNL     1     -11.301  14.908  71.467  0.00  0.00    -0.165 F 
ENDBRANCH   1   3
BRANCH   1   7
ATOM      7  O   UNL     1     -13.447  15.835  72.979  0.00  0.00    -0.264 OA
BRANCH   7   9
ATOM      8  F   UNL     1     -12.043  16.990  74.259  0.00  0.00    -0.166 F 
ATOM      9  C   UNL     1     -12.768  15.960  74.181  0.00  0.00    +0.452 C 
ATOM     10  F   UNL     1     -12.037  14.824  74.453  0.00  0.00    -0.166 F 
ENDBRANCH   7   9
ENDBRANCH   1   7
TORSDOF 3
ENDMDL
MODEL 6
REMARK VINA RESULT:      -4.2      2.334      3.422
REMARK  Name = 
REMARK  3 active torsions:
REMARK  status: ('A' for Active; 'I' for Inactive)
REMARK    1  A    between atoms: C_2  and  O_4
REMARK    2  A    between atoms: O_4  and  C_5
REMARK    3  A    between atoms: C_5  and  C_7
REMARK                            x       y       z     vdW  Elec       q    Type
REMARK                         _______ _______ _______ _____ _____    ______ ____
ROOT
ATOM      1  C   UNL     1     -13.060  14.455  70.915  0.00  0.00    +0.378 C 
ATOM      2  F   UNL     1     -12.048  14.554  72.092  0.00  0.00    -0.194 F 
ENDROOT
BRANCH   1   3
ATOM      3  C   UNL     1     -14.369  14.760  71.960  0.00  0.00    +0.456 C 
ATOM      4  F   UNL     1     -13.906  15.660  72.837  0.00  0.00    -0.165 F 
ATOM      5  F   UNL     1     -15.364  15.120  71.127  0.00  0.00    -0.165 F 
ATOM      6  F   UNL     1     -14.464  13.536  72.538  0.00  0.00    -0.165 F 
ENDBRANCH   1   3
BRANCH   1   7
ATOM      7  O   UNL     1     -12.885  15.979  70.572  0.00  0.00    -0.264 OA
BRANCH   7   9
ATOM      8  F   UNL     1     -11.877  14.779  68.995  0.00  0.00    -0.166 F 
ATOM      9  C   UNL     1     -11.919  15.896  69.581  0.00  0.00    +0.452 C 
ATOM     10  F   UNL     1     -10.680  16.239  70.073  0.00  0.00    -0.166 F 
ENDBRANCH   7   9
ENDBRANCH   1   7
TORSDOF 3
ENDMDL
MODEL 7
REMARK VINA RESULT:      -4.2      1.464      1.966
REMARK  Name = 
REMARK  3 active torsions:
REMARK  status: ('A' for Active; 'I' for Inactive)
REMARK    1  A    between atoms: C_2  and  O_4
REMARK    2  A    between atoms: O_4  and  C_5
REMARK    3  A    between atoms: C_5  and  C_7
REMARK                            x       y       z     vdW  Elec       q    Type
REMARK                         _______ _______ _______ _____ _____    ______ ____
ROOT
ATOM      1  C   UNL     1     -13.279  15.323  71.292  0.00  0.00    +0.378 C 
ATOM      2  F   UNL     1     -14.145  14.098  71.701  0.00  0.00    -0.194 F 
ENDROOT
BRANCH   1   3
ATOM      3  C   UNL     1     -13.064  15.767  72.922  0.00  0.00    +0.456 C 
ATOM      4  F   UNL     1     -12.948  14.607  73.581  0.00  0.00    -0.165 F 
ATOM      5  F   UNL     1     -12.007  16.600  72.887  0.00  0.00    -0.165 F 
ATOM      6  F   UNL     1     -14.279  16.325  73.149  0.00  0.00    -0.165 F 
ENDBRANCH   1   3
BRANCH   1   7
ATOM      7  O   UNL     1     -11.969  14.455  71.280  0.00  0.00    -0.264 OA
BRANCH   7   9
ATOM      8  F   UNL     1     -11.950  12.317  70.668  0.00  0.00    -0.166 F 
ATOM      9  C   UNL     1     -12.330  13.482  70.362  0.00  0.00    +0.452 C 
ATOM     10  F   UNL     1     -11.906  13.820  69.096  0.00  0.00    -0.166 F 
ENDBRANCH   7   9
ENDBRANCH   1   7
TORSDOF 3
ENDMDL
MODEL 8
REMARK VINA RESULT:      -4.2      2.237      3.144
REMARK  Name = 
REMARK  3 active torsions:
REMARK  status: ('A' for Active; 'I' for Inactive)
REMARK    1  A    between atoms: C_2  and  O_4
REMARK    2  A    between atoms: O_4  and  C_5
REMARK    3  A    between atoms: C_5  and  C_7
REMARK                            x       y       z     vdW  Elec       q    Type
REMARK                         _______ _______ _______ _____ _____    ______ ____
ROOT
ATOM      1  C   UNL     1     -12.635  14.659  71.371  0.00  0.00    +0.378 C 
ATOM      2  F   UNL     1     -12.677  13.937  69.994  0.00  0.00    -0.194 F 
ENDROOT
BRANCH   1   3
ATOM      3  C   UNL     1     -11.570  15.841  70.766  0.00  0.00    +0.456 C 
ATOM      4  F   UNL     1     -10.380  15.230  70.701  0.00  0.00    -0.165 F 
ATOM      5  F   UNL     1     -12.156  16.240  69.621  0.00  0.00    -0.165 F 
ATOM      6  F   UNL     1     -11.604  16.707  71.809  0.00  0.00    -0.165 F 
ENDBRANCH   1   3
BRANCH   1   7
ATOM      7  O   UNL     1     -13.904  15.516  71.016  0.00  0.00    -0.264 OA
BRANCH   7   9
ATOM      8  F   UNL     1     -14.487  13.763  72.252  0.00  0.00    -0.166 F 
ATOM      9  C   UNL     1     -14.852  14.886  71.805  0.00  0.00    +0.452 C 
ATOM     10  F   UNL     1     -16.054  14.781  71.141  0.00  0.00    -0.166 F 
ENDBRANCH   7   9
ENDBRANCH   1   7
TORSDOF 3
ENDMDL
MODEL 9
REMARK VINA RESULT:      -4.1      1.646      3.045
REMARK  Name = 
REMARK  3 active torsions:
REMARK  status: ('A' for Active; 'I' for Inactive)
REMARK    1  A    between atoms: C_2  and  O_4
REMARK    2  A    between atoms: O_4  and  C_5
REMARK    3  A    between atoms: C_5  and  C_7
REMARK                            x       y       z     vdW  Elec       q    Type
REMARK                         _______ _______ _______ _____ _____    ______ ____
ROOT
ATOM      1  C   UNL     1     -13.122  15.455  71.231  0.00  0.00    +0.378 C 
ATOM      2  F   UNL     1     -13.255  14.290  70.210  0.00  0.00    -0.194 F 
ENDROOT
BRANCH   1   3
ATOM      3  C   UNL     1     -14.671  15.135  71.862  0.00  0.00    +0.456 C 
ATOM      4  F   UNL     1     -15.514  15.408  70.858  0.00  0.00    -0.165 F 
ATOM      5  F   UNL     1     -14.578  13.866  72.303  0.00  0.00    -0.165 F 
ATOM      6  F   UNL     1     -14.720  16.111  72.803  0.00  0.00    -0.165 F 
ENDBRANCH   1   3
BRANCH   1   7
ATOM      7  O   UNL     1     -12.421  14.520  72.282  0.00  0.00    -0.264 OA
BRANCH   7   9
ATOM      8  F   UNL     1     -12.080  15.536  74.230  0.00  0.00    -0.166 F 
ATOM      9  C   UNL     1     -11.724  15.463  73.021  0.00  0.00    +0.452 C 
ATOM     10  F   UNL     1     -11.782  16.700  72.418  0.00  0.00    -0.166 F 
ENDBRANCH   7   9
ENDBRANCH   1   7
TORSDOF 3
ENDMDL
