MODEL 1
REMARK VINA RESULT:      -7.0      0.000      0.000
REMARK  Name = 
REMARK  0 active torsions:
REMARK  status: ('A' for Active; 'I' for Inactive)
REMARK                            x       y       z     vdW  Elec       q    Type
REMARK                         _______ _______ _______ _____ _____    ______ ____
ROOT
ATOM      1  C   UNL     1     -10.967  12.553  63.867  0.00  0.00    +0.090 C 
ATOM      2  N   UNL     1     -11.484  12.462  64.792  0.00  0.00    -0.270 NA
ATOM      3  C   UNL     1     -10.484  12.040  65.938  0.00  0.00    +0.090 C 
ATOM      4  C   UNL     1     -10.162  13.597  66.345  0.00  0.00    +0.148 C 
ATOM      5  C   UNL     1     -11.298  14.190  66.966  0.00  0.00    +0.094 C 
ATOM      6  C   UNL     1     -10.819  15.678  67.459  0.00  0.00    +0.228 C 
ATOM      7  O   UNL     1     -11.866  15.738  68.607  0.00  0.00    -0.468 OA
ATOM      8  C   UNL     1     -11.695  14.522  69.249  0.00  0.00    +0.173 A 
ATOM      9  C   UNL     1     -12.361  13.971  70.338  0.00  0.00    +0.229 A 
ATOM     10  C   UNL     1     -12.177  12.603  70.537  0.00  0.00    +0.045 A 
ATOM     11  C   UNL     1     -11.679  11.775  69.531  0.00  0.00    -0.001 A 
ATOM     12  C   UNL     1     -11.208  12.298  68.329  0.00  0.00    -0.021 A 
ATOM     13  O   UNL     1     -13.461  14.635  70.897  0.00  0.00    -0.283 OA
ATOM     14  C   UNL     1      -9.641  15.140  68.452  0.00  0.00    +0.191 C 
ATOM     15  O   UNL     1      -9.402  16.044  69.255  0.00  0.00    -0.292 OA
ATOM     16  C   UNL     1      -8.434  14.672  67.683  0.00  0.00    +0.071 C 
ATOM     17  C   UNL     1     -11.421  13.658  68.267  0.00  0.00    +0.017 A 
ATOM     18  C   UNL     1     -12.457  14.333  66.088  0.00  0.00    +0.028 C 
ATOM     19  C   UNL     1      -8.905  13.362  67.102  0.00  0.00    +0.040 C 
ATOM     20  O   UNL     1      -9.815  14.215  65.139  0.00  0.00    -0.224 OA
ATOM     21  C   UNL     1     -11.672  11.710  67.022  0.00  0.00    +0.045 C 
ATOM     22  C   UNL     1     -12.612  13.045  65.355  0.00  0.00    +0.073 C 
ENDROOT
TORSDOF 0
ENDMDL
MODEL 2
REMARK VINA RESULT:      -6.5      2.308      4.425
REMARK  Name = 
REMARK  0 active torsions:
REMARK  status: ('A' for Active; 'I' for Inactive)
REMARK                            x       y       z     vdW  Elec       q    Type
REMARK                         _______ _______ _______ _____ _____    ______ ____
ROOT
ATOM      1  C   UNL     1     -11.358  10.902  69.720  0.00  0.00    +0.090 C 
ATOM      2  N   UNL     1     -11.056  11.877  69.422  0.00  0.00    -0.270 NA
ATOM      3  C   UNL     1      -9.814  11.790  68.452  0.00  0.00    +0.090 C 
ATOM      4  C   UNL     1     -10.758  11.742  67.111  0.00  0.00    +0.148 C 
ATOM      5  C   UNL     1     -11.378  13.006  66.899  0.00  0.00    +0.094 C 
ATOM      6  C   UNL     1     -12.169  12.888  65.467  0.00  0.00    +0.228 C 
ATOM      7  O   UNL     1     -12.085  14.414  65.187  0.00  0.00    -0.468 OA
ATOM      8  C   UNL     1     -10.747  14.700  65.411  0.00  0.00    +0.173 A 
ATOM      9  C   UNL     1     -10.055  15.904  65.349  0.00  0.00    +0.229 A 
ATOM     10  C   UNL     1      -8.794  15.914  65.944  0.00  0.00    +0.045 A 
ATOM     11  C   UNL     1      -8.402  14.929  66.850  0.00  0.00    -0.001 A 
ATOM     12  C   UNL     1      -9.197  13.811  67.094  0.00  0.00    -0.021 A 
ATOM     13  O   UNL     1     -10.748  17.100  65.118  0.00  0.00    -0.283 OA
ATOM     14  C   UNL     1     -10.836  12.569  64.581  0.00  0.00    +0.191 C 
ATOM     15  O   UNL     1     -11.104  12.844  63.410  0.00  0.00    -0.292 OA
ATOM     16  C   UNL     1     -10.357  11.155  64.781  0.00  0.00    +0.071 C 
ATOM     17  C   UNL     1     -10.399  13.908  66.429  0.00  0.00    +0.017 A 
ATOM     18  C   UNL     1     -12.333  13.389  67.936  0.00  0.00    +0.028 C 
ATOM     19  C   UNL     1      -9.747  11.210  66.159  0.00  0.00    +0.040 C 
ATOM     20  O   UNL     1     -11.677  10.718  67.361  0.00  0.00    -0.224 OA
ATOM     21  C   UNL     1      -9.498  13.401  68.513  0.00  0.00    +0.045 C 
ATOM     22  C   UNL     1     -11.692  13.100  69.249  0.00  0.00    +0.073 C 
ENDROOT
TORSDOF 0
ENDMDL
MODEL 3
REMARK VINA RESULT:      -6.5      2.326      4.073
REMARK  Name = 
REMARK  0 active torsions:
REMARK  status: ('A' for Active; 'I' for Inactive)
REMARK                            x       y       z     vdW  Elec       q    Type
REMARK                         _______ _______ _______ _____ _____    ______ ____
ROOT
ATOM      1  C   UNL     1     -10.414  17.178  68.059  0.00  0.00    +0.090 C 
ATOM      2  N   UNL     1     -10.399  16.313  68.677  0.00  0.00    -0.270 NA
ATOM      3  C   UNL     1     -11.705  15.456  68.448  0.00  0.00    +0.090 C 
ATOM      4  C   UNL     1     -11.005  14.551  67.273  0.00  0.00    +0.148 C 
ATOM      5  C   UNL     1     -10.021  13.688  67.834  0.00  0.00    +0.094 C 
ATOM      6  C   UNL     1      -9.499  12.736  66.605  0.00  0.00    +0.228 C 
ATOM      7  O   UNL     1      -9.090  11.574  67.554  0.00  0.00    -0.468 OA
ATOM      8  C   UNL     1     -10.212  11.412  68.352  0.00  0.00    +0.173 A 
ATOM      9  C   UNL     1     -10.453  10.546  69.412  0.00  0.00    +0.229 A 
ATOM     10  C   UNL     1     -11.551  10.853  70.213  0.00  0.00    +0.045 A 
ATOM     11  C   UNL     1     -12.143  12.115  70.197  0.00  0.00    -0.001 A 
ATOM     12  C   UNL     1     -11.755  13.085  69.275  0.00  0.00    -0.021 A 
ATOM     13  O   UNL     1      -9.426   9.718  69.888  0.00  0.00    -0.283 OA
ATOM     14  C   UNL     1     -10.959  12.075  66.293  0.00  0.00    +0.191 C 
ATOM     15  O   UNL     1     -10.757  11.022  65.683  0.00  0.00    -0.292 OA
ATOM     16  C   UNL     1     -11.863  13.036  65.568  0.00  0.00    +0.071 C 
ATOM     17  C   UNL     1     -10.682  12.651  68.527  0.00  0.00    +0.017 A 
ATOM     18  C   UNL     1      -8.873  14.382  68.414  0.00  0.00    +0.028 C 
ATOM     19  C   UNL     1     -12.245  14.007  66.657  0.00  0.00    +0.040 C 
ATOM     20  O   UNL     1     -10.468  15.483  66.378  0.00  0.00    -0.224 OA
ATOM     21  C   UNL     1     -11.441  14.482  69.744  0.00  0.00    +0.045 C 
ATOM     22  C   UNL     1      -9.409  15.508  69.228  0.00  0.00    +0.073 C 
ENDROOT
TORSDOF 0
ENDMDL
MODEL 4
REMARK VINA RESULT:      -6.4      2.030      3.982
REMARK  Name = 
REMARK  0 active torsions:
REMARK  status: ('A' for Active; 'I' for Inactive)
REMARK                            x       y       z     vdW  Elec       q    Type
REMARK                         _______ _______ _______ _____ _____    ______ ____
ROOT
ATOM      1  C   UNL     1      -8.680   9.329  67.702  0.00  0.00    +0.090 C 
ATOM      2  N   UNL     1      -8.993  10.007  66.946  0.00  0.00    -0.270 NA
ATOM      3  C   UNL     1     -10.553  10.234  67.027  0.00  0.00    +0.090 C 
ATOM      4  C   UNL     1     -10.398  11.523  68.030  0.00  0.00    +0.148 C 
ATOM      5  C   UNL     1      -9.842  12.630  67.328  0.00  0.00    +0.094 C 
ATOM      6  C   UNL     1      -9.870  13.891  68.375  0.00  0.00    +0.228 C 
ATOM      7  O   UNL     1      -9.931  14.954  67.242  0.00  0.00    -0.468 OA
ATOM      8  C   UNL     1     -10.952  14.485  66.429  0.00  0.00    +0.173 A 
ATOM      9  C   UNL     1     -11.464  14.986  65.238  0.00  0.00    +0.229 A 
ATOM     10  C   UNL     1     -12.263  14.111  64.502  0.00  0.00    +0.045 A 
ATOM     11  C   UNL     1     -12.255  12.736  64.735  0.00  0.00    -0.001 A 
ATOM     12  C   UNL     1     -11.556  12.188  65.808  0.00  0.00    -0.021 A 
ATOM     13  O   UNL     1     -10.860  16.093  64.625  0.00  0.00    -0.283 OA
ATOM     14  C   UNL     1     -11.490  13.891  68.572  0.00  0.00    +0.191 C 
ATOM     15  O   UNL     1     -11.805  15.006  68.994  0.00  0.00    -0.292 OA
ATOM     16  C   UNL     1     -11.945  12.756  69.452  0.00  0.00    +0.071 C 
ATOM     17  C   UNL     1     -10.831  13.155  66.469  0.00  0.00    +0.017 A 
ATOM     18  C   UNL     1      -8.468  12.425  66.873  0.00  0.00    +0.028 C 
ATOM     19  C   UNL     1     -11.792  11.560  68.545  0.00  0.00    +0.040 C 
ATOM     20  O   UNL     1      -9.579  11.069  69.069  0.00  0.00    -0.224 OA
ATOM     21  C   UNL     1     -10.639  11.013  65.584  0.00  0.00    +0.045 C 
ATOM     22  C   UNL     1      -8.408  11.067  66.264  0.00  0.00    +0.073 C 
ENDROOT
TORSDOF 0
ENDMDL
MODEL 5
REMARK VINA RESULT:      -6.4      5.070      6.663
REMARK  Name = 
REMARK  0 active torsions:
REMARK  status: ('A' for Active; 'I' for Inactive)
REMARK                            x       y       z     vdW  Elec       q    Type
REMARK                         _______ _______ _______ _____ _____    ______ ____
ROOT
ATOM      1  C   UNL     1     -10.362  17.961  66.203  0.00  0.00    +0.090 C 
ATOM      2  N   UNL     1      -9.848  17.730  67.104  0.00  0.00    -0.270 NA
ATOM      3  C   UNL     1      -8.461  17.048  66.782  0.00  0.00    +0.090 C 
ATOM      4  C   UNL     1      -7.664  18.482  66.770  0.00  0.00    +0.148 C 
ATOM      5  C   UNL     1      -7.583  19.013  68.089  0.00  0.00    +0.094 C 
ATOM      6  C   UNL     1      -6.648  20.356  67.981  0.00  0.00    +0.228 C 
ATOM      7  O   UNL     1      -6.176  20.261  69.459  0.00  0.00    -0.468 OA
ATOM      8  C   UNL     1      -5.775  18.939  69.575  0.00  0.00    +0.173 A 
ATOM      9  C   UNL     1      -5.280  18.235  70.666  0.00  0.00    +0.229 A 
ATOM     10  C   UNL     1      -5.279  16.846  70.545  0.00  0.00    +0.045 A 
ATOM     11  C   UNL     1      -6.044  16.191  69.582  0.00  0.00    -0.001 A 
ATOM     12  C   UNL     1      -6.736  16.900  68.602  0.00  0.00    -0.021 A 
ATOM     13  O   UNL     1      -5.222  18.845  71.927  0.00  0.00    -0.283 OA
ATOM     14  C   UNL     1      -5.326  19.578  67.424  0.00  0.00    +0.191 C 
ATOM     15  O   UNL     1      -4.356  20.303  67.651  0.00  0.00    -0.292 OA
ATOM     16  C   UNL     1      -5.474  19.193  65.975  0.00  0.00    +0.071 C 
ATOM     17  C   UNL     1      -6.637  18.257  68.815  0.00  0.00    +0.017 A 
ATOM     18  C   UNL     1      -8.873  19.381  68.670  0.00  0.00    +0.028 C 
ATOM     19  C   UNL     1      -6.446  18.041  66.041  0.00  0.00    +0.040 C 
ATOM     20  O   UNL     1      -8.402  19.292  65.900  0.00  0.00    -0.224 OA
ATOM     21  C   UNL     1      -8.187  16.590  68.335  0.00  0.00    +0.045 C 
ATOM     22  C   UNL     1      -9.814  18.262  68.388  0.00  0.00    +0.073 C 
ENDROOT
TORSDOF 0
ENDMDL
MODEL 6
REMARK VINA RESULT:      -6.4      1.806      2.405
REMARK  Name = 
REMARK  0 active torsions:
REMARK  status: ('A' for Active; 'I' for Inactive)
REMARK                            x       y       z     vdW  Elec       q    Type
REMARK                         _______ _______ _______ _____ _____    ______ ____
ROOT
ATOM      1  C   UNL     1     -12.079  12.661  63.641  0.00  0.00    +0.090 C 
ATOM      2  N   UNL     1     -12.277  13.349  64.427  0.00  0.00    -0.270 NA
ATOM      3  C   UNL     1     -11.934  12.697  65.823  0.00  0.00    +0.090 C 
ATOM      4  C   UNL     1     -10.394  13.262  65.803  0.00  0.00    +0.148 C 
ATOM      5  C   UNL     1     -10.385  14.675  65.978  0.00  0.00    +0.094 C 
ATOM      6  C   UNL     1      -8.807  15.107  66.090  0.00  0.00    +0.228 C 
ATOM      7  O   UNL     1      -9.117  16.375  66.934  0.00  0.00    -0.468 OA
ATOM      8  C   UNL     1      -9.951  15.892  67.931  0.00  0.00    +0.173 A 
ATOM      9  C   UNL     1     -10.587  16.549  68.977  0.00  0.00    +0.229 A 
ATOM     10  C   UNL     1     -11.611  15.843  69.607  0.00  0.00    +0.045 A 
ATOM     11  C   UNL     1     -12.209  14.731  69.016  0.00  0.00    -0.001 A 
ATOM     12  C   UNL     1     -11.715  14.187  67.832  0.00  0.00    -0.021 A 
ATOM     13  O   UNL     1     -10.509  17.945  69.080  0.00  0.00    -0.283 OA
ATOM     14  C   UNL     1      -8.494  14.205  67.414  0.00  0.00    +0.191 C 
ATOM     15  O   UNL     1      -7.483  14.672  67.941  0.00  0.00    -0.292 OA
ATOM     16  C   UNL     1      -8.384  12.740  67.077  0.00  0.00    +0.071 C 
ATOM     17  C   UNL     1     -10.691  14.957  67.327  0.00  0.00    +0.017 A 
ATOM     18  C   UNL     1     -11.002  15.421  64.884  0.00  0.00    +0.028 C 
ATOM     19  C   UNL     1      -9.822  12.354  66.832  0.00  0.00    +0.040 C 
ATOM     20  O   UNL     1      -9.885  12.862  64.563  0.00  0.00    -0.224 OA
ATOM     21  C   UNL     1     -12.656  13.886  66.695  0.00  0.00    +0.045 C 
ATOM     22  C   UNL     1     -12.281  14.733  64.553  0.00  0.00    +0.073 C 
ENDROOT
TORSDOF 0
ENDMDL
MODEL 7
REMARK VINA RESULT:      -6.3      5.398      6.887
REMARK  Name = 
REMARK  0 active torsions:
REMARK  status: ('A' for Active; 'I' for Inactive)
REMARK                            x       y       z     vdW  Elec       q    Type
REMARK                         _______ _______ _______ _____ _____    ______ ____
ROOT
ATOM      1  C   UNL     1      -5.130  15.513  68.743  0.00  0.00    +0.090 C 
ATOM      2  N   UNL     1      -6.097  15.813  68.417  0.00  0.00    -0.270 NA
ATOM      3  C   UNL     1      -6.669  16.938  69.364  0.00  0.00    +0.090 C 
ATOM      4  C   UNL     1      -6.052  18.146  68.441  0.00  0.00    +0.148 C 
ATOM      5  C   UNL     1      -6.755  18.231  67.206  0.00  0.00    +0.094 C 
ATOM      6  C   UNL     1      -6.161  19.550  66.436  0.00  0.00    +0.228 C 
ATOM      7  O   UNL     1      -7.468  19.784  65.627  0.00  0.00    -0.468 OA
ATOM      8  C   UNL     1      -8.453  19.725  66.601  0.00  0.00    +0.173 A 
ATOM      9  C   UNL     1      -9.835  19.832  66.499  0.00  0.00    +0.229 A 
ATOM     10  C   UNL     1     -10.562  19.406  67.609  0.00  0.00    +0.045 A 
ATOM     11  C   UNL     1      -9.996  18.595  68.592  0.00  0.00    -0.001 A 
ATOM     12  C   UNL     1      -8.637  18.290  68.584  0.00  0.00    -0.021 A 
ATOM     13  O   UNL     1     -10.440  19.928  65.238  0.00  0.00    -0.283 OA
ATOM     14  C   UNL     1      -6.593  20.613  67.596  0.00  0.00    +0.191 C 
ATOM     15  O   UNL     1      -6.626  21.729  67.074  0.00  0.00    -0.292 OA
ATOM     16  C   UNL     1      -5.687  20.528  68.797  0.00  0.00    +0.071 C 
ATOM     17  C   UNL     1      -8.027  18.790  67.455  0.00  0.00    +0.017 A 
ATOM     18  C   UNL     1      -6.591  17.065  66.340  0.00  0.00    +0.028 C 
ATOM     19  C   UNL     1      -6.127  19.240  69.446  0.00  0.00    +0.040 C 
ATOM     20  O   UNL     1      -4.702  17.817  68.280  0.00  0.00    -0.224 OA
ATOM     21  C   UNL     1      -8.187  16.861  68.744  0.00  0.00    +0.045 C 
ATOM     22  C   UNL     1      -6.758  15.858  67.196  0.00  0.00    +0.073 C 
ENDROOT
TORSDOF 0
ENDMDL
MODEL 8
REMARK VINA RESULT:      -6.2      5.899      7.721
REMARK  Name = 
REMARK  0 active torsions:
REMARK  status: ('A' for Active; 'I' for Inactive)
REMARK                            x       y       z     vdW  Elec       q    Type
REMARK                         _______ _______ _______ _____ _____    ______ ____
ROOT
ATOM      1  C   UNL     1      -4.528  18.620  70.323  0.00  0.00    +0.090 C 
ATOM      2  N   UNL     1      -5.538  18.447  70.037  0.00  0.00    -0.270 NA
ATOM      3  C   UNL     1      -6.220  19.800  69.597  0.00  0.00    +0.090 C 
ATOM      4  C   UNL     1      -5.806  19.595  68.023  0.00  0.00    +0.148 C 
ATOM      5  C   UNL     1      -6.559  18.531  67.449  0.00  0.00    +0.094 C 
ATOM      6  C   UNL     1      -6.176  18.513  65.855  0.00  0.00    +0.228 C 
ATOM      7  O   UNL     1      -7.531  17.875  65.440  0.00  0.00    -0.468 OA
ATOM      8  C   UNL     1      -8.463  18.666  66.094  0.00  0.00    +0.173 A 
ATOM      9  C   UNL     1      -9.849  18.583  66.139  0.00  0.00    +0.229 A 
ATOM     10  C   UNL     1     -10.472  19.325  67.142  0.00  0.00    +0.045 A 
ATOM     11  C   UNL     1      -9.767  19.812  68.241  0.00  0.00    -0.001 A 
ATOM     12  C   UNL     1      -8.379  19.704  68.317  0.00  0.00    -0.021 A 
ATOM     13  O   UNL     1     -10.508  17.505  65.530  0.00  0.00    -0.283 OA
ATOM     14  C   UNL     1      -6.705  20.028  65.554  0.00  0.00    +0.191 C 
ATOM     15  O   UNL     1      -6.906  20.107  64.340  0.00  0.00    -0.292 OA
ATOM     16  C   UNL     1      -5.752  21.067  66.083  0.00  0.00    +0.071 C 
ATOM     17  C   UNL     1      -7.884  18.977  67.258  0.00  0.00    +0.017 A 
ATOM     18  C   UNL     1      -6.271  17.216  68.019  0.00  0.00    +0.028 C 
ATOM     19  C   UNL     1      -5.990  20.999  67.571  0.00  0.00    +0.040 C 
ATOM     20  O   UNL     1      -4.431  19.340  68.048  0.00  0.00    -0.224 OA
ATOM     21  C   UNL     1      -7.736  19.169  69.571  0.00  0.00    +0.045 C 
ATOM     22  C   UNL     1      -6.243  17.377  69.499  0.00  0.00    +0.073 C 
ENDROOT
TORSDOF 0
ENDMDL
MODEL 9
REMARK VINA RESULT:      -6.1      2.447      4.344
REMARK  Name = 
REMARK  0 active torsions:
REMARK  status: ('A' for Active; 'I' for Inactive)
REMARK                            x       y       z     vdW  Elec       q    Type
REMARK                         _______ _______ _______ _____ _____    ______ ____
ROOT
ATOM      1  C   UNL     1      -7.200  18.152  67.343  0.00  0.00    +0.090 C 
ATOM      2  N   UNL     1      -7.806  17.596  68.018  0.00  0.00    -0.270 NA
ATOM      3  C   UNL     1      -9.333  17.787  67.665  0.00  0.00    +0.090 C 
ATOM      4  C   UNL     1      -9.353  16.482  66.671  0.00  0.00    +0.148 C 
ATOM      5  C   UNL     1      -9.237  15.282  67.429  0.00  0.00    +0.094 C 
ATOM      6  C   UNL     1      -9.417  14.052  66.360  0.00  0.00    +0.228 C 
ATOM      7  O   UNL     1      -9.949  13.067  67.438  0.00  0.00    -0.468 OA
ATOM      8  C   UNL     1     -10.934  13.805  68.076  0.00  0.00    +0.173 A 
ATOM      9  C   UNL     1     -11.756  13.482  69.150  0.00  0.00    +0.229 A 
ATOM     10  C   UNL     1     -12.410  14.551  69.760  0.00  0.00    +0.045 A 
ATOM     11  C   UNL     1     -12.000  15.870  69.568  0.00  0.00    -0.001 A 
ATOM     12  C   UNL     1     -11.008  16.192  68.645  0.00  0.00    -0.021 A 
ATOM     13  O   UNL     1     -11.579  12.267  69.827  0.00  0.00    -0.283 OA
ATOM     14  C   UNL     1     -10.921  14.476  65.889  0.00  0.00    +0.191 C 
ATOM     15  O   UNL     1     -11.441  13.476  65.391  0.00  0.00    -0.292 OA
ATOM     16  C   UNL     1     -10.902  15.673  64.974  0.00  0.00    +0.071 C 
ATOM     17  C   UNL     1     -10.462  15.055  68.092  0.00  0.00    +0.017 A 
ATOM     18  C   UNL     1      -7.957  15.127  68.117  0.00  0.00    +0.028 C 
ATOM     19  C   UNL     1     -10.598  16.804  65.924  0.00  0.00    +0.040 C 
ATOM     20  O   UNL     1      -8.278  16.683  65.799  0.00  0.00    -0.224 OA
ATOM     21  C   UNL     1      -9.867  17.088  69.052  0.00  0.00    +0.045 C 
ATOM     22  C   UNL     1      -7.647  16.433  68.762  0.00  0.00    +0.073 C 
ENDROOT
TORSDOF 0
ENDMDL
