MODEL 1
REMARK VINA RESULT:      -2.6      0.000      0.000
REMARK  Name = 
REMARK  0 active torsions:
REMARK  status: ('A' for Active; 'I' for Inactive)
REMARK                            x       y       z     vdW  Elec       q    Type
REMARK                         _______ _______ _______ _____ _____    ______ ____
ROOT
ATOM      1  C   UNL     1     -13.624  13.394  72.299  0.00  0.00    +0.106 C 
ATOM      2  S   UNL     1     -13.188  15.120  72.519  0.00  0.00    +0.044 S 
ATOM      3  O   UNL     1     -14.431  15.991  72.435  0.00  0.00    -0.256 OA
ATOM      4  C   UNL     1     -12.460  15.380  74.145  0.00  0.00    +0.106 C 
ENDROOT
TORSDOF 0
ENDMDL
MODEL 2
REMARK VINA RESULT:      -2.5      1.621      2.144
REMARK  Name = 
REMARK  0 active torsions:
REMARK  status: ('A' for Active; 'I' for Inactive)
REMARK                            x       y       z     vdW  Elec       q    Type
REMARK                         _______ _______ _______ _____ _____    ______ ____
ROOT
ATOM      1  C   UNL     1     -12.476  15.630  74.362  0.00  0.00    +0.106 C 
ATOM      2  S   UNL     1     -13.061  15.310  72.697  0.00  0.00    +0.044 S 
ATOM      3  O   UNL     1     -14.403  15.988  72.471  0.00  0.00    -0.256 OA
ATOM      4  C   UNL     1     -11.910  15.985  71.487  0.00  0.00    +0.106 C 
ENDROOT
TORSDOF 0
ENDMDL
MODEL 3
REMARK VINA RESULT:      -2.4      0.901      2.267
REMARK  Name = 
REMARK  0 active torsions:
REMARK  status: ('A' for Active; 'I' for Inactive)
REMARK                            x       y       z     vdW  Elec       q    Type
REMARK                         _______ _______ _______ _____ _____    ______ ____
ROOT
ATOM      1  C   UNL     1     -12.484  15.591  73.848  0.00  0.00    +0.106 C 
ATOM      2  S   UNL     1     -13.667  15.222  72.552  0.00  0.00    +0.044 S 
ATOM      3  O   UNL     1     -13.238  15.870  71.246  0.00  0.00    -0.256 OA
ATOM      4  C   UNL     1     -13.749  13.445  72.266  0.00  0.00    +0.106 C 
ENDROOT
TORSDOF 0
ENDMDL
MODEL 4
REMARK VINA RESULT:      -2.3      7.871      8.026
REMARK  Name = 
REMARK  0 active torsions:
REMARK  status: ('A' for Active; 'I' for Inactive)
REMARK                            x       y       z     vdW  Elec       q    Type
REMARK                         _______ _______ _______ _____ _____    ______ ____
ROOT
ATOM      1  C   UNL     1     -12.246  14.333  64.891  0.00  0.00    +0.106 C 
ATOM      2  S   UNL     1     -10.909  15.526  64.956  0.00  0.00    +0.044 S 
ATOM      3  O   UNL     1     -11.313  16.810  64.248  0.00  0.00    -0.256 OA
ATOM      4  C   UNL     1     -10.533  15.953  66.665  0.00  0.00    +0.106 C 
ENDROOT
TORSDOF 0
ENDMDL
MODEL 5
REMARK VINA RESULT:      -2.3      1.948      1.948
REMARK  Name = 
REMARK  0 active torsions:
REMARK  status: ('A' for Active; 'I' for Inactive)
REMARK                            x       y       z     vdW  Elec       q    Type
REMARK                         _______ _______ _______ _____ _____    ______ ____
ROOT
ATOM      1  C   UNL     1     -13.592  13.705  72.417  0.00  0.00    +0.106 C 
ATOM      2  S   UNL     1     -13.067  15.313  73.014  0.00  0.00    +0.044 S 
ATOM      3  O   UNL     1     -12.329  15.169  74.335  0.00  0.00    -0.256 OA
ATOM      4  C   UNL     1     -11.928  16.075  71.844  0.00  0.00    +0.106 C 
ENDROOT
TORSDOF 0
ENDMDL
MODEL 6
REMARK VINA RESULT:      -2.2      8.290      8.774
REMARK  Name = 
REMARK  0 active torsions:
REMARK  status: ('A' for Active; 'I' for Inactive)
REMARK                            x       y       z     vdW  Elec       q    Type
REMARK                         _______ _______ _______ _____ _____    ______ ____
ROOT
ATOM      1  C   UNL     1     -10.542  14.082  64.904  0.00  0.00    +0.106 C 
ATOM      2  S   UNL     1     -12.030  13.089  65.018  0.00  0.00    +0.044 S 
ATOM      3  O   UNL     1     -13.247  13.982  65.204  0.00  0.00    -0.256 OA
ATOM      4  C   UNL     1     -12.279  12.155  63.498  0.00  0.00    +0.106 C 
ENDROOT
TORSDOF 0
ENDMDL
MODEL 7
REMARK VINA RESULT:      -2.2      8.977      9.410
REMARK  Name = 
REMARK  0 active torsions:
REMARK  status: ('A' for Active; 'I' for Inactive)
REMARK                            x       y       z     vdW  Elec       q    Type
REMARK                         _______ _______ _______ _____ _____    ______ ____
ROOT
ATOM      1  C   UNL     1     -10.333  11.862  63.447  0.00  0.00    +0.106 C 
ATOM      2  S   UNL     1     -11.846  12.733  63.858  0.00  0.00    +0.044 S 
ATOM      3  O   UNL     1     -13.050  11.983  63.310  0.00  0.00    -0.256 OA
ATOM      4  C   UNL     1     -12.046  12.833  65.645  0.00  0.00    +0.106 C 
ENDROOT
TORSDOF 0
ENDMDL
MODEL 8
REMARK VINA RESULT:      -2.1      7.777      8.210
REMARK  Name = 
REMARK  0 active torsions:
REMARK  status: ('A' for Active; 'I' for Inactive)
REMARK                            x       y       z     vdW  Elec       q    Type
REMARK                         _______ _______ _______ _____ _____    ______ ____
ROOT
ATOM      1  C   UNL     1     -11.744  12.591  66.683  0.00  0.00    +0.106 C 
ATOM      2  S   UNL     1     -11.979  12.897  64.931  0.00  0.00    +0.044 S 
ATOM      3  O   UNL     1     -13.306  12.317  64.469  0.00  0.00    -0.256 OA
ATOM      4  C   UNL     1     -12.026  14.668  64.606  0.00  0.00    +0.106 C 
ENDROOT
TORSDOF 0
ENDMDL
MODEL 9
REMARK VINA RESULT:      -2.0     10.825     11.263
REMARK  Name = 
REMARK  0 active torsions:
REMARK  status: ('A' for Active; 'I' for Inactive)
REMARK                            x       y       z     vdW  Elec       q    Type
REMARK                         _______ _______ _______ _____ _____    ______ ____
ROOT
ATOM      1  C   UNL     1      -3.173  21.154  70.211  0.00  0.00    +0.106 C 
ATOM      2  S   UNL     1      -4.044  20.932  71.763  0.00  0.00    +0.044 S 
ATOM      3  O   UNL     1      -4.423  22.282  72.352  0.00  0.00    -0.256 OA
ATOM      4  C   UNL     1      -5.572  20.016  71.499  0.00  0.00    +0.106 C 
ENDROOT
TORSDOF 0
ENDMDL
