MODEL 1
REMARK VINA RESULT:      -4.8      0.000      0.000
REMARK  Name = 
REMARK  10 active torsions:
REMARK  status: ('A' for Active; 'I' for Inactive)
REMARK    1  A    between atoms: C_2  and  C_3
REMARK    2  A    between atoms: C_3  and  C_4
REMARK    3  A    between atoms: C_4  and  C_5
REMARK    4  A    between atoms: C_5  and  C_6
REMARK    5  A    between atoms: C_6  and  O_7
REMARK    6  A    between atoms: O_7  and  C_8
REMARK    7  A    between atoms: C_8  and  C_10
REMARK    8  A    between atoms: C_10  and  C_11
REMARK    9  A    between atoms: C_11  and  C_12
REMARK   10  A    between atoms: C_12  and  C_14
REMARK                            x       y       z     vdW  Elec       q    Type
REMARK                         _______ _______ _______ _____ _____    ______ ____
ROOT
ATOM      1  C   UNL     1     -10.620  16.725  67.784  0.00  0.00    +0.317 C 
ATOM      2  O   UNL     1     -10.695  17.799  68.426  0.00  0.00    -0.250 OA
ENDROOT
BRANCH   1   3
ATOM      3  C   UNL     1      -9.835  16.709  66.511  0.00  0.00    +0.117 C 
BRANCH   3   4
ATOM      4  C   UNL     1     -10.203  15.441  65.753  0.00  0.00    +0.078 C 
BRANCH   4   5
ATOM      5  C   UNL     1     -11.253  15.758  64.742  0.00  0.00    +0.170 C 
ATOM      6  O   UNL     1     -11.330  16.868  64.238  0.00  0.00    -0.294 OA
BRANCH   5   7
ATOM      7  C   UNL     1     -12.156  14.661  64.289  0.00  0.00    +0.173 C 
ATOM      8  N   UNL     1     -12.837  14.108  65.431  0.00  0.00    -0.123 NA
ENDBRANCH   5   7
ENDBRANCH   4   5
ENDBRANCH   3   4
ENDBRANCH   1   3
BRANCH   1   9
ATOM      9  O   UNL     1     -11.188  15.552  68.272  0.00  0.00    -0.448 OA
BRANCH   9  10
ATOM     10  C   UNL     1     -10.604  14.967  69.434  0.00  0.00    +0.208 C 
BRANCH  10  11
ATOM     11  C   UNL     1     -11.758  14.392  70.239  0.00  0.00    +0.047 C 
BRANCH  11  12
ATOM     12  C   UNL     1     -12.757  15.471  70.631  0.00  0.00    +0.004 C 
BRANCH  12  13
ATOM     13  C   UNL     1     -13.555  14.900  71.797  0.00  0.00    +0.000 C 
BRANCH  13  15
ATOM     14  C   UNL     1     -12.467  15.389  74.006  0.00  0.00    +0.000 C 
ATOM     15  C   UNL     1     -13.469  15.840  72.965  0.00  0.00    +0.000 C 
ENDBRANCH  13  15
ENDBRANCH  12  13
ENDBRANCH  11  12
ENDBRANCH  10  11
ENDBRANCH   9  10
ENDBRANCH   1   9
TORSDOF 10
ENDMDL
MODEL 2
REMARK VINA RESULT:      -4.8      2.663      3.981
REMARK  Name = 
REMARK  10 active torsions:
REMARK  status: ('A' for Active; 'I' for Inactive)
REMARK    1  A    between atoms: C_2  and  C_3
REMARK    2  A    between atoms: C_3  and  C_4
REMARK    3  A    between atoms: C_4  and  C_5
REMARK    4  A    between atoms: C_5  and  C_6
REMARK    5  A    between atoms: C_6  and  O_7
REMARK    6  A    between atoms: O_7  and  C_8
REMARK    7  A    between atoms: C_8  and  C_10
REMARK    8  A    between atoms: C_10  and  C_11
REMARK    9  A    between atoms: C_11  and  C_12
REMARK   10  A    between atoms: C_12  and  C_14
REMARK                            x       y       z     vdW  Elec       q    Type
REMARK                         _______ _______ _______ _____ _____    ______ ____
ROOT
ATOM      1  C   UNL     1     -10.897  16.158  64.865  0.00  0.00    +0.317 C 
ATOM      2  O   UNL     1     -11.610  16.568  63.919  0.00  0.00    -0.250 OA
ENDROOT
BRANCH   1   3
ATOM      3  C   UNL     1     -10.862  14.689  65.147  0.00  0.00    +0.117 C 
BRANCH   3   4
ATOM      4  C   UNL     1     -12.283  14.240  65.456  0.00  0.00    +0.078 C 
BRANCH   4   5
ATOM      5  C   UNL     1     -12.397  12.771  65.226  0.00  0.00    +0.170 C 
ATOM      6  O   UNL     1     -13.252  12.311  64.486  0.00  0.00    -0.294 OA
BRANCH   5   7
ATOM      7  C   UNL     1     -11.381  11.874  65.852  0.00  0.00    +0.173 C 
ATOM      8  N   UNL     1     -11.844  11.475  67.156  0.00  0.00    -0.123 NA
ENDBRANCH   5   7
ENDBRANCH   4   5
ENDBRANCH   3   4
ENDBRANCH   1   3
BRANCH   1   9
ATOM      9  O   UNL     1     -10.096  17.031  65.596  0.00  0.00    -0.448 OA
BRANCH   9  10
ATOM     10  C   UNL     1      -8.914  16.501  66.194  0.00  0.00    +0.208 C 
BRANCH  10  11
ATOM     11  C   UNL     1      -8.815  17.145  67.567  0.00  0.00    +0.047 C 
BRANCH  11  12
ATOM     12  C   UNL     1     -10.153  17.714  68.015  0.00  0.00    +0.004 C 
BRANCH  12  13
ATOM     13  C   UNL     1     -10.578  16.888  69.222  0.00  0.00    +0.000 C 
BRANCH  13  15
ATOM     14  C   UNL     1     -11.114  14.446  68.987  0.00  0.00    +0.000 C 
ATOM     15  C   UNL     1     -11.594  15.868  68.794  0.00  0.00    +0.000 C 
ENDBRANCH  13  15
ENDBRANCH  12  13
ENDBRANCH  11  12
ENDBRANCH  10  11
ENDBRANCH   9  10
ENDBRANCH   1   9
TORSDOF 10
ENDMDL
MODEL 3
REMARK VINA RESULT:      -4.7      3.958      6.207
REMARK  Name = 
REMARK  10 active torsions:
REMARK  status: ('A' for Active; 'I' for Inactive)
REMARK    1  A    between atoms: C_2  and  C_3
REMARK    2  A    between atoms: C_3  and  C_4
REMARK    3  A    between atoms: C_4  and  C_5
REMARK    4  A    between atoms: C_5  and  C_6
REMARK    5  A    between atoms: C_6  and  O_7
REMARK    6  A    between atoms: O_7  and  C_8
REMARK    7  A    between atoms: C_8  and  C_10
REMARK    8  A    between atoms: C_10  and  C_11
REMARK    9  A    between atoms: C_11  and  C_12
REMARK   10  A    between atoms: C_12  and  C_14
REMARK                            x       y       z     vdW  Elec       q    Type
REMARK                         _______ _______ _______ _____ _____    ______ ____
ROOT
ATOM      1  C   UNL     1     -11.302  15.828  64.826  0.00  0.00    +0.317 C 
ATOM      2  O   UNL     1     -11.272  16.906  64.185  0.00  0.00    -0.250 OA
ENDROOT
BRANCH   1   3
ATOM      3  C   UNL     1     -10.526  15.735  66.101  0.00  0.00    +0.117 C 
BRANCH   3   4
ATOM      4  C   UNL     1      -9.795  17.055  66.300  0.00  0.00    +0.078 C 
BRANCH   4   5
ATOM      5  C   UNL     1     -10.480  17.844  67.364  0.00  0.00    +0.170 C 
ATOM      6  O   UNL     1     -11.058  17.292  68.288  0.00  0.00    -0.294 OA
BRANCH   5   7
ATOM      7  C   UNL     1     -10.369  19.332  67.328  0.00  0.00    +0.173 C 
ATOM      8  N   UNL     1     -10.554  19.786  65.974  0.00  0.00    -0.123 NA
ENDBRANCH   5   7
ENDBRANCH   4   5
ENDBRANCH   3   4
ENDBRANCH   1   3
BRANCH   1   9
ATOM      9  O   UNL     1     -12.093  14.762  64.408  0.00  0.00    -0.448 OA
BRANCH   9  10
ATOM     10  C   UNL     1     -12.681  13.940  65.415  0.00  0.00    +0.208 C 
BRANCH  10  11
ATOM     11  C   UNL     1     -12.279  12.513  65.077  0.00  0.00    +0.047 C 
BRANCH  11  12
ATOM     12  C   UNL     1     -12.063  12.333  63.582  0.00  0.00    +0.004 C 
BRANCH  12  13
ATOM     13  C   UNL     1     -10.815  11.470  63.439  0.00  0.00    +0.000 C 
BRANCH  13  15
ATOM     14  C   UNL     1      -9.517   9.755  64.734  0.00  0.00    +0.000 C 
ATOM     15  C   UNL     1     -10.379  10.998  64.796  0.00  0.00    +0.000 C 
ENDBRANCH  13  15
ENDBRANCH  12  13
ENDBRANCH  11  12
ENDBRANCH  10  11
ENDBRANCH   9  10
ENDBRANCH   1   9
TORSDOF 10
ENDMDL
MODEL 4
REMARK VINA RESULT:      -4.7      4.054      5.267
REMARK  Name = 
REMARK  10 active torsions:
REMARK  status: ('A' for Active; 'I' for Inactive)
REMARK    1  A    between atoms: C_2  and  C_3
REMARK    2  A    between atoms: C_3  and  C_4
REMARK    3  A    between atoms: C_4  and  C_5
REMARK    4  A    between atoms: C_5  and  C_6
REMARK    5  A    between atoms: C_6  and  O_7
REMARK    6  A    between atoms: O_7  and  C_8
REMARK    7  A    between atoms: C_8  and  C_10
REMARK    8  A    between atoms: C_10  and  C_11
REMARK    9  A    between atoms: C_11  and  C_12
REMARK   10  A    between atoms: C_12  and  C_14
REMARK                            x       y       z     vdW  Elec       q    Type
REMARK                         _______ _______ _______ _____ _____    ______ ____
ROOT
ATOM      1  C   UNL     1     -10.876  16.320  64.982  0.00  0.00    +0.317 C 
ATOM      2  O   UNL     1     -11.632  16.404  63.985  0.00  0.00    -0.250 OA
ENDROOT
BRANCH   1   3
ATOM      3  C   UNL     1     -10.710  14.987  65.641  0.00  0.00    +0.117 C 
BRANCH   3   4
ATOM      4  C   UNL     1     -12.080  14.328  65.712  0.00  0.00    +0.078 C 
BRANCH   4   5
ATOM      5  C   UNL     1     -11.926  12.853  65.549  0.00  0.00    +0.170 C 
ATOM      6  O   UNL     1     -12.088  12.093  66.491  0.00  0.00    -0.294 OA
BRANCH   5   7
ATOM      7  C   UNL     1     -11.659  12.314  64.183  0.00  0.00    +0.173 C 
ATOM      8  N   UNL     1     -12.510  12.985  63.236  0.00  0.00    -0.123 NA
ENDBRANCH   5   7
ENDBRANCH   4   5
ENDBRANCH   3   4
ENDBRANCH   1   3
BRANCH   1   9
ATOM      9  O   UNL     1     -10.148  17.419  65.430  0.00  0.00    -0.448 OA
BRANCH   9  10
ATOM     10  C   UNL     1     -10.306  17.805  66.794  0.00  0.00    +0.208 C 
BRANCH  10  11
ATOM     11  C   UNL     1     -10.646  19.286  66.772  0.00  0.00    +0.047 C 
BRANCH  11  12
ATOM     12  C   UNL     1      -9.748  20.080  67.709  0.00  0.00    +0.004 C 
BRANCH  12  13
ATOM     13  C   UNL     1      -8.820  19.063  68.363  0.00  0.00    +0.000 C 
BRANCH  13  15
ATOM     14  C   UNL     1      -7.132  20.635  67.370  0.00  0.00    +0.000 C 
ATOM     15  C   UNL     1      -7.442  19.649  68.476  0.00  0.00    +0.000 C 
ENDBRANCH  13  15
ENDBRANCH  12  13
ENDBRANCH  11  12
ENDBRANCH  10  11
ENDBRANCH   9  10
ENDBRANCH   1   9
TORSDOF 10
ENDMDL
MODEL 5
REMARK VINA RESULT:      -4.7      2.080      2.911
REMARK  Name = 
REMARK  10 active torsions:
REMARK  status: ('A' for Active; 'I' for Inactive)
REMARK    1  A    between atoms: C_2  and  C_3
REMARK    2  A    between atoms: C_3  and  C_4
REMARK    3  A    between atoms: C_4  and  C_5
REMARK    4  A    between atoms: C_5  and  C_6
REMARK    5  A    between atoms: C_6  and  O_7
REMARK    6  A    between atoms: O_7  and  C_8
REMARK    7  A    between atoms: C_8  and  C_10
REMARK    8  A    between atoms: C_10  and  C_11
REMARK    9  A    between atoms: C_11  and  C_12
REMARK   10  A    between atoms: C_12  and  C_14
REMARK                            x       y       z     vdW  Elec       q    Type
REMARK                         _______ _______ _______ _____ _____    ______ ____
ROOT
ATOM      1  C   UNL     1     -12.102  13.290  66.210  0.00  0.00    +0.317 C 
ATOM      2  O   UNL     1     -12.149  12.037  66.181  0.00  0.00    -0.250 OA
ENDROOT
BRANCH   1   3
ATOM      3  C   UNL     1     -11.906  14.026  64.922  0.00  0.00    +0.117 C 
BRANCH   3   4
ATOM      4  C   UNL     1     -10.541  14.697  64.973  0.00  0.00    +0.078 C 
BRANCH   4   5
ATOM      5  C   UNL     1     -10.720  16.173  65.087  0.00  0.00    +0.170 C 
ATOM      6  O   UNL     1     -11.313  16.806  64.227  0.00  0.00    -0.294 OA
BRANCH   5   7
ATOM      7  C   UNL     1     -10.237  16.853  66.324  0.00  0.00    +0.173 C 
ATOM      8  N   UNL     1      -9.334  17.913  65.958  0.00  0.00    -0.123 NA
ENDBRANCH   5   7
ENDBRANCH   4   5
ENDBRANCH   3   4
ENDBRANCH   1   3
BRANCH   1   9
ATOM      9  O   UNL     1     -12.300  13.992  67.395  0.00  0.00    -0.448 OA
BRANCH   9  10
ATOM     10  C   UNL     1     -11.407  13.730  68.477  0.00  0.00    +0.208 C 
BRANCH  10  11
ATOM     11  C   UNL     1     -12.142  14.153  69.738  0.00  0.00    +0.047 C 
BRANCH  11  12
ATOM     12  C   UNL     1     -12.163  15.666  69.892  0.00  0.00    +0.004 C 
BRANCH  12  13
ATOM     13  C   UNL     1     -11.832  15.944  71.353  0.00  0.00    +0.000 C 
BRANCH  13  15
ATOM     14  C   UNL     1     -12.793  15.781  73.667  0.00  0.00    +0.000 C 
ATOM     15  C   UNL     1     -12.881  15.321  72.228  0.00  0.00    +0.000 C 
ENDBRANCH  13  15
ENDBRANCH  12  13
ENDBRANCH  11  12
ENDBRANCH  10  11
ENDBRANCH   9  10
ENDBRANCH   1   9
TORSDOF 10
ENDMDL
MODEL 6
REMARK VINA RESULT:      -4.6      2.201      2.976
REMARK  Name = 
REMARK  10 active torsions:
REMARK  status: ('A' for Active; 'I' for Inactive)
REMARK    1  A    between atoms: C_2  and  C_3
REMARK    2  A    between atoms: C_3  and  C_4
REMARK    3  A    between atoms: C_4  and  C_5
REMARK    4  A    between atoms: C_5  and  C_6
REMARK    5  A    between atoms: C_6  and  O_7
REMARK    6  A    between atoms: O_7  and  C_8
REMARK    7  A    between atoms: C_8  and  C_10
REMARK    8  A    between atoms: C_10  and  C_11
REMARK    9  A    between atoms: C_11  and  C_12
REMARK   10  A    between atoms: C_12  and  C_14
REMARK                            x       y       z     vdW  Elec       q    Type
REMARK                         _______ _______ _______ _____ _____    ______ ____
ROOT
ATOM      1  C   UNL     1     -11.490  12.351  67.715  0.00  0.00    +0.317 C 
ATOM      2  O   UNL     1     -12.087  11.249  67.764  0.00  0.00    -0.250 OA
ENDROOT
BRANCH   1   3
ATOM      3  C   UNL     1     -11.159  12.923  66.373  0.00  0.00    +0.117 C 
BRANCH   3   4
ATOM      4  C   UNL     1     -12.385  13.671  65.870  0.00  0.00    +0.078 C 
BRANCH   4   5
ATOM      5  C   UNL     1     -12.003  14.518  64.703  0.00  0.00    +0.170 C 
ATOM      6  O   UNL     1     -12.634  14.478  63.658  0.00  0.00    -0.294 OA
BRANCH   5   7
ATOM      7  C   UNL     1     -10.881  15.488  64.868  0.00  0.00    +0.173 C 
ATOM      8  N   UNL     1     -11.294  16.776  64.374  0.00  0.00    -0.123 NA
ENDBRANCH   5   7
ENDBRANCH   4   5
ENDBRANCH   3   4
ENDBRANCH   1   3
BRANCH   1   9
ATOM      9  O   UNL     1     -11.202  13.068  68.872  0.00  0.00    -0.448 OA
BRANCH   9  10
ATOM     10  C   UNL     1     -10.353  14.208  68.750  0.00  0.00    +0.208 C 
BRANCH  10  11
ATOM     11  C   UNL     1     -11.030  15.320  69.534  0.00  0.00    +0.047 C 
BRANCH  11  12
ATOM     12  C   UNL     1     -12.142  14.781  70.422  0.00  0.00    +0.004 C 
BRANCH  12  13
ATOM     13  C   UNL     1     -11.703  15.053  71.856  0.00  0.00    +0.000 C 
BRANCH  13  15
ATOM     14  C   UNL     1     -14.162  15.402  72.232  0.00  0.00    +0.000 C 
ATOM     15  C   UNL     1     -12.756  15.867  72.551  0.00  0.00    +0.000 C 
ENDBRANCH  13  15
ENDBRANCH  12  13
ENDBRANCH  11  12
ENDBRANCH  10  11
ENDBRANCH   9  10
ENDBRANCH   1   9
TORSDOF 10
ENDMDL
MODEL 7
REMARK VINA RESULT:      -4.6      3.435      4.615
REMARK  Name = 
REMARK  10 active torsions:
REMARK  status: ('A' for Active; 'I' for Inactive)
REMARK    1  A    between atoms: C_2  and  C_3
REMARK    2  A    between atoms: C_3  and  C_4
REMARK    3  A    between atoms: C_4  and  C_5
REMARK    4  A    between atoms: C_5  and  C_6
REMARK    5  A    between atoms: C_6  and  O_7
REMARK    6  A    between atoms: O_7  and  C_8
REMARK    7  A    between atoms: C_8  and  C_10
REMARK    8  A    between atoms: C_10  and  C_11
REMARK    9  A    between atoms: C_11  and  C_12
REMARK   10  A    between atoms: C_12  and  C_14
REMARK                            x       y       z     vdW  Elec       q    Type
REMARK                         _______ _______ _______ _____ _____    ______ ____
ROOT
ATOM      1  C   UNL     1     -11.174  15.733  64.672  0.00  0.00    +0.317 C 
ATOM      2  O   UNL     1     -11.409  16.856  64.167  0.00  0.00    -0.250 OA
ENDROOT
BRANCH   1   3
ATOM      3  C   UNL     1     -10.018  15.601  65.611  0.00  0.00    +0.117 C 
BRANCH   3   4
ATOM      4  C   UNL     1     -10.172  16.661  66.692  0.00  0.00    +0.078 C 
BRANCH   4   5
ATOM      5  C   UNL     1      -9.250  17.797  66.403  0.00  0.00    +0.170 C 
ATOM      6  O   UNL     1      -8.161  17.612  65.883  0.00  0.00    -0.294 OA
BRANCH   5   7
ATOM      7  C   UNL     1      -9.725  19.185  66.681  0.00  0.00    +0.173 C 
ATOM      8  N   UNL     1     -10.938  19.122  67.454  0.00  0.00    -0.123 NA
ENDBRANCH   5   7
ENDBRANCH   4   5
ENDBRANCH   3   4
ENDBRANCH   1   3
BRANCH   1   9
ATOM      9  O   UNL     1     -12.006  14.644  64.427  0.00  0.00    -0.448 OA
BRANCH   9  10
ATOM     10  C   UNL     1     -12.632  14.025  65.550  0.00  0.00    +0.208 C 
BRANCH  10  11
ATOM     11  C   UNL     1     -12.262  12.553  65.476  0.00  0.00    +0.047 C 
BRANCH  11  12
ATOM     12  C   UNL     1     -11.323  12.156  66.606  0.00  0.00    +0.004 C 
BRANCH  12  13
ATOM     13  C   UNL     1     -11.656  13.078  67.772  0.00  0.00    +0.000 C 
BRANCH  13  15
ATOM     14  C   UNL     1     -11.588  10.784  68.791  0.00  0.00    +0.000 C 
ATOM     15  C   UNL     1     -11.751  12.269  69.034  0.00  0.00    +0.000 C 
ENDBRANCH  13  15
ENDBRANCH  12  13
ENDBRANCH  11  12
ENDBRANCH  10  11
ENDBRANCH   9  10
ENDBRANCH   1   9
TORSDOF 10
ENDMDL
MODEL 8
REMARK VINA RESULT:      -4.6      3.486      6.944
REMARK  Name = 
REMARK  10 active torsions:
REMARK  status: ('A' for Active; 'I' for Inactive)
REMARK    1  A    between atoms: C_2  and  C_3
REMARK    2  A    between atoms: C_3  and  C_4
REMARK    3  A    between atoms: C_4  and  C_5
REMARK    4  A    between atoms: C_5  and  C_6
REMARK    5  A    between atoms: C_6  and  O_7
REMARK    6  A    between atoms: O_7  and  C_8
REMARK    7  A    between atoms: C_8  and  C_10
REMARK    8  A    between atoms: C_10  and  C_11
REMARK    9  A    between atoms: C_11  and  C_12
REMARK   10  A    between atoms: C_12  and  C_14
REMARK                            x       y       z     vdW  Elec       q    Type
REMARK                         _______ _______ _______ _____ _____    ______ ____
ROOT
ATOM      1  C   UNL     1     -11.517  16.003  69.334  0.00  0.00    +0.317 C 
ATOM      2  O   UNL     1     -10.984  17.137  69.389  0.00  0.00    -0.250 OA
ENDROOT
BRANCH   1   3
ATOM      3  C   UNL     1     -12.485  15.618  70.408  0.00  0.00    +0.117 C 
BRANCH   3   4
ATOM      4  C   UNL     1     -11.873  16.003  71.747  0.00  0.00    +0.078 C 
BRANCH   4   5
ATOM      5  C   UNL     1     -12.898  15.850  72.820  0.00  0.00    +0.170 C 
ATOM      6  O   UNL     1     -14.083  16.047  72.595  0.00  0.00    -0.294 OA
BRANCH   5   7
ATOM      7  C   UNL     1     -12.457  15.362  74.159  0.00  0.00    +0.173 C 
ATOM      8  N   UNL     1     -12.485  16.457  75.093  0.00  0.00    -0.123 NA
ENDBRANCH   5   7
ENDBRANCH   4   5
ENDBRANCH   3   4
ENDBRANCH   1   3
BRANCH   1   9
ATOM      9  O   UNL     1     -11.278  15.144  68.266  0.00  0.00    -0.448 OA
BRANCH   9  10
ATOM     10  C   UNL     1     -11.993  13.910  68.235  0.00  0.00    +0.208 C 
BRANCH  10  11
ATOM     11  C   UNL     1     -11.837  13.370  66.823  0.00  0.00    +0.047 C 
BRANCH  11  12
ATOM     12  C   UNL     1     -11.190  11.993  66.820  0.00  0.00    +0.004 C 
BRANCH  12  13
ATOM     13  C   UNL     1     -10.733  11.746  65.388  0.00  0.00    +0.000 C 
BRANCH  13  15
ATOM     14  C   UNL     1     -12.351  12.102  63.500  0.00  0.00    +0.000 C 
ATOM     15  C   UNL     1     -11.390  12.744  64.478  0.00  0.00    +0.000 C 
ENDBRANCH  13  15
ENDBRANCH  12  13
ENDBRANCH  11  12
ENDBRANCH  10  11
ENDBRANCH   9  10
ENDBRANCH   1   9
TORSDOF 10
ENDMDL
MODEL 9
REMARK VINA RESULT:      -4.6      3.954      4.946
REMARK  Name = 
REMARK  10 active torsions:
REMARK  status: ('A' for Active; 'I' for Inactive)
REMARK    1  A    between atoms: C_2  and  C_3
REMARK    2  A    between atoms: C_3  and  C_4
REMARK    3  A    between atoms: C_4  and  C_5
REMARK    4  A    between atoms: C_5  and  C_6
REMARK    5  A    between atoms: C_6  and  O_7
REMARK    6  A    between atoms: O_7  and  C_8
REMARK    7  A    between atoms: C_8  and  C_10
REMARK    8  A    between atoms: C_10  and  C_11
REMARK    9  A    between atoms: C_11  and  C_12
REMARK   10  A    between atoms: C_12  and  C_14
REMARK                            x       y       z     vdW  Elec       q    Type
REMARK                         _______ _______ _______ _____ _____    ______ ____
ROOT
ATOM      1  C   UNL     1     -10.686  16.036  65.069  0.00  0.00    +0.317 C 
ATOM      2  O   UNL     1     -11.293  16.743  64.230  0.00  0.00    -0.250 OA
ENDROOT
BRANCH   1   3
ATOM      3  C   UNL     1     -11.257  14.700  65.423  0.00  0.00    +0.117 C 
BRANCH   3   4
ATOM      4  C   UNL     1     -12.275  14.329  64.354  0.00  0.00    +0.078 C 
BRANCH   4   5
ATOM      5  C   UNL     1     -12.007  12.942  63.877  0.00  0.00    +0.170 C 
ATOM      6  O   UNL     1     -12.907  12.235  63.450  0.00  0.00    -0.294 OA
BRANCH   5   7
ATOM      7  C   UNL     1     -10.594  12.461  63.849  0.00  0.00    +0.173 C 
ATOM      8  N   UNL     1     -10.576  11.075  63.460  0.00  0.00    -0.123 NA
ENDBRANCH   5   7
ENDBRANCH   4   5
ENDBRANCH   3   4
ENDBRANCH   1   3
BRANCH   1   9
ATOM      9  O   UNL     1      -9.470  16.444  65.611  0.00  0.00    -0.448 OA
BRANCH   9  10
ATOM     10  C   UNL     1      -9.321  16.378  67.028  0.00  0.00    +0.208 C 
BRANCH  10  11
ATOM     11  C   UNL     1      -7.995  17.049  67.341  0.00  0.00    +0.047 C 
BRANCH  11  12
ATOM     12  C   UNL     1      -8.197  18.424  67.960  0.00  0.00    +0.004 C 
BRANCH  12  13
ATOM     13  C   UNL     1      -9.689  18.540  68.249  0.00  0.00    +0.000 C 
BRANCH  13  15
ATOM     14  C   UNL     1     -10.470  19.782  66.211  0.00  0.00    +0.000 C 
ATOM     15  C   UNL     1     -10.202  19.840  67.700  0.00  0.00    +0.000 C 
ENDBRANCH  13  15
ENDBRANCH  12  13
ENDBRANCH  11  12
ENDBRANCH  10  11
ENDBRANCH   9  10
ENDBRANCH   1   9
TORSDOF 10
ENDMDL
