MODEL 1
REMARK VINA RESULT:      -6.9      0.000      0.000
REMARK  Name = 
REMARK  7 active torsions:
REMARK  status: ('A' for Active; 'I' for Inactive)
REMARK    1  A    between atoms: C_2  and  C_3
REMARK    2  A    between atoms: C_3  and  C_4
REMARK    3  A    between atoms: C_6  and  C_7
REMARK    4  A    between atoms: N_9  and  C_10
REMARK    5  A    between atoms: C_10  and  C_11
REMARK    6  A    between atoms: C_10  and  C_14
REMARK    7  A    between atoms: C_16  and  S_17
REMARK                            x       y       z     vdW  Elec       q    Type
REMARK                         _______ _______ _______ _____ _____    ______ ____
ROOT
ATOM      1  C   UNL     1     -10.865  15.812  66.605  0.00  0.00    +0.155 C 
ENDROOT
BRANCH   1   2
ATOM      2  C   UNL     1      -9.297  16.398  66.999  0.00  0.00    +0.172 C 
ATOM      3  C   UNL     1      -9.769  17.146  68.484  0.00  0.00    +0.213 C 
ATOM      4  O   UNL     1     -11.282  17.000  68.292  0.00  0.00    -0.218 OA
ATOM      5  C   UNL     1      -9.817  18.857  68.247  0.00  0.00    +0.218 C 
ATOM      6  O   UNL     1     -10.936  18.878  67.191  0.00  0.00    -0.217 OA
ATOM      7  C   UNL     1      -8.621  19.359  67.100  0.00  0.00    +0.222 C 
ATOM      8  O   UNL     1      -7.559  19.686  68.153  0.00  0.00    -0.217 OA
ATOM      9  C   UNL     1      -7.924  17.893  66.620  0.00  0.00    +0.195 C 
ATOM     10  O   UNL     1      -9.358  17.663  66.236  0.00  0.00    -0.341 OA
BRANCH   9  11
ATOM     11  S   UNL     1      -7.640  17.181  68.390  0.00  0.00    -0.108 S 
ATOM     12  C   UNL     1      -6.019  16.613  68.597  0.00  0.00    +0.072 C 
ENDBRANCH   9  11
ENDBRANCH   1   2
BRANCH   1  13
ATOM     13  C   UNL     1     -10.642  15.624  64.910  0.00  0.00    +0.174 C 
ATOM     14  O   UNL     1     -11.218  16.966  64.464  0.00  0.00    -0.221 OA
ATOM     15  C   UNL     1     -12.095  14.829  64.689  0.00  0.00    +0.037 C 
ENDBRANCH   1  13
BRANCH   1  17
ATOM     16  C   UNL     1     -11.183  13.578  67.805  0.00  0.00    +0.256 C 
ATOM     17  N   UNL     1     -10.404  14.342  66.882  0.00  0.00    -0.201 NA
ATOM     18  O   UNL     1     -12.172  14.214  68.200  0.00  0.00    -0.272 OA
BRANCH  16  23
ATOM     19  C   UNL     1     -10.247  10.404  66.248  0.00  0.00    +0.018 C 
ATOM     20  C   UNL     1      -9.847  10.369  67.837  0.00  0.00    +0.073 C 
ATOM     21  N   UNL     1     -10.422  11.456  68.440  0.00  0.00    -0.265 NA
ATOM     22  C   UNL     1     -11.288  11.074  69.559  0.00  0.00    +0.090 C 
ATOM     23  C   UNL     1     -11.466  12.021  67.375  0.00  0.00    +0.137 C 
ATOM     24  C   UNL     1     -10.287  12.055  66.200  0.00  0.00    +0.027 C 
BRANCH  19  25
ATOM     25  C   UNL     1      -8.649  10.319  65.823  0.00  0.00    +0.001 C 
BRANCH  25  27
ATOM     26  C   UNL     1      -9.211   9.775  63.454  0.00  0.00    +0.000 C 
ATOM     27  C   UNL     1      -8.567   9.333  64.710  0.00  0.00    +0.000 C 
ENDBRANCH  25  27
ENDBRANCH  19  25
ENDBRANCH  16  23
ENDBRANCH   1  17
TORSDOF 7
ENDMDL
MODEL 2
REMARK VINA RESULT:      -6.0      2.721      4.270
REMARK  Name = 
REMARK  7 active torsions:
REMARK  status: ('A' for Active; 'I' for Inactive)
REMARK    1  A    between atoms: C_2  and  C_3
REMARK    2  A    between atoms: C_3  and  C_4
REMARK    3  A    between atoms: C_6  and  C_7
REMARK    4  A    between atoms: N_9  and  C_10
REMARK    5  A    between atoms: C_10  and  C_11
REMARK    6  A    between atoms: C_10  and  C_14
REMARK    7  A    between atoms: C_16  and  S_17
REMARK                            x       y       z     vdW  Elec       q    Type
REMARK                         _______ _______ _______ _____ _____    ______ ____
ROOT
ATOM      1  C   UNL     1     -11.109  12.737  65.683  0.00  0.00    +0.155 C 
ENDROOT
BRANCH   1   2
ATOM      2  C   UNL     1     -10.057  14.004  66.178  0.00  0.00    +0.172 C 
ATOM      3  C   UNL     1      -9.902  13.462  67.811  0.00  0.00    +0.213 C 
ATOM      4  O   UNL     1     -11.001  12.396  67.757  0.00  0.00    -0.218 OA
ATOM      5  C   UNL     1     -10.837  14.500  68.826  0.00  0.00    +0.218 C 
ATOM      6  O   UNL     1     -12.215  14.176  68.223  0.00  0.00    -0.217 OA
ATOM      7  C   UNL     1     -10.863  16.117  68.208  0.00  0.00    +0.222 C 
ATOM      8  O   UNL     1      -9.682  16.600  69.056  0.00  0.00    -0.217 OA
ATOM      9  C   UNL     1      -9.980  15.982  66.770  0.00  0.00    +0.195 C 
ATOM     10  O   UNL     1     -11.093  15.005  66.512  0.00  0.00    -0.341 OA
BRANCH   9  11
ATOM     11  S   UNL     1      -8.479  15.021  67.508  0.00  0.00    -0.108 S 
ATOM     12  C   UNL     1      -6.978  15.798  67.137  0.00  0.00    +0.072 C 
ENDBRANCH   9  11
ENDBRANCH   1   2
BRANCH   1  13
ATOM     13  C   UNL     1     -11.861  13.539  64.360  0.00  0.00    +0.174 C 
ATOM     14  O   UNL     1     -13.165  13.927  65.054  0.00  0.00    -0.221 OA
ATOM     15  C   UNL     1     -12.513  12.135  63.729  0.00  0.00    +0.037 C 
ENDBRANCH   1  13
BRANCH   1  17
ATOM     16  C   UNL     1      -9.638  10.777  64.957  0.00  0.00    +0.256 C 
ATOM     17  N   UNL     1      -9.992  12.148  64.759  0.00  0.00    -0.201 NA
ATOM     18  O   UNL     1     -10.350  10.245  65.823  0.00  0.00    -0.272 OA
BRANCH  16  23
ATOM     19  C   UNL     1      -8.258  10.258  61.610  0.00  0.00    +0.018 C 
ATOM     20  C   UNL     1      -7.227   9.641  62.726  0.00  0.00    +0.073 C 
ATOM     21  N   UNL     1      -7.872   9.629  63.933  0.00  0.00    -0.265 NA
ATOM     22  C   UNL     1      -7.912   8.289  64.525  0.00  0.00    +0.090 C 
ATOM     23  C   UNL     1      -9.406   9.899  63.592  0.00  0.00    +0.137 C 
ATOM     24  C   UNL     1      -8.997  11.249  62.707  0.00  0.00    +0.027 C 
BRANCH  19  25
ATOM     25  C   UNL     1      -7.136  11.394  61.172  0.00  0.00    +0.001 C 
BRANCH  25  27
ATOM     26  C   UNL     1      -5.251  11.271  59.542  0.00  0.00    +0.000 C 
ATOM     27  C   UNL     1      -5.949  10.639  60.683  0.00  0.00    +0.000 C 
ENDBRANCH  25  27
ENDBRANCH  19  25
ENDBRANCH  16  23
ENDBRANCH   1  17
TORSDOF 7
ENDMDL
MODEL 3
REMARK VINA RESULT:      -5.9      3.291      7.715
REMARK  Name = 
REMARK  7 active torsions:
REMARK  status: ('A' for Active; 'I' for Inactive)
REMARK    1  A    between atoms: C_2  and  C_3
REMARK    2  A    between atoms: C_3  and  C_4
REMARK    3  A    between atoms: C_6  and  C_7
REMARK    4  A    between atoms: N_9  and  C_10
REMARK    5  A    between atoms: C_10  and  C_11
REMARK    6  A    between atoms: C_10  and  C_14
REMARK    7  A    between atoms: C_16  and  S_17
REMARK                            x       y       z     vdW  Elec       q    Type
REMARK                         _______ _______ _______ _____ _____    ______ ____
ROOT
ATOM      1  C   UNL     1      -8.833  17.859  66.975  0.00  0.00    +0.155 C 
ENDROOT
BRANCH   1   2
ATOM      2  C   UNL     1      -8.522  16.467  67.936  0.00  0.00    +0.172 C 
ATOM      3  C   UNL     1      -8.513  15.353  66.615  0.00  0.00    +0.213 C 
ATOM      4  O   UNL     1      -9.044  16.321  65.553  0.00  0.00    -0.218 OA
ATOM      5  C   UNL     1      -9.984  14.448  66.650  0.00  0.00    +0.218 C 
ATOM      6  O   UNL     1     -10.946  15.627  66.424  0.00  0.00    -0.217 OA
ATOM      7  C   UNL     1     -10.532  14.214  68.276  0.00  0.00    +0.222 C 
ATOM      8  O   UNL     1      -9.862  12.847  68.444  0.00  0.00    -0.217 OA
ATOM      9  C   UNL     1      -9.385  15.065  69.184  0.00  0.00    +0.195 C 
ATOM     10  O   UNL     1      -9.920  16.161  68.305  0.00  0.00    -0.341 OA
BRANCH   9  11
ATOM     11  S   UNL     1      -7.819  14.314  68.343  0.00  0.00    -0.108 S 
ATOM     12  C   UNL     1      -6.615  13.881  69.507  0.00  0.00    +0.072 C 
ENDBRANCH   9  11
ENDBRANCH   1   2
BRANCH   1  13
ATOM     13  C   UNL     1      -9.587  18.830  68.179  0.00  0.00    +0.174 C 
ATOM     14  O   UNL     1     -11.040  18.496  67.849  0.00  0.00    -0.221 OA
ATOM     15  C   UNL     1      -9.596  20.205  67.230  0.00  0.00    +0.037 C 
ENDBRANCH   1  13
BRANCH   1  17
ATOM     16  C   UNL     1      -6.556  18.744  66.224  0.00  0.00    +0.256 C 
ATOM     17  N   UNL     1      -7.420  18.435  67.320  0.00  0.00    -0.201 NA
ATOM     18  O   UNL     1      -7.120  18.555  65.135  0.00  0.00    -0.272 OA
BRANCH  16  23
ATOM     19  C   UNL     1      -4.755  21.302  68.119  0.00  0.00    +0.018 C 
ATOM     20  C   UNL     1      -3.690  20.188  67.558  0.00  0.00    +0.073 C 
ATOM     21  N   UNL     1      -4.348  19.391  66.661  0.00  0.00    -0.265 NA
ATOM     22  C   UNL     1      -3.695  19.378  65.350  0.00  0.00    +0.090 C 
ATOM     23  C   UNL     1      -5.718  20.148  66.355  0.00  0.00    +0.137 C 
ATOM     24  C   UNL     1      -6.041  20.273  67.983  0.00  0.00    +0.027 C 
BRANCH  19  25
ATOM     25  C   UNL     1      -4.425  20.860  69.681  0.00  0.00    +0.001 C 
BRANCH  25  27
ATOM     26  C   UNL     1      -5.645  19.997  71.678  0.00  0.00    +0.000 C 
ATOM     27  C   UNL     1      -5.691  20.302  70.231  0.00  0.00    +0.000 C 
ENDBRANCH  25  27
ENDBRANCH  19  25
ENDBRANCH  16  23
ENDBRANCH   1  17
TORSDOF 7
ENDMDL
MODEL 4
REMARK VINA RESULT:      -5.8      3.939      7.431
REMARK  Name = 
REMARK  7 active torsions:
REMARK  status: ('A' for Active; 'I' for Inactive)
REMARK    1  A    between atoms: C_2  and  C_3
REMARK    2  A    between atoms: C_3  and  C_4
REMARK    3  A    between atoms: C_6  and  C_7
REMARK    4  A    between atoms: N_9  and  C_10
REMARK    5  A    between atoms: C_10  and  C_11
REMARK    6  A    between atoms: C_10  and  C_14
REMARK    7  A    between atoms: C_16  and  S_17
REMARK                            x       y       z     vdW  Elec       q    Type
REMARK                         _______ _______ _______ _____ _____    ______ ____
ROOT
ATOM      1  C   UNL     1     -10.392  12.316  66.346  0.00  0.00    +0.155 C 
ENDROOT
BRANCH   1   2
ATOM      2  C   UNL     1     -10.348  10.728  67.005  0.00  0.00    +0.172 C 
ATOM      3  C   UNL     1      -8.644  10.714  67.291  0.00  0.00    +0.213 C 
ATOM      4  O   UNL     1      -8.318  12.002  66.527  0.00  0.00    -0.218 OA
ATOM      5  C   UNL     1      -7.895   9.714  66.098  0.00  0.00    +0.218 C 
ATOM      6  O   UNL     1      -8.282  10.552  64.867  0.00  0.00    -0.217 OA
ATOM      7  C   UNL     1      -8.937   8.412  65.635  0.00  0.00    +0.222 C 
ATOM      8  O   UNL     1      -8.346   7.409  66.630  0.00  0.00    -0.217 OA
ATOM      9  C   UNL     1     -10.340   8.717  66.532  0.00  0.00    +0.195 C 
ATOM     10  O   UNL     1     -10.234   9.985  65.732  0.00  0.00    -0.341 OA
BRANCH   9  11
ATOM     11  S   UNL     1      -9.472   8.991  68.233  0.00  0.00    -0.108 S 
ATOM     12  C   UNL     1     -10.205   8.045  69.483  0.00  0.00    +0.072 C 
ENDBRANCH   9  11
ENDBRANCH   1   2
BRANCH   1  13
ATOM     13  C   UNL     1     -11.888  12.196  65.506  0.00  0.00    +0.174 C 
ATOM     14  O   UNL     1     -11.342  11.752  64.150  0.00  0.00    -0.221 OA
ATOM     15  C   UNL     1     -11.905  13.809  65.069  0.00  0.00    +0.037 C 
ENDBRANCH   1  13
BRANCH   1  17
ATOM     16  C   UNL     1     -10.584  14.055  68.209  0.00  0.00    +0.256 C 
ATOM     17  N   UNL     1     -11.099  12.850  67.636  0.00  0.00    -0.201 NA
ATOM     18  O   UNL     1      -9.666  14.528  67.522  0.00  0.00    -0.272 OA
BRANCH  16  23
ATOM     19  C   UNL     1     -12.949  15.367  70.671  0.00  0.00    +0.018 C 
ATOM     20  C   UNL     1     -11.496  16.101  70.866  0.00  0.00    +0.073 C 
ATOM     21  N   UNL     1     -10.712  15.776  69.792  0.00  0.00    -0.265 NA
ATOM     22  C   UNL     1     -10.222  16.963  69.085  0.00  0.00    +0.090 C 
ATOM     23  C   UNL     1     -11.709  15.130  68.728  0.00  0.00    +0.137 C 
ATOM     24  C   UNL     1     -12.292  14.076  69.877  0.00  0.00    +0.027 C 
BRANCH  19  25
ATOM     25  C   UNL     1     -12.814  14.660  72.163  0.00  0.00    +0.001 C 
BRANCH  25  27
ATOM     26  C   UNL     1     -12.499  15.610  74.447  0.00  0.00    +0.000 C 
ATOM     27  C   UNL     1     -12.097  15.641  73.024  0.00  0.00    +0.000 C 
ENDBRANCH  25  27
ENDBRANCH  19  25
ENDBRANCH  16  23
ENDBRANCH   1  17
TORSDOF 7
ENDMDL
MODEL 5
REMARK VINA RESULT:      -5.8      4.302      8.235
REMARK  Name = 
REMARK  7 active torsions:
REMARK  status: ('A' for Active; 'I' for Inactive)
REMARK    1  A    between atoms: C_2  and  C_3
REMARK    2  A    between atoms: C_3  and  C_4
REMARK    3  A    between atoms: C_6  and  C_7
REMARK    4  A    between atoms: N_9  and  C_10
REMARK    5  A    between atoms: C_10  and  C_11
REMARK    6  A    between atoms: C_10  and  C_14
REMARK    7  A    between atoms: C_16  and  S_17
REMARK                            x       y       z     vdW  Elec       q    Type
REMARK                         _______ _______ _______ _____ _____    ______ ____
ROOT
ATOM      1  C   UNL     1     -11.171  10.138  69.365  0.00  0.00    +0.155 C 
ENDROOT
BRANCH   1   2
ATOM      2  C   UNL     1      -9.461   9.966  69.435  0.00  0.00    +0.172 C 
ATOM      3  C   UNL     1      -9.289   9.363  67.825  0.00  0.00    +0.213 C 
ATOM      4  O   UNL     1     -10.781   9.152  67.546  0.00  0.00    -0.218 OA
ATOM      5  C   UNL     1      -8.975   7.666  67.904  0.00  0.00    +0.218 C 
ATOM      6  O   UNL     1     -10.306   7.250  68.554  0.00  0.00    -0.217 OA
ATOM      7  C   UNL     1      -8.070   7.268  69.325  0.00  0.00    +0.222 C 
ATOM      8  O   UNL     1      -6.704   7.336  68.634  0.00  0.00    -0.217 OA
ATOM      9  C   UNL     1      -7.926   8.761  70.109  0.00  0.00    +0.195 C 
ATOM     10  O   UNL     1      -9.420   8.619  70.043  0.00  0.00    -0.341 OA
BRANCH   9  11
ATOM     11  S   UNL     1      -7.336   9.772  68.576  0.00  0.00    -0.108 S 
ATOM     12  C   UNL     1      -5.879  10.643  68.907  0.00  0.00    +0.072 C 
ENDBRANCH   9  11
ENDBRANCH   1   2
BRANCH   1  13
ATOM     13  C   UNL     1     -11.511   9.948  71.040  0.00  0.00    +0.174 C 
ATOM     14  O   UNL     1     -11.796   8.447  71.035  0.00  0.00    -0.221 OA
ATOM     15  C   UNL     1     -13.126  10.344  70.877  0.00  0.00    +0.037 C 
ENDBRANCH   1  13
BRANCH   1  17
ATOM     16  C   UNL     1     -11.406  12.487  68.386  0.00  0.00    +0.256 C 
ATOM     17  N   UNL     1     -11.039  11.690  69.514  0.00  0.00    -0.201 NA
ATOM     18  O   UNL     1     -11.847  11.788  67.460  0.00  0.00    -0.272 OA
BRANCH  16  23
ATOM     19  C   UNL     1     -12.554  15.149  70.616  0.00  0.00    +0.018 C 
ATOM     20  C   UNL     1     -11.216  15.651  69.812  0.00  0.00    +0.073 C 
ATOM     21  N   UNL     1     -10.956  14.744  68.820  0.00  0.00    -0.265 NA
ATOM     22  C   UNL     1     -10.907  15.371  67.497  0.00  0.00    +0.090 C 
ATOM     23  C   UNL     1     -12.267  13.842  68.724  0.00  0.00    +0.137 C 
ATOM     24  C   UNL     1     -12.217  13.551  70.363  0.00  0.00    +0.027 C 
BRANCH  19  25
ATOM     25  C   UNL     1     -11.735  15.208  72.055  0.00  0.00    +0.001 C 
BRANCH  25  27
ATOM     26  C   UNL     1     -12.433  15.609  74.416  0.00  0.00    +0.000 C 
ATOM     27  C   UNL     1     -12.749  14.970  73.120  0.00  0.00    +0.000 C 
ENDBRANCH  25  27
ENDBRANCH  19  25
ENDBRANCH  16  23
ENDBRANCH   1  17
TORSDOF 7
ENDMDL
MODEL 6
REMARK VINA RESULT:      -5.7      2.569      6.797
REMARK  Name = 
REMARK  7 active torsions:
REMARK  status: ('A' for Active; 'I' for Inactive)
REMARK    1  A    between atoms: C_2  and  C_3
REMARK    2  A    between atoms: C_3  and  C_4
REMARK    3  A    between atoms: C_6  and  C_7
REMARK    4  A    between atoms: N_9  and  C_10
REMARK    5  A    between atoms: C_10  and  C_11
REMARK    6  A    between atoms: C_10  and  C_14
REMARK    7  A    between atoms: C_16  and  S_17
REMARK                            x       y       z     vdW  Elec       q    Type
REMARK                         _______ _______ _______ _____ _____    ______ ____
ROOT
ATOM      1  C   UNL     1      -9.736  16.009  67.367  0.00  0.00    +0.155 C 
ENDROOT
BRANCH   1   2
ATOM      2  C   UNL     1      -9.532  14.330  67.680  0.00  0.00    +0.172 C 
ATOM      3  C   UNL     1      -9.937  13.813  66.082  0.00  0.00    +0.213 C 
ATOM      4  O   UNL     1     -10.446  15.166  65.574  0.00  0.00    -0.218 OA
ATOM      5  C   UNL     1     -11.522  13.129  66.110  0.00  0.00    +0.218 C 
ATOM      6  O   UNL     1     -12.279  14.402  66.530  0.00  0.00    -0.217 OA
ATOM      7  C   UNL     1     -11.837  12.351  67.625  0.00  0.00    +0.222 C 
ATOM      8  O   UNL     1     -11.408  10.960  67.149  0.00  0.00    -0.217 OA
ATOM      9  C   UNL     1     -10.424  12.660  68.505  0.00  0.00    +0.195 C 
ATOM     10  O   UNL     1     -10.886  14.059  68.209  0.00  0.00    -0.341 OA
BRANCH   9  11
ATOM     11  S   UNL     1      -9.176  12.124  67.135  0.00  0.00    -0.108 S 
ATOM     12  C   UNL     1      -7.974  11.044  67.755  0.00  0.00    +0.072 C 
ENDBRANCH   9  11
ENDBRANCH   1   2
BRANCH   1  13
ATOM     13  C   UNL     1     -10.120  16.516  68.965  0.00  0.00    +0.174 C 
ATOM     14  O   UNL     1     -11.641  16.537  68.827  0.00  0.00    -0.221 OA
ATOM     15  C   UNL     1      -9.979  18.142  68.608  0.00  0.00    +0.037 C 
ENDBRANCH   1  13
BRANCH   1  17
ATOM     16  C   UNL     1      -7.502  16.974  66.586  0.00  0.00    +0.256 C 
ATOM     17  N   UNL     1      -8.209  16.256  67.600  0.00  0.00    -0.201 NA
ATOM     18  O   UNL     1      -8.265  17.352  65.683  0.00  0.00    -0.272 OA
BRANCH  16  23
ATOM     19  C   UNL     1      -4.836  18.130  68.806  0.00  0.00    +0.018 C 
ATOM     20  C   UNL     1      -4.175  17.485  67.452  0.00  0.00    +0.073 C 
ATOM     21  N   UNL     1      -5.181  17.288  66.545  0.00  0.00    -0.265 NA
ATOM     22  C   UNL     1      -4.925  17.974  65.276  0.00  0.00    +0.090 C 
ATOM     23  C   UNL     1      -6.430  18.092  67.125  0.00  0.00    +0.137 C 
ATOM     24  C   UNL     1      -6.268  17.333  68.597  0.00  0.00    +0.027 C 
BRANCH  19  25
ATOM     25  C   UNL     1      -4.172  16.926  69.728  0.00  0.00    +0.001 C 
BRANCH  25  27
ATOM     26  C   UNL     1      -4.952  15.282  71.435  0.00  0.00    +0.000 C 
ATOM     27  C   UNL     1      -5.315  16.166  70.306  0.00  0.00    +0.000 C 
ENDBRANCH  25  27
ENDBRANCH  19  25
ENDBRANCH  16  23
ENDBRANCH   1  17
TORSDOF 7
ENDMDL
MODEL 7
REMARK VINA RESULT:      -5.7      2.531      3.864
REMARK  Name = 
REMARK  7 active torsions:
REMARK  status: ('A' for Active; 'I' for Inactive)
REMARK    1  A    between atoms: C_2  and  C_3
REMARK    2  A    between atoms: C_3  and  C_4
REMARK    3  A    between atoms: C_6  and  C_7
REMARK    4  A    between atoms: N_9  and  C_10
REMARK    5  A    between atoms: C_10  and  C_11
REMARK    6  A    between atoms: C_10  and  C_14
REMARK    7  A    between atoms: C_16  and  S_17
REMARK                            x       y       z     vdW  Elec       q    Type
REMARK                         _______ _______ _______ _____ _____    ______ ____
ROOT
ATOM      1  C   UNL     1      -8.559  18.374  67.741  0.00  0.00    +0.155 C 
ENDROOT
BRANCH   1   2
ATOM      2  C   UNL     1      -6.990  17.673  67.796  0.00  0.00    +0.172 C 
ATOM      3  C   UNL     1      -6.497  18.482  69.241  0.00  0.00    +0.213 C 
ATOM      4  O   UNL     1      -7.682  19.450  69.324  0.00  0.00    -0.218 OA
ATOM      5  C   UNL     1      -5.389  19.737  68.817  0.00  0.00    +0.218 C 
ATOM      6  O   UNL     1      -6.359  20.578  67.969  0.00  0.00    -0.217 OA
ATOM      7  C   UNL     1      -4.446  19.294  67.435  0.00  0.00    +0.222 C 
ATOM      8  O   UNL     1      -3.273  18.739  68.249  0.00  0.00    -0.217 OA
ATOM      9  C   UNL     1      -5.079  17.780  67.019  0.00  0.00    +0.195 C 
ATOM     10  O   UNL     1      -6.307  18.640  66.912  0.00  0.00    -0.341 OA
BRANCH   9  11
ATOM     11  S   UNL     1      -5.022  17.011  68.787  0.00  0.00    -0.108 S 
ATOM     12  C   UNL     1      -4.286  15.445  68.779  0.00  0.00    +0.072 C 
ENDBRANCH   9  11
ENDBRANCH   1   2
BRANCH   1  13
ATOM     13  C   UNL     1      -8.837  18.235  66.050  0.00  0.00    +0.174 C 
ATOM     14  O   UNL     1      -8.249  19.579  65.622  0.00  0.00    -0.221 OA
ATOM     15  C   UNL     1     -10.390  18.844  66.136  0.00  0.00    +0.037 C 
ENDBRANCH   1  13
BRANCH   1  17
ATOM     16  C   UNL     1     -10.236  16.924  69.013  0.00  0.00    +0.256 C 
ATOM     17  N   UNL     1      -9.212  16.979  68.017  0.00  0.00    -0.201 NA
ATOM     18  O   UNL     1     -10.490  18.050  69.466  0.00  0.00    -0.272 OA
BRANCH  16  23
ATOM     19  C   UNL     1     -11.848  14.055  67.416  0.00  0.00    +0.018 C 
ATOM     20  C   UNL     1     -11.438  13.662  68.954  0.00  0.00    +0.073 C 
ATOM     21  N   UNL     1     -11.065  14.813  69.597  0.00  0.00    -0.265 NA
ATOM     22  C   UNL     1     -11.856  15.050  70.808  0.00  0.00    +0.090 C 
ATOM     23  C   UNL     1     -11.538  15.998  68.641  0.00  0.00    +0.137 C 
ATOM     24  C   UNL     1     -10.760  15.297  67.346  0.00  0.00    +0.027 C 
BRANCH  19  25
ATOM     25  C   UNL     1     -10.778  12.937  66.825  0.00  0.00    +0.001 C 
BRANCH  25  27
ATOM     26  C   UNL     1     -12.534  12.814  65.057  0.00  0.00    +0.000 C 
ATOM     27  C   UNL     1     -11.551  12.080  65.884  0.00  0.00    +0.000 C 
ENDBRANCH  25  27
ENDBRANCH  19  25
ENDBRANCH  16  23
ENDBRANCH   1  17
TORSDOF 7
ENDMDL
MODEL 8
REMARK VINA RESULT:      -5.7      2.455      4.089
REMARK  Name = 
REMARK  7 active torsions:
REMARK  status: ('A' for Active; 'I' for Inactive)
REMARK    1  A    between atoms: C_2  and  C_3
REMARK    2  A    between atoms: C_3  and  C_4
REMARK    3  A    between atoms: C_6  and  C_7
REMARK    4  A    between atoms: N_9  and  C_10
REMARK    5  A    between atoms: C_10  and  C_11
REMARK    6  A    between atoms: C_10  and  C_14
REMARK    7  A    between atoms: C_16  and  S_17
REMARK                            x       y       z     vdW  Elec       q    Type
REMARK                         _______ _______ _______ _____ _____    ______ ____
ROOT
ATOM      1  C   UNL     1      -8.234  17.558  67.207  0.00  0.00    +0.155 C 
ENDROOT
BRANCH   1   2
ATOM      2  C   UNL     1      -7.334  18.489  66.075  0.00  0.00    +0.172 C 
ATOM      3  C   UNL     1      -5.901  17.529  66.174  0.00  0.00    +0.213 C 
ATOM      4  O   UNL     1      -6.326  16.685  67.379  0.00  0.00    -0.218 OA
ATOM      5  C   UNL     1      -4.720  18.397  67.088  0.00  0.00    +0.218 C 
ATOM      6  O   UNL     1      -5.495  18.443  68.417  0.00  0.00    -0.217 OA
ATOM      7  C   UNL     1      -4.880  20.104  66.849  0.00  0.00    +0.222 C 
ATOM      8  O   UNL     1      -3.842  20.176  65.724  0.00  0.00    -0.217 OA
ATOM      9  C   UNL     1      -6.227  20.215  65.830  0.00  0.00    +0.195 C 
ATOM     10  O   UNL     1      -6.825  19.511  67.014  0.00  0.00    -0.341 OA
BRANCH   9  11
ATOM     11  S   UNL     1      -5.659  18.888  64.550  0.00  0.00    -0.108 S 
ATOM     12  C   UNL     1      -5.612  19.530  62.943  0.00  0.00    +0.072 C 
ENDBRANCH   9  11
ENDBRANCH   1   2
BRANCH   1  13
ATOM     13  C   UNL     1      -9.366  18.765  67.678  0.00  0.00    +0.174 C 
ATOM     14  O   UNL     1      -8.552  19.400  68.803  0.00  0.00    -0.221 OA
ATOM     15  C   UNL     1     -10.186  17.752  68.725  0.00  0.00    +0.037 C 
ENDBRANCH   1  13
BRANCH   1  17
ATOM     16  C   UNL     1      -9.432  15.642  66.015  0.00  0.00    +0.256 C 
ATOM     17  N   UNL     1      -9.174  17.047  66.066  0.00  0.00    -0.201 NA
ATOM     18  O   UNL     1      -8.896  15.047  66.962  0.00  0.00    -0.272 OA
BRANCH  16  23
ATOM     19  C   UNL     1     -11.997  13.343  64.783  0.00  0.00    +0.018 C 
ATOM     20  C   UNL     1     -11.782  13.108  66.392  0.00  0.00    +0.073 C 
ATOM     21  N   UNL     1     -11.008  14.132  66.867  0.00  0.00    -0.265 NA
ATOM     22  C   UNL     1     -11.661  14.859  67.958  0.00  0.00    +0.090 C 
ATOM     23  C   UNL     1     -10.984  15.216  65.698  0.00  0.00    +0.137 C 
ATOM     24  C   UNL     1     -10.518  14.057  64.598  0.00  0.00    +0.027 C 
BRANCH  19  25
ATOM     25  C   UNL     1     -11.426  11.821  64.465  0.00  0.00    +0.001 C 
BRANCH  25  27
ATOM     26  C   UNL     1      -9.685  10.725  63.054  0.00  0.00    +0.000 C 
ATOM     27  C   UNL     1     -10.301  11.992  63.503  0.00  0.00    +0.000 C 
ENDBRANCH  25  27
ENDBRANCH  19  25
ENDBRANCH  16  23
ENDBRANCH   1  17
TORSDOF 7
ENDMDL
MODEL 9
REMARK VINA RESULT:      -5.7      2.868      4.195
REMARK  Name = 
REMARK  7 active torsions:
REMARK  status: ('A' for Active; 'I' for Inactive)
REMARK    1  A    between atoms: C_2  and  C_3
REMARK    2  A    between atoms: C_3  and  C_4
REMARK    3  A    between atoms: C_6  and  C_7
REMARK    4  A    between atoms: N_9  and  C_10
REMARK    5  A    between atoms: C_10  and  C_11
REMARK    6  A    between atoms: C_10  and  C_14
REMARK    7  A    between atoms: C_16  and  S_17
REMARK                            x       y       z     vdW  Elec       q    Type
REMARK                         _______ _______ _______ _____ _____    ______ ____
ROOT
ATOM      1  C   UNL     1      -8.309  17.384  67.863  0.00  0.00    +0.155 C 
ENDROOT
BRANCH   1   2
ATOM      2  C   UNL     1      -6.883  16.762  68.597  0.00  0.00    +0.172 C 
ATOM      3  C   UNL     1      -6.577  18.156  69.571  0.00  0.00    +0.213 C 
ATOM      4  O   UNL     1      -7.621  19.070  68.920  0.00  0.00    -0.218 OA
ATOM      5  C   UNL     1      -5.256  19.030  68.882  0.00  0.00    +0.218 C 
ATOM      6  O   UNL     1      -5.929  19.379  67.542  0.00  0.00    -0.217 OA
ATOM      7  C   UNL     1      -4.130  17.956  68.123  0.00  0.00    +0.222 C 
ATOM      8  O   UNL     1      -3.217  17.838  69.347  0.00  0.00    -0.217 OA
ATOM      9  C   UNL     1      -4.861  16.443  68.324  0.00  0.00    +0.195 C 
ATOM     10  O   UNL     1      -5.924  17.170  67.549  0.00  0.00    -0.341 OA
BRANCH   9  11
ATOM     11  S   UNL     1      -5.245  16.619  70.206  0.00  0.00    -0.108 S 
ATOM     12  C   UNL     1      -4.751  15.217  71.092  0.00  0.00    +0.072 C 
ENDBRANCH   9  11
ENDBRANCH   1   2
BRANCH   1  13
ATOM     13  C   UNL     1      -8.187  16.570  66.353  0.00  0.00    +0.174 C 
ATOM     14  O   UNL     1      -7.622  17.725  65.528  0.00  0.00    -0.221 OA
ATOM     15  C   UNL     1      -9.762  16.910  65.910  0.00  0.00    +0.037 C 
ENDBRANCH   1  13
BRANCH   1  17
ATOM     16  C   UNL     1     -10.336  16.586  69.200  0.00  0.00    +0.256 C 
ATOM     17  N   UNL     1      -9.155  16.222  68.481  0.00  0.00    -0.201 NA
ATOM     18  O   UNL     1     -10.534  17.810  69.157  0.00  0.00    -0.272 OA
BRANCH  16  23
ATOM     19  C   UNL     1     -11.979  13.372  68.609  0.00  0.00    +0.018 C 
ATOM     20  C   UNL     1     -11.978  13.696  70.216  0.00  0.00    +0.073 C 
ATOM     21  N   UNL     1     -11.584  14.996  70.383  0.00  0.00    -0.265 NA
ATOM     22  C   UNL     1     -12.574  15.783  71.124  0.00  0.00    +0.090 C 
ATOM     23  C   UNL     1     -11.651  15.644  68.928  0.00  0.00    +0.137 C 
ATOM     24  C   UNL     1     -10.726  14.406  68.307  0.00  0.00    +0.027 C 
BRANCH  19  25
ATOM     25  C   UNL     1     -10.989  12.067  68.851  0.00  0.00    +0.001 C 
BRANCH  25  27
ATOM     26  C   UNL     1     -10.979   9.939  70.154  0.00  0.00    +0.000 C 
ATOM     27  C   UNL     1     -11.652  11.230  69.889  0.00  0.00    +0.000 C 
ENDBRANCH  25  27
ENDBRANCH  19  25
ENDBRANCH  16  23
ENDBRANCH   1  17
TORSDOF 7
ENDMDL
