MODEL 1
REMARK VINA RESULT:      -6.1      0.000      0.000
REMARK  Name = 
REMARK  10 active torsions:
REMARK  status: ('A' for Active; 'I' for Inactive)
REMARK    1  A    between atoms: O_2  and  C_3
REMARK    2  A    between atoms: C_3  and  C_4
REMARK    3  A    between atoms: C_4  and  C_5
REMARK    4  A    between atoms: C_5  and  C_6
REMARK    5  A    between atoms: C_6  and  C_7
REMARK    6  A    between atoms: C_7  and  C_13
REMARK    7  A    between atoms: N_8  and  O_9
REMARK    8  A    between atoms: O_9  and  C_10
REMARK    9  A    between atoms: C_10  and  C_11
REMARK   10  A    between atoms: C_16  and  C_17
REMARK                            x       y       z     vdW  Elec       q    Type
REMARK                         _______ _______ _______ _____ _____    ______ ____
ROOT
ATOM      1  C   UNL     1     -11.208  14.013  67.305  0.00  0.00    +0.097 C 
ATOM      2  N   UNL     1      -9.946  14.034  66.990  0.00  0.00    -0.087 NA
ENDROOT
BRANCH   1   3
ATOM      3  C   UNL     1     -11.513  14.297  68.712  0.00  0.00    +0.017 A 
ATOM      4  C   UNL     1     -11.742  13.242  69.568  0.00  0.00    +0.001 A 
ATOM      5  C   UNL     1     -12.384  13.393  70.792  0.00  0.00    +0.004 A 
ATOM      6  C   UNL     1     -13.073  14.590  70.951  0.00  0.00    +0.071 A 
ATOM      7  C   UNL     1     -12.508  15.716  70.363  0.00  0.00    +0.004 A 
ATOM      8  C   UNL     1     -11.803  15.557  69.178  0.00  0.00    +0.001 A 
BRANCH   6   9
ATOM      9  C   UNL     1     -14.227  14.648  71.870  0.00  0.00    +0.419 C 
ATOM     10  F   UNL     1     -13.914  15.544  72.888  0.00  0.00    -0.166 F 
ATOM     11  F   UNL     1     -14.470  13.438  72.503  0.00  0.00    -0.166 F 
ATOM     12  F   UNL     1     -15.362  15.014  71.194  0.00  0.00    -0.166 F 
ENDBRANCH   6   9
ENDBRANCH   1   3
BRANCH   1  13
ATOM     13  C   UNL     1     -12.039  13.093  66.500  0.00  0.00    +0.049 C 
BRANCH  13  14
ATOM     14  C   UNL     1     -12.713  13.763  65.335  0.00  0.00    +0.009 C 
BRANCH  14  15
ATOM     15  C   UNL     1     -11.973  13.378  64.086  0.00  0.00    +0.032 C 
BRANCH  15  16
ATOM     16  C   UNL     1     -12.458  12.085  63.481  0.00  0.00    +0.142 C 
BRANCH  16  18
ATOM     17  C   UNL     1     -10.162  11.911  63.437  0.00  0.00    +0.174 C 
ATOM     18  O   UNL     1     -11.365  11.218  63.428  0.00  0.00    -0.351 OA
ENDBRANCH  16  18
ENDBRANCH  15  16
ENDBRANCH  14  15
ENDBRANCH  13  14
ENDBRANCH   1  13
BRANCH   2  19
ATOM     19  O   UNL     1      -9.142  15.080  67.409  0.00  0.00    -0.376 OA
BRANCH  19  20
ATOM     20  C   UNL     1      -8.832  16.061  66.441  0.00  0.00    +0.259 C 
BRANCH  20  21
ATOM     21  C   UNL     1      -9.964  17.058  66.277  0.00  0.00    +0.159 C 
ATOM     22  N   UNL     1     -10.626  16.825  65.008  0.00  0.00    -0.127 NA
ENDBRANCH  20  21
ENDBRANCH  19  20
ENDBRANCH   2  19
TORSDOF 10
ENDMDL
MODEL 2
REMARK VINA RESULT:      -5.9      4.019      6.494
REMARK  Name = 
REMARK  10 active torsions:
REMARK  status: ('A' for Active; 'I' for Inactive)
REMARK    1  A    between atoms: O_2  and  C_3
REMARK    2  A    between atoms: C_3  and  C_4
REMARK    3  A    between atoms: C_4  and  C_5
REMARK    4  A    between atoms: C_5  and  C_6
REMARK    5  A    between atoms: C_6  and  C_7
REMARK    6  A    between atoms: C_7  and  C_13
REMARK    7  A    between atoms: N_8  and  O_9
REMARK    8  A    between atoms: O_9  and  C_10
REMARK    9  A    between atoms: C_10  and  C_11
REMARK   10  A    between atoms: C_16  and  C_17
REMARK                            x       y       z     vdW  Elec       q    Type
REMARK                         _______ _______ _______ _____ _____    ______ ____
ROOT
ATOM      1  C   UNL     1     -11.053  14.521  68.542  0.00  0.00    +0.097 C 
ATOM      2  N   UNL     1     -10.278  15.466  68.095  0.00  0.00    -0.087 NA
ENDROOT
BRANCH   1   3
ATOM      3  C   UNL     1     -11.546  13.578  67.532  0.00  0.00    +0.017 A 
ATOM      4  C   UNL     1     -10.997  12.316  67.477  0.00  0.00    +0.001 A 
ATOM      5  C   UNL     1     -11.116  11.491  66.364  0.00  0.00    +0.004 A 
ATOM      6  C   UNL     1     -11.525  12.133  65.200  0.00  0.00    +0.071 A 
ATOM      7  C   UNL     1     -12.436  13.171  65.348  0.00  0.00    +0.004 A 
ATOM      8  C   UNL     1     -12.367  13.950  66.494  0.00  0.00    +0.001 A 
BRANCH   6   9
ATOM      9  C   UNL     1     -11.139  11.573  63.889  0.00  0.00    +0.419 C 
ATOM     10  F   UNL     1     -12.297  11.437  63.129  0.00  0.00    -0.166 F 
ATOM     11  F   UNL     1     -10.608  10.296  63.986  0.00  0.00    -0.166 F 
ATOM     12  F   UNL     1     -10.213  12.377  63.276  0.00  0.00    -0.166 F 
ENDBRANCH   6   9
ENDBRANCH   1   3
BRANCH   1  13
ATOM     13  C   UNL     1     -11.858  14.880  69.729  0.00  0.00    +0.049 C 
BRANCH  13  14
ATOM     14  C   UNL     1     -12.523  13.698  70.377  0.00  0.00    +0.009 C 
BRANCH  14  15
ATOM     15  C   UNL     1     -12.907  14.090  71.776  0.00  0.00    +0.032 C 
BRANCH  15  16
ATOM     16  C   UNL     1     -14.319  14.608  71.883  0.00  0.00    +0.142 C 
BRANCH  16  18
ATOM     17  C   UNL     1     -13.219  16.008  73.344  0.00  0.00    +0.174 C 
ATOM     18  O   UNL     1     -14.247  15.895  72.417  0.00  0.00    -0.351 OA
ENDBRANCH  16  18
ENDBRANCH  15  16
ENDBRANCH  14  15
ENDBRANCH  13  14
ENDBRANCH   1  13
BRANCH   2  19
ATOM     19  O   UNL     1      -9.237  15.164  67.235  0.00  0.00    -0.376 OA
BRANCH  19  20
ATOM     20  C   UNL     1      -9.151  15.937  66.056  0.00  0.00    +0.259 C 
BRANCH  20  21
ATOM     21  C   UNL     1     -10.292  16.934  65.960  0.00  0.00    +0.159 C 
ATOM     22  N   UNL     1     -10.940  16.797  64.669  0.00  0.00    -0.127 NA
ENDBRANCH  20  21
ENDBRANCH  19  20
ENDBRANCH   2  19
TORSDOF 10
ENDMDL
MODEL 3
REMARK VINA RESULT:      -5.9      1.661      2.171
REMARK  Name = 
REMARK  10 active torsions:
REMARK  status: ('A' for Active; 'I' for Inactive)
REMARK    1  A    between atoms: O_2  and  C_3
REMARK    2  A    between atoms: C_3  and  C_4
REMARK    3  A    between atoms: C_4  and  C_5
REMARK    4  A    between atoms: C_5  and  C_6
REMARK    5  A    between atoms: C_6  and  C_7
REMARK    6  A    between atoms: C_7  and  C_13
REMARK    7  A    between atoms: N_8  and  O_9
REMARK    8  A    between atoms: O_9  and  C_10
REMARK    9  A    between atoms: C_10  and  C_11
REMARK   10  A    between atoms: C_16  and  C_17
REMARK                            x       y       z     vdW  Elec       q    Type
REMARK                         _______ _______ _______ _____ _____    ______ ____
ROOT
ATOM      1  C   UNL     1     -10.477  15.285  67.994  0.00  0.00    +0.097 C 
ATOM      2  N   UNL     1     -10.069  16.498  67.759  0.00  0.00    -0.087 NA
ENDROOT
BRANCH   1   3
ATOM      3  C   UNL     1     -11.065  15.062  69.320  0.00  0.00    +0.017 A 
ATOM      4  C   UNL     1     -11.815  13.927  69.532  0.00  0.00    +0.001 A 
ATOM      5  C   UNL     1     -12.700  13.798  70.597  0.00  0.00    +0.004 A 
ATOM      6  C   UNL     1     -13.030  14.989  71.233  0.00  0.00    +0.071 A 
ATOM      7  C   UNL     1     -12.026  15.945  71.326  0.00  0.00    +0.004 A 
ATOM      8  C   UNL     1     -11.097  16.027  70.299  0.00  0.00    +0.001 A 
BRANCH   6   9
ATOM      9  C   UNL     1     -14.327  15.105  71.931  0.00  0.00    +0.419 C 
ATOM     10  F   UNL     1     -14.662  13.843  72.413  0.00  0.00    -0.166 F 
ATOM     11  F   UNL     1     -15.363  15.464  71.082  0.00  0.00    -0.166 F 
ATOM     12  F   UNL     1     -14.252  16.036  72.935  0.00  0.00    -0.166 F 
ENDBRANCH   6   9
ENDBRANCH   1   3
BRANCH   1  13
ATOM     13  C   UNL     1      -9.727  14.224  67.288  0.00  0.00    +0.049 C 
BRANCH  13  14
ATOM     14  C   UNL     1     -10.145  14.053  65.854  0.00  0.00    +0.009 C 
BRANCH  14  15
ATOM     15  C   UNL     1     -11.182  12.966  65.800  0.00  0.00    +0.032 C 
BRANCH  15  16
ATOM     16  C   UNL     1     -12.553  13.468  65.428  0.00  0.00    +0.142 C 
BRANCH  16  18
ATOM     17  C   UNL     1     -12.320  12.138  63.563  0.00  0.00    +0.174 C 
ATOM     18  O   UNL     1     -13.145  12.495  64.621  0.00  0.00    -0.351 OA
ENDBRANCH  16  18
ENDBRANCH  15  16
ENDBRANCH  14  15
ENDBRANCH  13  14
ENDBRANCH   1  13
BRANCH   2  19
ATOM     19  O   UNL     1     -10.882  17.577  68.063  0.00  0.00    -0.376 OA
BRANCH  19  20
ATOM     20  C   UNL     1     -10.268  18.849  68.052  0.00  0.00    +0.259 C 
BRANCH  20  21
ATOM     21  C   UNL     1     -10.544  19.589  66.756  0.00  0.00    +0.159 C 
ATOM     22  N   UNL     1      -9.396  19.461  65.879  0.00  0.00    -0.127 NA
ENDBRANCH  20  21
ENDBRANCH  19  20
ENDBRANCH   2  19
TORSDOF 10
ENDMDL
MODEL 4
REMARK VINA RESULT:      -5.9      3.948      5.533
REMARK  Name = 
REMARK  10 active torsions:
REMARK  status: ('A' for Active; 'I' for Inactive)
REMARK    1  A    between atoms: O_2  and  C_3
REMARK    2  A    between atoms: C_3  and  C_4
REMARK    3  A    between atoms: C_4  and  C_5
REMARK    4  A    between atoms: C_5  and  C_6
REMARK    5  A    between atoms: C_6  and  C_7
REMARK    6  A    between atoms: C_7  and  C_13
REMARK    7  A    between atoms: N_8  and  O_9
REMARK    8  A    between atoms: O_9  and  C_10
REMARK    9  A    between atoms: C_10  and  C_11
REMARK   10  A    between atoms: C_16  and  C_17
REMARK                            x       y       z     vdW  Elec       q    Type
REMARK                         _______ _______ _______ _____ _____    ______ ____
ROOT
ATOM      1  C   UNL     1     -10.743  14.689  68.457  0.00  0.00    +0.097 C 
ATOM      2  N   UNL     1     -11.962  14.899  68.861  0.00  0.00    -0.087 NA
ENDROOT
BRANCH   1   3
ATOM      3  C   UNL     1     -10.058  15.854  67.884  0.00  0.00    +0.017 A 
ATOM      4  C   UNL     1      -9.229  16.601  68.691  0.00  0.00    +0.001 A 
ATOM      5  C   UNL     1      -8.835  17.896  68.371  0.00  0.00    +0.004 A 
ATOM      6  C   UNL     1      -9.584  18.507  67.372  0.00  0.00    +0.071 A 
ATOM      7  C   UNL     1     -10.042  17.688  66.347  0.00  0.00    +0.004 A 
ATOM      8  C   UNL     1     -10.367  16.374  66.650  0.00  0.00    +0.001 A 
BRANCH   6   9
ATOM      9  C   UNL     1      -9.687  19.980  67.341  0.00  0.00    +0.419 C 
ATOM     10  F   UNL     1     -10.341  20.335  66.165  0.00  0.00    -0.166 F 
ATOM     11  F   UNL     1      -8.450  20.604  67.280  0.00  0.00    -0.166 F 
ATOM     12  F   UNL     1     -10.345  20.440  68.453  0.00  0.00    -0.166 F 
ENDBRANCH   6   9
ENDBRANCH   1   3
BRANCH   1  13
ATOM     13  C   UNL     1     -10.466  13.316  67.986  0.00  0.00    +0.049 C 
BRANCH  13  14
ATOM     14  C   UNL     1     -11.672  12.631  67.407  0.00  0.00    +0.009 C 
BRANCH  14  15
ATOM     15  C   UNL     1     -11.630  12.801  65.914  0.00  0.00    +0.032 C 
BRANCH  15  16
ATOM     16  C   UNL     1     -12.692  13.734  65.390  0.00  0.00    +0.142 C 
BRANCH  16  18
ATOM     17  C   UNL     1     -12.084  12.641  63.456  0.00  0.00    +0.174 C 
ATOM     18  O   UNL     1     -12.502  13.843  64.012  0.00  0.00    -0.351 OA
ENDBRANCH  16  18
ENDBRANCH  15  16
ENDBRANCH  14  15
ENDBRANCH  13  14
ENDBRANCH   1  13
BRANCH   2  19
ATOM     19  O   UNL     1     -12.257  16.005  69.638  0.00  0.00    -0.376 OA
BRANCH  19  20
ATOM     20  C   UNL     1     -12.349  15.788  71.031  0.00  0.00    +0.259 C 
BRANCH  20  21
ATOM     21  C   UNL     1     -13.695  15.202  71.415  0.00  0.00    +0.159 C 
ATOM     22  N   UNL     1     -14.217  15.916  72.566  0.00  0.00    -0.127 NA
ENDBRANCH  20  21
ENDBRANCH  19  20
ENDBRANCH   2  19
TORSDOF 10
ENDMDL
MODEL 5
REMARK VINA RESULT:      -5.9      4.366      6.514
REMARK  Name = 
REMARK  10 active torsions:
REMARK  status: ('A' for Active; 'I' for Inactive)
REMARK    1  A    between atoms: O_2  and  C_3
REMARK    2  A    between atoms: C_3  and  C_4
REMARK    3  A    between atoms: C_4  and  C_5
REMARK    4  A    between atoms: C_5  and  C_6
REMARK    5  A    between atoms: C_6  and  C_7
REMARK    6  A    between atoms: C_7  and  C_13
REMARK    7  A    between atoms: N_8  and  O_9
REMARK    8  A    between atoms: O_9  and  C_10
REMARK    9  A    between atoms: C_10  and  C_11
REMARK   10  A    between atoms: C_16  and  C_17
REMARK                            x       y       z     vdW  Elec       q    Type
REMARK                         _______ _______ _______ _____ _____    ______ ____
ROOT
ATOM      1  C   UNL     1     -10.950  14.736  68.636  0.00  0.00    +0.097 C 
ATOM      2  N   UNL     1     -11.331  14.547  69.866  0.00  0.00    -0.087 NA
ENDROOT
BRANCH   1   3
ATOM      3  C   UNL     1     -11.514  13.807  67.650  0.00  0.00    +0.017 A 
ATOM      4  C   UNL     1     -11.066  12.504  67.633  0.00  0.00    +0.001 A 
ATOM      5  C   UNL     1     -11.248  11.661  66.542  0.00  0.00    +0.004 A 
ATOM      6  C   UNL     1     -11.602  12.299  65.359  0.00  0.00    +0.071 A 
ATOM      7  C   UNL     1     -12.428  13.410  65.474  0.00  0.00    +0.004 A 
ATOM      8  C   UNL     1     -12.300  14.214  66.598  0.00  0.00    +0.001 A 
BRANCH   6   9
ATOM      9  C   UNL     1     -11.259  11.674  64.066  0.00  0.00    +0.419 C 
ATOM     10  F   UNL     1     -10.697  10.429  64.333  0.00  0.00    -0.166 F 
ATOM     11  F   UNL     1     -10.287  12.378  63.371  0.00  0.00    -0.166 F 
ATOM     12  F   UNL     1     -12.370  11.576  63.269  0.00  0.00    -0.166 F 
ENDBRANCH   6   9
ENDBRANCH   1   3
BRANCH   1  13
ATOM     13  C   UNL     1      -9.595  15.306  68.480  0.00  0.00    +0.049 C 
BRANCH  13  14
ATOM     14  C   UNL     1      -9.542  16.790  68.715  0.00  0.00    +0.009 C 
BRANCH  14  15
ATOM     15  C   UNL     1     -10.495  17.445  67.756  0.00  0.00    +0.032 C 
BRANCH  15  16
ATOM     16  C   UNL     1     -10.070  17.324  66.315  0.00  0.00    +0.142 C 
BRANCH  16  18
ATOM     17  C   UNL     1     -10.507  19.577  66.499  0.00  0.00    +0.174 C 
ATOM     18  O   UNL     1     -10.508  18.474  65.656  0.00  0.00    -0.351 OA
ENDBRANCH  16  18
ENDBRANCH  15  16
ENDBRANCH  14  15
ENDBRANCH  13  14
ENDBRANCH   1  13
BRANCH   2  19
ATOM     19  O   UNL     1     -12.670  14.361  70.159  0.00  0.00    -0.376 OA
BRANCH  19  20
ATOM     20  C   UNL     1     -13.255  15.290  71.047  0.00  0.00    +0.259 C 
BRANCH  20  21
ATOM     21  C   UNL     1     -14.468  14.705  71.746  0.00  0.00    +0.159 C 
ATOM     22  N   UNL     1     -14.067  13.530  72.496  0.00  0.00    -0.127 NA
ENDBRANCH  20  21
ENDBRANCH  19  20
ENDBRANCH   2  19
TORSDOF 10
ENDMDL
MODEL 6
REMARK VINA RESULT:      -5.9      4.059      6.514
REMARK  Name = 
REMARK  10 active torsions:
REMARK  status: ('A' for Active; 'I' for Inactive)
REMARK    1  A    between atoms: O_2  and  C_3
REMARK    2  A    between atoms: C_3  and  C_4
REMARK    3  A    between atoms: C_4  and  C_5
REMARK    4  A    between atoms: C_5  and  C_6
REMARK    5  A    between atoms: C_6  and  C_7
REMARK    6  A    between atoms: C_7  and  C_13
REMARK    7  A    between atoms: N_8  and  O_9
REMARK    8  A    between atoms: O_9  and  C_10
REMARK    9  A    between atoms: C_10  and  C_11
REMARK   10  A    between atoms: C_16  and  C_17
REMARK                            x       y       z     vdW  Elec       q    Type
REMARK                         _______ _______ _______ _____ _____    ______ ____
ROOT
ATOM      1  C   UNL     1     -11.000  15.335  68.486  0.00  0.00    +0.097 C 
ATOM      2  N   UNL     1     -11.480  16.506  68.789  0.00  0.00    -0.087 NA
ENDROOT
BRANCH   1   3
ATOM      3  C   UNL     1     -11.130  14.946  67.077  0.00  0.00    +0.017 A 
ATOM      4  C   UNL     1     -12.341  14.470  66.627  0.00  0.00    +0.001 A 
ATOM      5  C   UNL     1     -12.475  13.746  65.447  0.00  0.00    +0.004 A 
ATOM      6  C   UNL     1     -11.286  13.246  64.928  0.00  0.00    +0.071 A 
ATOM      7  C   UNL     1     -10.155  14.037  65.089  0.00  0.00    +0.004 A 
ATOM      8  C   UNL     1     -10.053  14.817  66.231  0.00  0.00    +0.001 A 
BRANCH   6   9
ATOM      9  C   UNL     1     -11.314  12.033  64.086  0.00  0.00    +0.419 C 
ATOM     10  F   UNL     1     -10.889  10.964  64.869  0.00  0.00    -0.166 F 
ATOM     11  F   UNL     1     -10.422  12.095  63.026  0.00  0.00    -0.166 F 
ATOM     12  F   UNL     1     -12.571  11.830  63.577  0.00  0.00    -0.166 F 
ENDBRANCH   6   9
ENDBRANCH   1   3
BRANCH   1  13
ATOM     13  C   UNL     1     -11.048  14.336  69.575  0.00  0.00    +0.049 C 
BRANCH  13  14
ATOM     14  C   UNL     1     -12.445  14.004  70.017  0.00  0.00    +0.009 C 
BRANCH  14  15
ATOM     15  C   UNL     1     -12.669  14.637  71.362  0.00  0.00    +0.032 C 
BRANCH  15  16
ATOM     16  C   UNL     1     -14.096  15.071  71.586  0.00  0.00    +0.142 C 
BRANCH  16  18
ATOM     17  C   UNL     1     -12.974  15.834  73.447  0.00  0.00    +0.174 C 
ATOM     18  O   UNL     1     -14.087  15.995  72.632  0.00  0.00    -0.351 OA
ENDBRANCH  16  18
ENDBRANCH  15  16
ENDBRANCH  14  15
ENDBRANCH  13  14
ENDBRANCH   1  13
BRANCH   2  19
ATOM     19  O   UNL     1     -11.181  17.605  68.004  0.00  0.00    -0.376 OA
BRANCH  19  20
ATOM     20  C   UNL     1      -9.956  18.254  68.271  0.00  0.00    +0.259 C 
BRANCH  20  21
ATOM     21  C   UNL     1      -9.219  18.601  66.990  0.00  0.00    +0.159 C 
ATOM     22  N   UNL     1     -10.114  18.429  65.862  0.00  0.00    -0.127 NA
ENDBRANCH  20  21
ENDBRANCH  19  20
ENDBRANCH   2  19
TORSDOF 10
ENDMDL
MODEL 7
REMARK VINA RESULT:      -5.8      4.111      5.494
REMARK  Name = 
REMARK  10 active torsions:
REMARK  status: ('A' for Active; 'I' for Inactive)
REMARK    1  A    between atoms: O_2  and  C_3
REMARK    2  A    between atoms: C_3  and  C_4
REMARK    3  A    between atoms: C_4  and  C_5
REMARK    4  A    between atoms: C_5  and  C_6
REMARK    5  A    between atoms: C_6  and  C_7
REMARK    6  A    between atoms: C_7  and  C_13
REMARK    7  A    between atoms: N_8  and  O_9
REMARK    8  A    between atoms: O_9  and  C_10
REMARK    9  A    between atoms: C_10  and  C_11
REMARK   10  A    between atoms: C_16  and  C_17
REMARK                            x       y       z     vdW  Elec       q    Type
REMARK                         _______ _______ _______ _____ _____    ______ ____
ROOT
ATOM      1  C   UNL     1     -11.888  12.147  69.226  0.00  0.00    +0.097 C 
ATOM      2  N   UNL     1     -11.517  13.326  69.631  0.00  0.00    -0.087 NA
ENDROOT
BRANCH   1   3
ATOM      3  C   UNL     1     -11.852  11.089  70.243  0.00  0.00    +0.017 A 
ATOM      4  C   UNL     1     -10.829  10.167  70.207  0.00  0.00    +0.001 A 
ATOM      5  C   UNL     1     -10.895   8.945  70.867  0.00  0.00    +0.004 A 
ATOM      6  C   UNL     1     -12.168   8.569  71.280  0.00  0.00    +0.071 A 
ATOM      7  C   UNL     1     -13.013   9.588  71.702  0.00  0.00    +0.004 A 
ATOM      8  C   UNL     1     -12.899  10.831  71.095  0.00  0.00    +0.001 A 
BRANCH   6   9
ATOM      9  C   UNL     1     -12.487   7.135  71.435  0.00  0.00    +0.419 C 
ATOM     10  F   UNL     1     -12.159   6.497  70.243  0.00  0.00    -0.166 F 
ATOM     11  F   UNL     1     -13.842   6.904  71.619  0.00  0.00    -0.166 F 
ATOM     12  F   UNL     1     -11.813   6.605  72.505  0.00  0.00    -0.166 F 
ENDBRANCH   6   9
ENDBRANCH   1   3
BRANCH   1  13
ATOM     13  C   UNL     1     -11.623  11.862  67.800  0.00  0.00    +0.049 C 
BRANCH  13  14
ATOM     14  C   UNL     1     -10.735  12.883  67.144  0.00  0.00    +0.009 C 
BRANCH  14  15
ATOM     15  C   UNL     1     -11.126  12.977  65.696  0.00  0.00    +0.032 C 
BRANCH  15  16
ATOM     16  C   UNL     1     -12.546  13.439  65.491  0.00  0.00    +0.142 C 
BRANCH  16  18
ATOM     17  C   UNL     1     -12.343  12.173  63.579  0.00  0.00    +0.174 C 
ATOM     18  O   UNL     1     -13.163  12.516  64.645  0.00  0.00    -0.351 OA
ENDBRANCH  16  18
ENDBRANCH  15  16
ENDBRANCH  14  15
ENDBRANCH  13  14
ENDBRANCH   1  13
BRANCH   2  19
ATOM     19  O   UNL     1     -12.013  13.843  70.816  0.00  0.00    -0.376 OA
BRANCH  19  20
ATOM     20  C   UNL     1     -12.872  14.958  70.705  0.00  0.00    +0.259 C 
BRANCH  20  21
ATOM     21  C   UNL     1     -14.124  14.782  71.544  0.00  0.00    +0.159 C 
ATOM     22  N   UNL     1     -13.846  13.862  72.631  0.00  0.00    -0.127 NA
ENDBRANCH  20  21
ENDBRANCH  19  20
ENDBRANCH   2  19
TORSDOF 10
ENDMDL
MODEL 8
REMARK VINA RESULT:      -5.8      1.807      4.122
REMARK  Name = 
REMARK  10 active torsions:
REMARK  status: ('A' for Active; 'I' for Inactive)
REMARK    1  A    between atoms: O_2  and  C_3
REMARK    2  A    between atoms: C_3  and  C_4
REMARK    3  A    between atoms: C_4  and  C_5
REMARK    4  A    between atoms: C_5  and  C_6
REMARK    5  A    between atoms: C_6  and  C_7
REMARK    6  A    between atoms: C_7  and  C_13
REMARK    7  A    between atoms: N_8  and  O_9
REMARK    8  A    between atoms: O_9  and  C_10
REMARK    9  A    between atoms: C_10  and  C_11
REMARK   10  A    between atoms: C_16  and  C_17
REMARK                            x       y       z     vdW  Elec       q    Type
REMARK                         _______ _______ _______ _____ _____    ______ ____
ROOT
ATOM      1  C   UNL     1     -10.297  14.788  68.066  0.00  0.00    +0.097 C 
ATOM      2  N   UNL     1     -11.099  15.028  67.071  0.00  0.00    -0.087 NA
ENDROOT
BRANCH   1   3
ATOM      3  C   UNL     1     -10.924  14.769  69.393  0.00  0.00    +0.017 A 
ATOM      4  C   UNL     1     -11.606  13.639  69.789  0.00  0.00    +0.001 A 
ATOM      5  C   UNL     1     -12.525  13.642  70.833  0.00  0.00    +0.004 A 
ATOM      6  C   UNL     1     -12.960  14.902  71.227  0.00  0.00    +0.071 A 
ATOM      7  C   UNL     1     -12.027  15.930  71.172  0.00  0.00    +0.004 A 
ATOM      8  C   UNL     1     -11.063  15.891  70.174  0.00  0.00    +0.001 A 
BRANCH   6   9
ATOM      9  C   UNL     1     -14.290  15.047  71.853  0.00  0.00    +0.419 C 
ATOM     10  F   UNL     1     -14.674  13.797  72.327  0.00  0.00    -0.166 F 
ATOM     11  F   UNL     1     -15.272  15.418  70.947  0.00  0.00    -0.166 F 
ATOM     12  F   UNL     1     -14.252  15.986  72.852  0.00  0.00    -0.166 F 
ENDBRANCH   6   9
ENDBRANCH   1   3
BRANCH   1  13
ATOM     13  C   UNL     1      -8.904  15.244  67.873  0.00  0.00    +0.049 C 
BRANCH  13  14
ATOM     14  C   UNL     1      -8.586  15.597  66.446  0.00  0.00    +0.009 C 
BRANCH  14  15
ATOM     15  C   UNL     1      -7.907  16.938  66.440  0.00  0.00    +0.032 C 
BRANCH  15  16
ATOM     16  C   UNL     1      -8.771  18.046  66.986  0.00  0.00    +0.142 C 
BRANCH  16  18
ATOM     17  C   UNL     1     -10.432  19.493  66.316  0.00  0.00    +0.174 C 
ATOM     18  O   UNL     1      -9.424  18.633  65.902  0.00  0.00    -0.351 OA
ENDBRANCH  16  18
ENDBRANCH  15  16
ENDBRANCH  14  15
ENDBRANCH  13  14
ENDBRANCH   1  13
BRANCH   2  19
ATOM     19  O   UNL     1     -12.306  14.358  66.972  0.00  0.00    -0.376 OA
BRANCH  19  20
ATOM     20  C   UNL     1     -12.766  14.080  65.667  0.00  0.00    +0.259 C 
BRANCH  20  21
ATOM     21  C   UNL     1     -12.241  12.748  65.164  0.00  0.00    +0.159 C 
ATOM     22  N   UNL     1     -13.195  12.179  64.231  0.00  0.00    -0.127 NA
ENDBRANCH  20  21
ENDBRANCH  19  20
ENDBRANCH   2  19
TORSDOF 10
ENDMDL
MODEL 9
REMARK VINA RESULT:      -5.7      1.830      4.213
REMARK  Name = 
REMARK  10 active torsions:
REMARK  status: ('A' for Active; 'I' for Inactive)
REMARK    1  A    between atoms: O_2  and  C_3
REMARK    2  A    between atoms: C_3  and  C_4
REMARK    3  A    between atoms: C_4  and  C_5
REMARK    4  A    between atoms: C_5  and  C_6
REMARK    5  A    between atoms: C_6  and  C_7
REMARK    6  A    between atoms: C_7  and  C_13
REMARK    7  A    between atoms: N_8  and  O_9
REMARK    8  A    between atoms: O_9  and  C_10
REMARK    9  A    between atoms: C_10  and  C_11
REMARK   10  A    between atoms: C_16  and  C_17
REMARK                            x       y       z     vdW  Elec       q    Type
REMARK                         _______ _______ _______ _____ _____    ______ ____
ROOT
ATOM      1  C   UNL     1     -10.548  13.444  68.196  0.00  0.00    +0.097 C 
ATOM      2  N   UNL     1     -10.932  13.373  66.955  0.00  0.00    -0.087 NA
ENDROOT
BRANCH   1   3
ATOM      3  C   UNL     1     -11.592  13.811  69.160  0.00  0.00    +0.017 A 
ATOM      4  C   UNL     1     -11.991  15.127  69.240  0.00  0.00    +0.001 A 
ATOM      5  C   UNL     1     -12.679  15.640  70.334  0.00  0.00    +0.004 A 
ATOM      6  C   UNL     1     -12.646  14.844  71.473  0.00  0.00    +0.071 A 
ATOM      7  C   UNL     1     -12.662  13.469  71.273  0.00  0.00    +0.004 A 
ATOM      8  C   UNL     1     -12.038  12.960  70.143  0.00  0.00    +0.001 A 
BRANCH   6   9
ATOM      9  C   UNL     1     -12.791  15.472  72.802  0.00  0.00    +0.419 C 
ATOM     10  F   UNL     1     -11.773  16.411  72.940  0.00  0.00    -0.166 F 
ATOM     11  F   UNL     1     -12.609  14.573  73.843  0.00  0.00    -0.166 F 
ATOM     12  F   UNL     1     -14.033  16.036  72.935  0.00  0.00    -0.166 F 
ENDBRANCH   6   9
ENDBRANCH   1   3
BRANCH   1  13
ATOM     13  C   UNL     1      -9.136  13.834  68.394  0.00  0.00    +0.049 C 
BRANCH  13  14
ATOM     14  C   UNL     1      -8.731  15.034  67.583  0.00  0.00    +0.009 C 
BRANCH  14  15
ATOM     15  C   UNL     1      -8.658  16.216  68.508  0.00  0.00    +0.032 C 
BRANCH  15  16
ATOM     16  C   UNL     1      -8.831  17.537  67.801  0.00  0.00    +0.142 C 
BRANCH  16  18
ATOM     17  C   UNL     1     -10.538  19.031  67.408  0.00  0.00    +0.174 C 
ATOM     18  O   UNL     1      -9.990  18.127  68.308  0.00  0.00    -0.351 OA
ENDBRANCH  16  18
ENDBRANCH  15  16
ENDBRANCH  14  15
ENDBRANCH  13  14
ENDBRANCH   1  13
BRANCH   2  19
ATOM     19  O   UNL     1     -12.091  12.693  66.622  0.00  0.00    -0.376 OA
BRANCH  19  20
ATOM     20  C   UNL     1     -12.431  12.664  65.252  0.00  0.00    +0.259 C 
BRANCH  20  21
ATOM     21  C   UNL     1     -11.665  13.711  64.466  0.00  0.00    +0.159 C 
ATOM     22  N   UNL     1     -12.578  14.757  64.045  0.00  0.00    -0.127 NA
ENDBRANCH  20  21
ENDBRANCH  19  20
ENDBRANCH   2  19
TORSDOF 10
ENDMDL
