MODEL 1
REMARK VINA RESULT:      -6.1      0.000      0.000
REMARK  Name = 
REMARK  6 active torsions:
REMARK  status: ('A' for Active; 'I' for Inactive)
REMARK    1  A    between atoms: C_2  and  N_4
REMARK    2  A    between atoms: N_4  and  C_5
REMARK    3  A    between atoms: C_5  and  C_6
REMARK    4  A    between atoms: C_6  and  C_8
REMARK    5  A    between atoms: C_8  and  O_9
REMARK    6  A    between atoms: O_9  and  C_10
REMARK                            x       y       z     vdW  Elec       q    Type
REMARK                         _______ _______ _______ _____ _____    ______ ____
ROOT
ATOM      1  C   UNL     1     -11.583  13.338  69.409  0.00  0.00    +0.139 A 
ATOM      2  C   UNL     1     -12.207  13.800  70.535  0.00  0.00    +0.034 A 
ATOM      3  C   UNL     1     -12.943  12.923  71.318  0.00  0.00    +0.003 A 
ATOM      4  C   UNL     1     -13.696  13.394  72.372  0.00  0.00    +0.000 A 
ATOM      5  C   UNL     1     -13.864  14.760  72.473  0.00  0.00    +0.000 A 
ATOM      6  C   UNL     1     -12.949  15.582  71.837  0.00  0.00    +0.000 A 
ATOM      7  C   UNL     1     -12.735  11.561  71.190  0.00  0.00    +0.000 A 
ATOM      8  C   UNL     1     -12.086  11.133  70.041  0.00  0.00    +0.003 A 
ATOM      9  C   UNL     1     -11.894  15.021  71.123  0.00  0.00    +0.003 A 
ATOM     10  C   UNL     1     -11.651  12.015  69.068  0.00  0.00    +0.037 A 
ENDROOT
BRANCH   1  11
ATOM     11  O   UNL     1     -10.877  14.213  68.605  0.00  0.00    -0.473 OA
BRANCH  11  12
ATOM     12  C   UNL     1     -11.481  14.888  67.576  0.00  0.00    +0.240 C 
BRANCH  12  13
ATOM     13  C   UNL     1     -10.960  14.268  66.143  0.00  0.00    +0.213 C 
ATOM     14  O   UNL     1     -11.021  15.605  65.425  0.00  0.00    -0.218 OA
BRANCH  13  15
ATOM     15  C   UNL     1     -12.493  13.874  65.676  0.00  0.00    +0.125 C 
BRANCH  15  16
ATOM     16  N   UNL     1     -12.310  12.442  65.458  0.00  0.00    -0.217 NA
BRANCH  16  18
ATOM     17  C   UNL     1     -12.465  11.848  63.297  0.00  0.00    +0.019 C 
ATOM     18  C   UNL     1     -11.631  12.164  64.216  0.00  0.00    +0.073 C 
ATOM     19  C   UNL     1     -10.667  11.001  64.357  0.00  0.00    +0.019 C 
ENDBRANCH  16  18
ENDBRANCH  15  16
ENDBRANCH  13  15
ENDBRANCH  12  13
ENDBRANCH  11  12
ENDBRANCH   1  11
TORSDOF 6
ENDMDL
MODEL 2
REMARK VINA RESULT:      -6.0      2.108      3.430
REMARK  Name = 
REMARK  6 active torsions:
REMARK  status: ('A' for Active; 'I' for Inactive)
REMARK    1  A    between atoms: C_2  and  N_4
REMARK    2  A    between atoms: N_4  and  C_5
REMARK    3  A    between atoms: C_5  and  C_6
REMARK    4  A    between atoms: C_6  and  C_8
REMARK    5  A    between atoms: C_8  and  O_9
REMARK    6  A    between atoms: O_9  and  C_10
REMARK                            x       y       z     vdW  Elec       q    Type
REMARK                         _______ _______ _______ _____ _____    ______ ____
ROOT
ATOM      1  C   UNL     1     -11.720  13.362  69.023  0.00  0.00    +0.139 A 
ATOM      2  C   UNL     1     -12.267  13.813  70.193  0.00  0.00    +0.034 A 
ATOM      3  C   UNL     1     -12.803  12.905  71.092  0.00  0.00    +0.003 A 
ATOM      4  C   UNL     1     -13.486  13.346  72.205  0.00  0.00    +0.000 A 
ATOM      5  C   UNL     1     -13.804  14.687  72.265  0.00  0.00    +0.000 A 
ATOM      6  C   UNL     1     -13.068  15.570  71.492  0.00  0.00    +0.000 A 
ATOM      7  C   UNL     1     -12.448  11.569  71.001  0.00  0.00    +0.000 A 
ATOM      8  C   UNL     1     -11.883  11.154  69.804  0.00  0.00    +0.003 A 
ATOM      9  C   UNL     1     -12.039  15.093  70.686  0.00  0.00    +0.003 A 
ATOM     10  C   UNL     1     -11.666  12.023  68.750  0.00  0.00    +0.037 A 
ENDROOT
BRANCH   1  11
ATOM     11  O   UNL     1     -11.216  14.265  68.105  0.00  0.00    -0.473 OA
BRANCH  11  12
ATOM     12  C   UNL     1     -10.608  13.850  66.949  0.00  0.00    +0.240 C 
BRANCH  12  13
ATOM     13  C   UNL     1     -11.049  14.848  65.716  0.00  0.00    +0.213 C 
ATOM     14  O   UNL     1     -10.344  14.018  64.658  0.00  0.00    -0.218 OA
BRANCH  13  15
ATOM     15  C   UNL     1      -9.728  15.812  65.931  0.00  0.00    +0.125 C 
BRANCH  15  16
ATOM     16  N   UNL     1     -10.323  17.101  65.591  0.00  0.00    -0.217 NA
BRANCH  16  18
ATOM     17  C   UNL     1     -10.496  17.895  67.685  0.00  0.00    +0.019 C 
ATOM     18  C   UNL     1      -9.974  18.130  66.539  0.00  0.00    +0.073 C 
ATOM     19  C   UNL     1     -10.477  19.491  66.096  0.00  0.00    +0.019 C 
ENDBRANCH  16  18
ENDBRANCH  15  16
ENDBRANCH  13  15
ENDBRANCH  12  13
ENDBRANCH  11  12
ENDBRANCH   1  11
TORSDOF 6
ENDMDL
MODEL 3
REMARK VINA RESULT:      -6.0      2.145      6.388
REMARK  Name = 
REMARK  6 active torsions:
REMARK  status: ('A' for Active; 'I' for Inactive)
REMARK    1  A    between atoms: C_2  and  N_4
REMARK    2  A    between atoms: N_4  and  C_5
REMARK    3  A    between atoms: C_5  and  C_6
REMARK    4  A    between atoms: C_6  and  C_8
REMARK    5  A    between atoms: C_8  and  O_9
REMARK    6  A    between atoms: O_9  and  C_10
REMARK                            x       y       z     vdW  Elec       q    Type
REMARK                         _______ _______ _______ _____ _____    ______ ____
ROOT
ATOM      1  C   UNL     1     -11.416  12.903  67.448  0.00  0.00    +0.139 A 
ATOM      2  C   UNL     1     -11.499  12.582  66.121  0.00  0.00    +0.034 A 
ATOM      3  C   UNL     1     -10.813  11.477  65.640  0.00  0.00    +0.003 A 
ATOM      4  C   UNL     1     -10.765  11.221  64.287  0.00  0.00    +0.000 A 
ATOM      5  C   UNL     1     -11.221  12.208  63.437  0.00  0.00    +0.000 A 
ATOM      6  C   UNL     1     -12.088  13.161  63.945  0.00  0.00    +0.000 A 
ATOM      7  C   UNL     1     -10.381  10.507  66.529  0.00  0.00    +0.000 A 
ATOM      8  C   UNL     1     -10.325  10.866  67.867  0.00  0.00    +0.003 A 
ATOM      9  C   UNL     1     -12.476  13.102  65.280  0.00  0.00    +0.003 A 
ATOM     10  C   UNL     1     -10.692  12.124  68.309  0.00  0.00    +0.037 A 
ENDROOT
BRANCH   1  11
ATOM     11  O   UNL     1     -12.069  14.023  67.927  0.00  0.00    -0.473 OA
BRANCH  11  12
ATOM     12  C   UNL     1     -12.068  14.339  69.262  0.00  0.00    +0.240 C 
BRANCH  12  13
ATOM     13  C   UNL     1     -11.590  15.903  69.447  0.00  0.00    +0.213 C 
ATOM     14  O   UNL     1     -10.126  15.542  69.627  0.00  0.00    -0.218 OA
BRANCH  13  15
ATOM     15  C   UNL     1     -11.865  15.868  71.074  0.00  0.00    +0.125 C 
BRANCH  15  16
ATOM     16  N   UNL     1     -13.313  15.686  71.061  0.00  0.00    -0.217 NA
BRANCH  16  18
ATOM     17  C   UNL     1     -13.109  15.697  73.298  0.00  0.00    +0.019 C 
ATOM     18  C   UNL     1     -13.816  15.236  72.336  0.00  0.00    +0.073 C 
ATOM     19  C   UNL     1     -13.781  13.723  72.446  0.00  0.00    +0.019 C 
ENDBRANCH  16  18
ENDBRANCH  15  16
ENDBRANCH  13  15
ENDBRANCH  12  13
ENDBRANCH  11  12
ENDBRANCH   1  11
TORSDOF 6
ENDMDL
MODEL 4
REMARK VINA RESULT:      -5.9      1.794      2.692
REMARK  Name = 
REMARK  6 active torsions:
REMARK  status: ('A' for Active; 'I' for Inactive)
REMARK    1  A    between atoms: C_2  and  N_4
REMARK    2  A    between atoms: N_4  and  C_5
REMARK    3  A    between atoms: C_5  and  C_6
REMARK    4  A    between atoms: C_6  and  C_8
REMARK    5  A    between atoms: C_8  and  O_9
REMARK    6  A    between atoms: O_9  and  C_10
REMARK                            x       y       z     vdW  Elec       q    Type
REMARK                         _______ _______ _______ _____ _____    ______ ____
ROOT
ATOM      1  C   UNL     1     -11.899  12.581  69.246  0.00  0.00    +0.139 A 
ATOM      2  C   UNL     1     -12.343  13.413  70.236  0.00  0.00    +0.034 A 
ATOM      3  C   UNL     1     -12.971  12.878  71.349  0.00  0.00    +0.003 A 
ATOM      4  C   UNL     1     -13.554  13.704  72.286  0.00  0.00    +0.000 A 
ATOM      5  C   UNL     1     -13.683  15.039  71.963  0.00  0.00    +0.000 A 
ATOM      6  C   UNL     1     -12.856  15.558  70.980  0.00  0.00    +0.000 A 
ATOM      7  C   UNL     1     -12.807  11.534  71.641  0.00  0.00    +0.000 A 
ATOM      8  C   UNL     1     -12.340  10.725  70.615  0.00  0.00    +0.003 A 
ATOM      9  C   UNL     1     -11.927  14.735  70.351  0.00  0.00    +0.003 A 
ATOM     10  C   UNL     1     -12.037  11.224  69.362  0.00  0.00    +0.037 A 
ENDROOT
BRANCH   1  11
ATOM     11  O   UNL     1     -11.303  13.110  68.116  0.00  0.00    -0.473 OA
BRANCH  11  12
ATOM     12  C   UNL     1     -11.676  12.717  66.857  0.00  0.00    +0.240 C 
BRANCH  12  13
ATOM     13  C   UNL     1     -12.328  14.001  66.060  0.00  0.00    +0.213 C 
ATOM     14  O   UNL     1     -12.902  13.146  64.943  0.00  0.00    -0.218 OA
BRANCH  13  15
ATOM     15  C   UNL     1     -10.935  14.278  65.220  0.00  0.00    +0.125 C 
BRANCH  15  16
ATOM     16  N   UNL     1     -10.952  15.738  65.216  0.00  0.00    -0.217 NA
BRANCH  16  18
ATOM     17  C   UNL     1      -8.964  15.442  66.220  0.00  0.00    +0.019 C 
ATOM     18  C   UNL     1      -9.899  16.295  66.029  0.00  0.00    +0.073 C 
ATOM     19  C   UNL     1     -10.409  16.707  67.397  0.00  0.00    +0.019 C 
ENDBRANCH  16  18
ENDBRANCH  15  16
ENDBRANCH  13  15
ENDBRANCH  12  13
ENDBRANCH  11  12
ENDBRANCH   1  11
TORSDOF 6
ENDMDL
MODEL 5
REMARK VINA RESULT:      -5.9      0.573      2.380
REMARK  Name = 
REMARK  6 active torsions:
REMARK  status: ('A' for Active; 'I' for Inactive)
REMARK    1  A    between atoms: C_2  and  N_4
REMARK    2  A    between atoms: N_4  and  C_5
REMARK    3  A    between atoms: C_5  and  C_6
REMARK    4  A    between atoms: C_6  and  C_8
REMARK    5  A    between atoms: C_8  and  O_9
REMARK    6  A    between atoms: O_9  and  C_10
REMARK                            x       y       z     vdW  Elec       q    Type
REMARK                         _______ _______ _______ _____ _____    ______ ____
ROOT
ATOM      1  C   UNL     1     -11.752  14.433  69.892  0.00  0.00    +0.139 A 
ATOM      2  C   UNL     1     -12.106  13.165  70.262  0.00  0.00    +0.034 A 
ATOM      3  C   UNL     1     -12.939  12.979  71.355  0.00  0.00    +0.003 A 
ATOM      4  C   UNL     1     -13.190  11.710  71.831  0.00  0.00    +0.000 A 
ATOM      5  C   UNL     1     -12.420  10.680  71.333  0.00  0.00    +0.000 A 
ATOM      6  C   UNL     1     -11.789  10.864  70.114  0.00  0.00    +0.000 A 
ATOM      7  C   UNL     1     -13.701  14.039  71.815  0.00  0.00    +0.000 A 
ATOM      8  C   UNL     1     -13.319  15.308  71.406  0.00  0.00    +0.003 A 
ATOM      9  C   UNL     1     -11.945  12.064  69.428  0.00  0.00    +0.003 A 
ATOM     10  C   UNL     1     -12.239  15.518  70.568  0.00  0.00    +0.037 A 
ENDROOT
BRANCH   1  11
ATOM     11  O   UNL     1     -10.894  14.624  68.825  0.00  0.00    -0.473 OA
BRANCH  11  12
ATOM     12  C   UNL     1     -11.313  15.222  67.664  0.00  0.00    +0.240 C 
BRANCH  12  13
ATOM     13  C   UNL     1     -10.834  14.308  66.381  0.00  0.00    +0.213 C 
ATOM     14  O   UNL     1     -10.816  15.485  65.421  0.00  0.00    -0.218 OA
BRANCH  13  15
ATOM     15  C   UNL     1     -12.389  13.925  65.984  0.00  0.00    +0.125 C 
BRANCH  15  16
ATOM     16  N   UNL     1     -12.215  12.502  65.709  0.00  0.00    -0.217 NA
BRANCH  16  18
ATOM     17  C   UNL     1     -12.354  12.083  63.507  0.00  0.00    +0.019 C 
ATOM     18  C   UNL     1     -11.525  12.268  64.465  0.00  0.00    +0.073 C 
ATOM     19  C   UNL     1     -10.651  11.030  64.536  0.00  0.00    +0.019 C 
ENDBRANCH  16  18
ENDBRANCH  15  16
ENDBRANCH  13  15
ENDBRANCH  12  13
ENDBRANCH  11  12
ENDBRANCH   1  11
TORSDOF 6
ENDMDL
MODEL 6
REMARK VINA RESULT:      -5.9      3.857      5.183
REMARK  Name = 
REMARK  6 active torsions:
REMARK  status: ('A' for Active; 'I' for Inactive)
REMARK    1  A    between atoms: C_2  and  N_4
REMARK    2  A    between atoms: N_4  and  C_5
REMARK    3  A    between atoms: C_5  and  C_6
REMARK    4  A    between atoms: C_6  and  C_8
REMARK    5  A    between atoms: C_8  and  O_9
REMARK    6  A    between atoms: O_9  and  C_10
REMARK                            x       y       z     vdW  Elec       q    Type
REMARK                         _______ _______ _______ _____ _____    ______ ____
ROOT
ATOM      1  C   UNL     1     -11.768  15.461  69.230  0.00  0.00    +0.139 A 
ATOM      2  C   UNL     1     -12.173  15.146  70.498  0.00  0.00    +0.034 A 
ATOM      3  C   UNL     1     -12.507  13.836  70.804  0.00  0.00    +0.003 A 
ATOM      4  C   UNL     1     -13.053  13.524  72.031  0.00  0.00    +0.000 A 
ATOM      5  C   UNL     1     -13.455  14.572  72.832  0.00  0.00    +0.000 A 
ATOM      6  C   UNL     1     -12.904  15.822  72.602  0.00  0.00    +0.000 A 
ATOM      7  C   UNL     1     -12.074  12.814  69.976  0.00  0.00    +0.000 A 
ATOM      8  C   UNL     1     -11.658  13.176  68.703  0.00  0.00    +0.003 A 
ATOM      9  C   UNL     1     -11.969  15.990  71.585  0.00  0.00    +0.003 A 
ATOM     10  C   UNL     1     -11.658  14.490  68.273  0.00  0.00    +0.037 A 
ENDROOT
BRANCH   1  11
ATOM     11  O   UNL     1     -11.468  16.772  68.909  0.00  0.00    -0.473 OA
BRANCH  11  12
ATOM     12  C   UNL     1     -10.601  17.081  67.893  0.00  0.00    +0.240 C 
BRANCH  12  13
ATOM     13  C   UNL     1      -9.965  18.576  68.160  0.00  0.00    +0.213 C 
ATOM     14  O   UNL     1     -11.094  19.295  67.441  0.00  0.00    -0.218 OA
BRANCH  13  15
ATOM     15  C   UNL     1      -9.049  18.509  66.790  0.00  0.00    +0.125 C 
BRANCH  15  16
ATOM     16  N   UNL     1      -7.722  18.607  67.392  0.00  0.00    -0.217 NA
BRANCH  16  18
ATOM     17  C   UNL     1      -7.018  20.737  67.278  0.00  0.00    +0.019 C 
ATOM     18  C   UNL     1      -7.523  19.866  68.068  0.00  0.00    +0.073 C 
ATOM     19  C   UNL     1      -6.569  19.725  69.239  0.00  0.00    +0.019 C 
ENDBRANCH  16  18
ENDBRANCH  15  16
ENDBRANCH  13  15
ENDBRANCH  12  13
ENDBRANCH  11  12
ENDBRANCH   1  11
TORSDOF 6
ENDMDL
MODEL 7
REMARK VINA RESULT:      -5.8      3.717      5.558
REMARK  Name = 
REMARK  6 active torsions:
REMARK  status: ('A' for Active; 'I' for Inactive)
REMARK    1  A    between atoms: C_2  and  N_4
REMARK    2  A    between atoms: N_4  and  C_5
REMARK    3  A    between atoms: C_5  and  C_6
REMARK    4  A    between atoms: C_6  and  C_8
REMARK    5  A    between atoms: C_8  and  O_9
REMARK    6  A    between atoms: O_9  and  C_10
REMARK                            x       y       z     vdW  Elec       q    Type
REMARK                         _______ _______ _______ _____ _____    ______ ____
ROOT
ATOM      1  C   UNL     1     -12.647  12.218  71.096  0.00  0.00    +0.139 A 
ATOM      2  C   UNL     1     -12.676  13.521  71.511  0.00  0.00    +0.034 A 
ATOM      3  C   UNL     1     -12.012  14.489  70.773  0.00  0.00    +0.003 A 
ATOM      4  C   UNL     1     -11.907  15.778  71.249  0.00  0.00    +0.000 A 
ATOM      5  C   UNL     1     -12.279  16.005  72.558  0.00  0.00    +0.000 A 
ATOM      6  C   UNL     1     -13.132  15.096  73.163  0.00  0.00    +0.000 A 
ATOM      7  C   UNL     1     -11.665  14.222  69.459  0.00  0.00    +0.000 A 
ATOM      8  C   UNL     1     -11.662  12.889  69.073  0.00  0.00    +0.003 A 
ATOM      9  C   UNL     1     -13.588  13.993  72.448  0.00  0.00    +0.003 A 
ATOM     10  C   UNL     1     -11.999  11.868  69.943  0.00  0.00    +0.037 A 
ENDROOT
BRANCH   1  11
ATOM     11  O   UNL     1     -13.277  11.243  71.846  0.00  0.00    -0.473 OA
BRANCH  11  12
ATOM     12  C   UNL     1     -12.759   9.978  71.960  0.00  0.00    +0.240 C 
BRANCH  12  13
ATOM     13  C   UNL     1     -13.828   8.896  71.331  0.00  0.00    +0.213 C 
ATOM     14  O   UNL     1     -14.543   8.680  72.653  0.00  0.00    -0.218 OA
BRANCH  13  15
ATOM     15  C   UNL     1     -12.810   7.627  71.600  0.00  0.00    +0.125 C 
BRANCH  15  16
ATOM     16  N   UNL     1     -11.538   8.283  71.309  0.00  0.00    -0.217 NA
BRANCH  16  18
ATOM     17  C   UNL     1     -10.521   8.257  69.307  0.00  0.00    +0.019 C 
ATOM     18  C   UNL     1     -10.755   7.548  70.347  0.00  0.00    +0.073 C 
ATOM     19  C   UNL     1     -11.476   6.299  69.876  0.00  0.00    +0.019 C 
ENDBRANCH  16  18
ENDBRANCH  15  16
ENDBRANCH  13  15
ENDBRANCH  12  13
ENDBRANCH  11  12
ENDBRANCH   1  11
TORSDOF 6
ENDMDL
MODEL 8
REMARK VINA RESULT:      -5.7      3.125      4.775
REMARK  Name = 
REMARK  6 active torsions:
REMARK  status: ('A' for Active; 'I' for Inactive)
REMARK    1  A    between atoms: C_2  and  N_4
REMARK    2  A    between atoms: N_4  and  C_5
REMARK    3  A    between atoms: C_5  and  C_6
REMARK    4  A    between atoms: C_6  and  C_8
REMARK    5  A    between atoms: C_8  and  O_9
REMARK    6  A    between atoms: O_9  and  C_10
REMARK                            x       y       z     vdW  Elec       q    Type
REMARK                         _______ _______ _______ _____ _____    ______ ____
ROOT
ATOM      1  C   UNL     1     -12.240  14.702  70.234  0.00  0.00    +0.139 A 
ATOM      2  C   UNL     1     -12.330  13.345  70.382  0.00  0.00    +0.034 A 
ATOM      3  C   UNL     1     -12.993  12.819  71.481  0.00  0.00    +0.003 A 
ATOM      4  C   UNL     1     -12.970  11.463  71.724  0.00  0.00    +0.000 A 
ATOM      5  C   UNL     1     -12.096  10.698  70.981  0.00  0.00    +0.000 A 
ATOM      6  C   UNL     1     -11.644  11.206  69.774  0.00  0.00    +0.000 A 
ATOM      7  C   UNL     1     -13.869  13.621  72.192  0.00  0.00    +0.000 A 
ATOM      8  C   UNL     1     -13.755  14.991  72.004  0.00  0.00    +0.003 A 
ATOM      9  C   UNL     1     -12.078  12.456  69.343  0.00  0.00    +0.003 A 
ATOM     10  C   UNL     1     -12.826  15.542  71.140  0.00  0.00    +0.037 A 
ENDROOT
BRANCH   1  11
ATOM     11  O   UNL     1     -11.551  15.233  69.160  0.00  0.00    -0.473 OA
BRANCH  11  12
ATOM     12  C   UNL     1     -10.688  16.288  69.310  0.00  0.00    +0.240 C 
BRANCH  12  13
ATOM     13  C   UNL     1      -9.429  16.112  68.264  0.00  0.00    +0.213 C 
ATOM     14  O   UNL     1      -8.670  17.305  68.819  0.00  0.00    -0.218 OA
BRANCH  13  15
ATOM     15  C   UNL     1     -10.166  17.036  67.112  0.00  0.00    +0.125 C 
BRANCH  15  16
ATOM     16  N   UNL     1     -10.562  18.170  67.942  0.00  0.00    -0.217 NA
BRANCH  16  18
ATOM     17  C   UNL     1     -10.581  19.148  65.920  0.00  0.00    +0.019 C 
ATOM     18  C   UNL     1     -10.722  19.378  67.171  0.00  0.00    +0.073 C 
ATOM     19  C   UNL     1      -9.686  20.421  67.548  0.00  0.00    +0.019 C 
ENDBRANCH  16  18
ENDBRANCH  15  16
ENDBRANCH  13  15
ENDBRANCH  12  13
ENDBRANCH  11  12
ENDBRANCH   1  11
TORSDOF 6
ENDMDL
MODEL 9
REMARK VINA RESULT:      -5.4      3.786      6.357
REMARK  Name = 
REMARK  6 active torsions:
REMARK  status: ('A' for Active; 'I' for Inactive)
REMARK    1  A    between atoms: C_2  and  N_4
REMARK    2  A    between atoms: N_4  and  C_5
REMARK    3  A    between atoms: C_5  and  C_6
REMARK    4  A    between atoms: C_6  and  C_8
REMARK    5  A    between atoms: C_8  and  O_9
REMARK    6  A    between atoms: O_9  and  C_10
REMARK                            x       y       z     vdW  Elec       q    Type
REMARK                         _______ _______ _______ _____ _____    ______ ____
ROOT
ATOM      1  C   UNL     1      -9.545  17.666  66.345  0.00  0.00    +0.139 A 
ATOM      2  C   UNL     1      -8.640  17.843  67.355  0.00  0.00    +0.034 A 
ATOM      3  C   UNL     1      -8.650  19.022  68.085  0.00  0.00    +0.003 A 
ATOM      4  C   UNL     1      -7.658  19.279  69.007  0.00  0.00    +0.000 A 
ATOM      5  C   UNL     1      -6.561  18.443  69.010  0.00  0.00    +0.000 A 
ATOM      6  C   UNL     1      -6.695  17.183  68.451  0.00  0.00    +0.000 A 
ATOM      7  C   UNL     1      -9.777  19.826  68.060  0.00  0.00    +0.000 A 
ATOM      8  C   UNL     1     -10.677  19.607  67.028  0.00  0.00    +0.003 A 
ATOM      9  C   UNL     1      -7.916  16.793  67.910  0.00  0.00    +0.003 A 
ATOM     10  C   UNL     1     -10.480  18.627  66.071  0.00  0.00    +0.037 A 
ENDROOT
BRANCH   1  11
ATOM     11  O   UNL     1      -9.518  16.508  65.590  0.00  0.00    -0.473 OA
BRANCH  11  12
ATOM     12  C   UNL     1     -10.671  15.877  65.202  0.00  0.00    +0.240 C 
BRANCH  12  13
ATOM     13  C   UNL     1     -10.508  14.256  65.440  0.00  0.00    +0.213 C 
ATOM     14  O   UNL     1     -11.642  13.901  64.494  0.00  0.00    -0.218 OA
BRANCH  13  15
ATOM     15  C   UNL     1     -11.517  14.275  66.746  0.00  0.00    +0.125 C 
BRANCH  15  16
ATOM     16  N   UNL     1     -10.533  14.060  67.803  0.00  0.00    -0.217 NA
BRANCH  16  18
ATOM     17  C   UNL     1     -11.838  13.894  69.623  0.00  0.00    +0.019 C 
ATOM     18  C   UNL     1     -10.953  14.627  69.060  0.00  0.00    +0.073 C 
ATOM     19  C   UNL     1     -11.570  16.000  68.874  0.00  0.00    +0.019 C 
ENDBRANCH  16  18
ENDBRANCH  15  16
ENDBRANCH  13  15
ENDBRANCH  12  13
ENDBRANCH  11  12
ENDBRANCH   1  11
TORSDOF 6
ENDMDL
