MODEL 1
REMARK VINA RESULT:      -7.6      0.000      0.000
REMARK  Name = 
REMARK  6 active torsions:
REMARK  status: ('A' for Active; 'I' for Inactive)
REMARK    1  A    between atoms: C_3  and  C_5
REMARK    2  A    between atoms: C_7  and  O_8
REMARK    3  A    between atoms: O_8  and  C_9
REMARK    4  A    between atoms: C_12  and  N_13
REMARK    5  A    between atoms: N_16  and  C_17
REMARK    6  A    between atoms: C_22  and  C_23
REMARK                            x       y       z     vdW  Elec       q    Type
REMARK                         _______ _______ _______ _____ _____    ______ ____
ROOT
ATOM      1  C   UNL     1     -10.588  15.424  65.357  0.00  0.00    +0.148 A 
ATOM      2  C   UNL     1      -9.726  14.333  65.336  0.00  0.00    +0.068 A 
ATOM      3  C   UNL     1      -9.968  13.229  66.147  0.00  0.00    +0.158 A 
ATOM      4  F   UNL     1      -9.102  12.182  66.225  0.00  0.00    -0.203 F 
ATOM      5  C   UNL     1     -11.035  13.197  67.038  0.00  0.00    +0.103 A 
ATOM      6  C   UNL     1     -12.047  14.109  66.787  0.00  0.00    +0.022 A 
ATOM      7  C   UNL     1     -11.842  15.151  65.891  0.00  0.00    +0.039 A 
ENDROOT
BRANCH   5   8
ATOM      8  N   UNL     1     -10.784  12.642  68.321  0.00  0.00    -0.158 NA
ATOM      9  C   UNL     1     -11.667  11.681  68.873  0.00  0.00    +0.348 C 
ATOM     10  N   UNL     1     -12.067  11.625  70.224  0.00  0.00    -0.161 NA
ATOM     11  O   UNL     1     -12.109  10.802  68.101  0.00  0.00    -0.248 OA
BRANCH  10  12
ATOM     12  C   UNL     1     -11.973  10.370  70.899  0.00  0.00    +0.075 A 
ATOM     13  C   UNL     1     -10.736   9.743  70.810  0.00  0.00    +0.021 A 
ATOM     14  C   UNL     1     -10.514   8.482  71.349  0.00  0.00    +0.083 A 
ATOM     15  C   UNL     1     -11.577   7.934  72.054  0.00  0.00    +0.062 A 
ATOM     16 CL   UNL     1     -11.374   6.298  72.664  0.00  0.00    -0.082 Cl
ATOM     17  C   UNL     1     -12.742   8.651  72.290  0.00  0.00    +0.013 A 
ATOM     18  C   UNL     1     -13.040   9.700  71.428  0.00  0.00    +0.018 A 
BRANCH  14  19
ATOM     19  C   UNL     1      -9.444   7.615  70.786  0.00  0.00    +0.419 C 
ATOM     20  F   UNL     1      -8.632   8.326  69.919  0.00  0.00    -0.166 F 
ATOM     21  F   UNL     1      -9.982   6.573  70.036  0.00  0.00    -0.166 F 
ATOM     22  F   UNL     1      -8.624   7.099  71.780  0.00  0.00    -0.166 F 
ENDBRANCH  14  19
ENDBRANCH  10  12
ENDBRANCH   5   8
BRANCH   1  23
ATOM     23  O   UNL     1     -10.041  16.707  65.346  0.00  0.00    -0.453 OA
BRANCH  23  28
ATOM     24  C   UNL     1      -8.441  18.402  68.108  0.00  0.00    +0.139 A 
ATOM     25  N   UNL     1      -9.256  19.471  68.199  0.00  0.00    -0.239 NA
ATOM     26  C   UNL     1     -10.282  19.697  67.377  0.00  0.00    +0.102 A 
ATOM     27  C   UNL     1     -10.480  18.778  66.355  0.00  0.00    +0.058 A 
ATOM     28  C   UNL     1      -9.928  17.506  66.469  0.00  0.00    +0.149 A 
ATOM     29  C   UNL     1      -8.688  17.483  67.100  0.00  0.00    +0.061 A 
BRANCH  24  32
ATOM     30  C   UNL     1      -5.485  19.795  70.009  0.00  0.00    +0.139 C 
ATOM     31  N   UNL     1      -6.812  19.680  69.468  0.00  0.00    -0.198 NA
ATOM     32  C   UNL     1      -7.192  18.460  68.844  0.00  0.00    +0.283 C 
ATOM     33  O   UNL     1      -6.696  17.369  69.255  0.00  0.00    -0.267 OA
ENDBRANCH  24  32
ENDBRANCH  23  28
ENDBRANCH   1  23
TORSDOF 6
ENDMDL
MODEL 2
REMARK VINA RESULT:      -7.6      4.749      6.438
REMARK  Name = 
REMARK  6 active torsions:
REMARK  status: ('A' for Active; 'I' for Inactive)
REMARK    1  A    between atoms: C_3  and  C_5
REMARK    2  A    between atoms: C_7  and  O_8
REMARK    3  A    between atoms: O_8  and  C_9
REMARK    4  A    between atoms: C_12  and  N_13
REMARK    5  A    between atoms: N_16  and  C_17
REMARK    6  A    between atoms: C_22  and  C_23
REMARK                            x       y       z     vdW  Elec       q    Type
REMARK                         _______ _______ _______ _____ _____    ______ ____
ROOT
ATOM      1  C   UNL     1      -7.004  20.524  67.408  0.00  0.00    +0.148 A 
ATOM      2  C   UNL     1      -6.633  19.481  66.565  0.00  0.00    +0.068 A 
ATOM      3  C   UNL     1      -7.549  18.493  66.222  0.00  0.00    +0.158 A 
ATOM      4  F   UNL     1      -7.202  17.409  65.475  0.00  0.00    -0.203 F 
ATOM      5  C   UNL     1      -8.838  18.478  66.745  0.00  0.00    +0.103 A 
ATOM      6  C   UNL     1      -9.278  19.679  67.276  0.00  0.00    +0.022 A 
ATOM      7  C   UNL     1      -8.377  20.709  67.516  0.00  0.00    +0.039 A 
ENDROOT
BRANCH   5   8
ATOM      8  N   UNL     1      -9.358  17.214  67.133  0.00  0.00    -0.158 NA
ATOM      9  C   UNL     1      -9.847  17.013  68.447  0.00  0.00    +0.348 C 
ATOM     10  N   UNL     1      -9.647  15.851  69.221  0.00  0.00    -0.161 NA
ATOM     11  O   UNL     1     -10.528  17.933  68.951  0.00  0.00    -0.248 OA
BRANCH  10  12
ATOM     12  C   UNL     1     -10.786  15.255  69.843  0.00  0.00    +0.075 A 
ATOM     13  C   UNL     1     -11.308  15.962  70.920  0.00  0.00    +0.021 A 
ATOM     14  C   UNL     1     -12.366  15.472  71.674  0.00  0.00    +0.083 A 
ATOM     15  C   UNL     1     -12.922  14.280  71.228  0.00  0.00    +0.062 A 
ATOM     16 CL   UNL     1     -14.195  13.573  72.211  0.00  0.00    -0.082 Cl
ATOM     17  C   UNL     1     -12.510  13.683  70.044  0.00  0.00    +0.013 A 
ATOM     18  C   UNL     1     -11.240  13.995  69.572  0.00  0.00    +0.018 A 
BRANCH  14  19
ATOM     19  C   UNL     1     -12.532  15.909  73.086  0.00  0.00    +0.419 C 
ATOM     20  F   UNL     1     -13.849  16.242  73.353  0.00  0.00    -0.166 F 
ATOM     21  F   UNL     1     -11.788  17.054  73.351  0.00  0.00    -0.166 F 
ATOM     22  F   UNL     1     -12.178  14.907  73.981  0.00  0.00    -0.166 F 
ENDBRANCH  14  19
ENDBRANCH  10  12
ENDBRANCH   5   8
BRANCH   1  23
ATOM     23  O   UNL     1      -6.113  20.928  68.402  0.00  0.00    -0.453 OA
BRANCH  23  28
ATOM     24  C   UNL     1      -5.439  18.149  70.613  0.00  0.00    +0.139 A 
ATOM     25  N   UNL     1      -4.875  18.825  71.633  0.00  0.00    -0.239 NA
ATOM     26  C   UNL     1      -4.659  20.141  71.625  0.00  0.00    +0.102 A 
ATOM     27  C   UNL     1      -5.016  20.828  70.471  0.00  0.00    +0.058 A 
ATOM     28  C   UNL     1      -5.929  20.252  69.594  0.00  0.00    +0.149 A 
ATOM     29  C   UNL     1      -5.820  18.869  69.491  0.00  0.00    +0.061 A 
BRANCH  24  32
ATOM     30  C   UNL     1      -4.432  14.671  71.697  0.00  0.00    +0.139 C 
ATOM     31  N   UNL     1      -4.757  16.070  71.773  0.00  0.00    -0.198 NA
ATOM     32  C   UNL     1      -5.308  16.705  70.625  0.00  0.00    +0.283 C 
ATOM     33  O   UNL     1      -6.037  16.037  69.833  0.00  0.00    -0.267 OA
ENDBRANCH  24  32
ENDBRANCH  23  28
ENDBRANCH   1  23
TORSDOF 6
ENDMDL
MODEL 3
REMARK VINA RESULT:      -7.5      6.479     11.148
REMARK  Name = 
REMARK  6 active torsions:
REMARK  status: ('A' for Active; 'I' for Inactive)
REMARK    1  A    between atoms: C_3  and  C_5
REMARK    2  A    between atoms: C_7  and  O_8
REMARK    3  A    between atoms: O_8  and  C_9
REMARK    4  A    between atoms: C_12  and  N_13
REMARK    5  A    between atoms: N_16  and  C_17
REMARK    6  A    between atoms: C_22  and  C_23
REMARK                            x       y       z     vdW  Elec       q    Type
REMARK                         _______ _______ _______ _____ _____    ______ ____
ROOT
ATOM      1  C   UNL     1     -10.217  18.045  67.911  0.00  0.00    +0.148 A 
ATOM      2  C   UNL     1      -9.064  18.188  68.676  0.00  0.00    +0.068 A 
ATOM      3  C   UNL     1      -8.180  19.232  68.427  0.00  0.00    +0.158 A 
ATOM      4  F   UNL     1      -6.997  19.356  69.090  0.00  0.00    -0.203 F 
ATOM      5  C   UNL     1      -8.381  20.128  67.382  0.00  0.00    +0.103 A 
ATOM      6  C   UNL     1      -9.673  20.178  66.883  0.00  0.00    +0.022 A 
ATOM      7  C   UNL     1     -10.592  19.192  67.222  0.00  0.00    +0.039 A 
ENDROOT
BRANCH   5   8
ATOM      8  N   UNL     1      -7.238  20.504  66.628  0.00  0.00    -0.158 NA
ATOM      9  C   UNL     1      -6.508  19.533  65.899  0.00  0.00    +0.348 C 
ATOM     10  N   UNL     1      -5.102  19.479  65.798  0.00  0.00    -0.161 NA
ATOM     11  O   UNL     1      -7.166  18.669  65.281  0.00  0.00    -0.248 OA
BRANCH  10  12
ATOM     12  C   UNL     1      -4.529  19.347  64.496  0.00  0.00    +0.075 A 
ATOM     13  C   UNL     1      -4.772  20.410  63.634  0.00  0.00    +0.021 A 
ATOM     14  C   UNL     1      -4.347  20.392  62.311  0.00  0.00    +0.083 A 
ATOM     15  C   UNL     1      -3.591  19.289  61.938  0.00  0.00    +0.062 A 
ATOM     16 CL   UNL     1      -3.120  19.177  60.248  0.00  0.00    -0.082 Cl
ATOM     17  C   UNL     1      -3.201  18.326  62.860  0.00  0.00    +0.013 A 
ATOM     18  C   UNL     1      -3.957  18.202  64.020  0.00  0.00    +0.018 A 
BRANCH  14  19
ATOM     19  C   UNL     1      -5.063  21.206  61.293  0.00  0.00    +0.419 C 
ATOM     20  F   UNL     1      -4.173  21.923  60.511  0.00  0.00    -0.166 F 
ATOM     21  F   UNL     1      -5.889  22.151  61.893  0.00  0.00    -0.166 F 
ATOM     22  F   UNL     1      -5.811  20.413  60.433  0.00  0.00    -0.166 F 
ENDBRANCH  14  19
ENDBRANCH  10  12
ENDBRANCH   5   8
BRANCH   1  23
ATOM     23  O   UNL     1     -10.586  16.767  67.494  0.00  0.00    -0.453 OA
BRANCH  23  28
ATOM     24  C   UNL     1     -12.087  15.146  70.355  0.00  0.00    +0.139 A 
ATOM     25  N   UNL     1     -12.278  13.921  69.825  0.00  0.00    -0.239 NA
ATOM     26  C   UNL     1     -11.983  13.600  68.565  0.00  0.00    +0.102 A 
ATOM     27  C   UNL     1     -11.483  14.616  67.761  0.00  0.00    +0.058 A 
ATOM     28  C   UNL     1     -10.921  15.740  68.358  0.00  0.00    +0.149 A 
ATOM     29  C   UNL     1     -11.549  16.127  69.538  0.00  0.00    +0.061 A 
BRANCH  24  32
ATOM     30  C   UNL     1     -12.597  15.957  74.012  0.00  0.00    +0.139 C 
ATOM     31  N   UNL     1     -11.975  15.882  72.717  0.00  0.00    -0.198 NA
ATOM     32  C   UNL     1     -12.750  15.432  71.613  0.00  0.00    +0.283 C 
ATOM     33  O   UNL     1     -13.994  15.671  71.585  0.00  0.00    -0.267 OA
ENDBRANCH  24  32
ENDBRANCH  23  28
ENDBRANCH   1  23
TORSDOF 6
ENDMDL
MODEL 4
REMARK VINA RESULT:      -7.5      1.972      2.330
REMARK  Name = 
REMARK  6 active torsions:
REMARK  status: ('A' for Active; 'I' for Inactive)
REMARK    1  A    between atoms: C_3  and  C_5
REMARK    2  A    between atoms: C_7  and  O_8
REMARK    3  A    between atoms: O_8  and  C_9
REMARK    4  A    between atoms: C_12  and  N_13
REMARK    5  A    between atoms: N_16  and  C_17
REMARK    6  A    between atoms: C_22  and  C_23
REMARK                            x       y       z     vdW  Elec       q    Type
REMARK                         _______ _______ _______ _____ _____    ______ ____
ROOT
ATOM      1  C   UNL     1     -11.074  15.263  67.384  0.00  0.00    +0.148 A 
ATOM      2  C   UNL     1     -11.455  14.321  66.435  0.00  0.00    +0.068 A 
ATOM      3  C   UNL     1     -11.825  13.038  66.826  0.00  0.00    +0.158 A 
ATOM      4  F   UNL     1     -12.116  12.060  65.925  0.00  0.00    -0.203 F 
ATOM      5  C   UNL     1     -11.775  12.637  68.157  0.00  0.00    +0.103 A 
ATOM      6  C   UNL     1     -11.741  13.663  69.086  0.00  0.00    +0.022 A 
ATOM      7  C   UNL     1     -11.480  14.966  68.679  0.00  0.00    +0.039 A 
ENDROOT
BRANCH   5   8
ATOM      8  N   UNL     1     -11.279  11.332  68.416  0.00  0.00    -0.158 NA
ATOM      9  C   UNL     1     -11.363  10.777  69.716  0.00  0.00    +0.348 C 
ATOM     10  N   UNL     1     -10.358  10.007  70.339  0.00  0.00    -0.161 NA
ATOM     11  O   UNL     1     -12.421  10.970  70.353  0.00  0.00    -0.248 OA
BRANCH  10  12
ATOM     12  C   UNL     1     -10.738   8.766  70.935  0.00  0.00    +0.075 A 
ATOM     13  C   UNL     1     -10.280   8.569  72.232  0.00  0.00    +0.021 A 
ATOM     14  C   UNL     1     -10.502   7.380  72.914  0.00  0.00    +0.083 A 
ATOM     15  C   UNL     1     -11.283   6.443  72.251  0.00  0.00    +0.062 A 
ATOM     16 CL   UNL     1     -11.504   4.886  73.035  0.00  0.00    -0.082 Cl
ATOM     17  C   UNL     1     -11.886   6.728  71.033  0.00  0.00    +0.013 A 
ATOM     18  C   UNL     1     -11.327   7.736  70.257  0.00  0.00    +0.018 A 
BRANCH  14  19
ATOM     19  C   UNL     1      -9.576   6.967  74.002  0.00  0.00    +0.419 C 
ATOM     20  F   UNL     1      -8.768   5.918  73.598  0.00  0.00    -0.166 F 
ATOM     21  F   UNL     1     -10.276   6.504  75.112  0.00  0.00    -0.166 F 
ATOM     22  F   UNL     1      -8.734   8.004  74.383  0.00  0.00    -0.166 F 
ENDBRANCH  14  19
ENDBRANCH  10  12
ENDBRANCH   5   8
BRANCH   1  23
ATOM     23  O   UNL     1      -9.975  16.078  67.111  0.00  0.00    -0.453 OA
BRANCH  23  28
ATOM     24  C   UNL     1      -8.733  19.441  67.568  0.00  0.00    +0.139 A 
ATOM     25  N   UNL     1      -9.564  20.087  66.728  0.00  0.00    -0.239 NA
ATOM     26  C   UNL     1     -10.487  19.481  65.980  0.00  0.00    +0.102 A 
ATOM     27  C   UNL     1     -10.552  18.096  66.067  0.00  0.00    +0.058 A 
ATOM     28  C   UNL     1     -10.004  17.459  67.175  0.00  0.00    +0.149 A 
ATOM     29  C   UNL     1      -8.849  18.063  67.661  0.00  0.00    +0.061 A 
BRANCH  24  32
ATOM     30  C   UNL     1      -5.728  20.384  69.659  0.00  0.00    +0.139 C 
ATOM     31  N   UNL     1      -6.735  19.576  69.026  0.00  0.00    -0.198 NA
ATOM     32  C   UNL     1      -7.581  20.177  68.055  0.00  0.00    +0.283 C 
ATOM     33  O   UNL     1      -7.134  21.119  67.335  0.00  0.00    -0.267 OA
ENDBRANCH  24  32
ENDBRANCH  23  28
ENDBRANCH   1  23
TORSDOF 6
ENDMDL
MODEL 5
REMARK VINA RESULT:      -7.5      4.470      8.167
REMARK  Name = 
REMARK  6 active torsions:
REMARK  status: ('A' for Active; 'I' for Inactive)
REMARK    1  A    between atoms: C_3  and  C_5
REMARK    2  A    between atoms: C_7  and  O_8
REMARK    3  A    between atoms: O_8  and  C_9
REMARK    4  A    between atoms: C_12  and  N_13
REMARK    5  A    between atoms: N_16  and  C_17
REMARK    6  A    between atoms: C_22  and  C_23
REMARK                            x       y       z     vdW  Elec       q    Type
REMARK                         _______ _______ _______ _____ _____    ______ ____
ROOT
ATOM      1  C   UNL     1      -8.640   8.687  66.328  0.00  0.00    +0.148 A 
ATOM      2  C   UNL     1      -9.735   9.110  65.583  0.00  0.00    +0.068 A 
ATOM      3  C   UNL     1      -9.922  10.462  65.312  0.00  0.00    +0.158 A 
ATOM      4  F   UNL     1     -11.026  10.927  64.666  0.00  0.00    -0.203 F 
ATOM      5  C   UNL     1      -9.064  11.433  65.817  0.00  0.00    +0.103 A 
ATOM      6  C   UNL     1      -7.827  10.974  66.237  0.00  0.00    +0.022 A 
ATOM      7  C   UNL     1      -7.606   9.612  66.401  0.00  0.00    +0.039 A 
ENDROOT
BRANCH   5   8
ATOM      8  N   UNL     1      -9.661  12.627  66.304  0.00  0.00    -0.158 NA
ATOM      9  C   UNL     1     -10.329  12.637  67.553  0.00  0.00    +0.348 C 
ATOM     10  N   UNL     1     -11.534  13.317  67.825  0.00  0.00    -0.161 NA
ATOM     11  O   UNL     1      -9.795  12.008  68.492  0.00  0.00    -0.248 OA
BRANCH  10  12
ATOM     12  C   UNL     1     -11.587  14.146  68.988  0.00  0.00    +0.075 A 
ATOM     13  C   UNL     1     -12.144  13.551  70.113  0.00  0.00    +0.021 A 
ATOM     14  C   UNL     1     -12.335  14.254  71.295  0.00  0.00    +0.083 A 
ATOM     15  C   UNL     1     -11.852  15.556  71.305  0.00  0.00    +0.062 A 
ATOM     16 CL   UNL     1     -12.164  16.514  72.745  0.00  0.00    -0.082 Cl
ATOM     17  C   UNL     1     -11.133  16.075  70.236  0.00  0.00    +0.013 A 
ATOM     18  C   UNL     1     -11.315  15.485  68.990  0.00  0.00    +0.018 A 
BRANCH  14  19
ATOM     19  C   UNL     1     -13.395  13.827  72.247  0.00  0.00    +0.419 C 
ATOM     20  F   UNL     1     -14.584  14.491  72.002  0.00  0.00    -0.166 F 
ATOM     21  F   UNL     1     -13.049  14.137  73.559  0.00  0.00    -0.166 F 
ATOM     22  F   UNL     1     -13.661  12.468  72.146  0.00  0.00    -0.166 F 
ENDBRANCH  14  19
ENDBRANCH  10  12
ENDBRANCH   5   8
BRANCH   1  23
ATOM     23  O   UNL     1      -8.833   7.701  67.296  0.00  0.00    -0.453 OA
BRANCH  23  28
ATOM     24  C   UNL     1     -10.375   8.613  70.436  0.00  0.00    +0.139 A 
ATOM     25  N   UNL     1      -9.607   7.882  71.267  0.00  0.00    -0.239 NA
ATOM     26  C   UNL     1      -8.632   7.068  70.858  0.00  0.00    +0.102 A 
ATOM     27  C   UNL     1      -8.442   6.959  69.486  0.00  0.00    +0.058 A 
ATOM     28  C   UNL     1      -8.930   7.960  68.652  0.00  0.00    +0.149 A 
ATOM     29  C   UNL     1     -10.135   8.511  69.075  0.00  0.00    +0.061 A 
BRANCH  24  32
ATOM     30  C   UNL     1     -13.730   8.870  72.160  0.00  0.00    +0.139 C 
ATOM     31  N   UNL     1     -12.433   8.369  71.794  0.00  0.00    -0.198 NA
ATOM     32  C   UNL     1     -11.588   9.184  70.990  0.00  0.00    +0.283 C 
ATOM     33  O   UNL     1     -11.655  10.445  71.095  0.00  0.00    -0.267 OA
ENDBRANCH  24  32
ENDBRANCH  23  28
ENDBRANCH   1  23
TORSDOF 6
ENDMDL
MODEL 6
REMARK VINA RESULT:      -7.3      4.195      6.144
REMARK  Name = 
REMARK  6 active torsions:
REMARK  status: ('A' for Active; 'I' for Inactive)
REMARK    1  A    between atoms: C_3  and  C_5
REMARK    2  A    between atoms: C_7  and  O_8
REMARK    3  A    between atoms: O_8  and  C_9
REMARK    4  A    between atoms: C_12  and  N_13
REMARK    5  A    between atoms: N_16  and  C_17
REMARK    6  A    between atoms: C_22  and  C_23
REMARK                            x       y       z     vdW  Elec       q    Type
REMARK                         _______ _______ _______ _____ _____    ______ ____
ROOT
ATOM      1  C   UNL     1      -7.225  19.427  67.078  0.00  0.00    +0.148 A 
ATOM      2  C   UNL     1      -8.254  19.473  66.144  0.00  0.00    +0.068 A 
ATOM      3  C   UNL     1      -9.576  19.306  66.544  0.00  0.00    +0.158 A 
ATOM      4  F   UNL     1     -10.603  19.254  65.652  0.00  0.00    -0.203 F 
ATOM      5  C   UNL     1      -9.910  19.034  67.866  0.00  0.00    +0.103 A 
ATOM      6  C   UNL     1      -8.936  19.340  68.801  0.00  0.00    +0.022 A 
ATOM      7  C   UNL     1      -7.637  19.616  68.392  0.00  0.00    +0.039 A 
ENDROOT
BRANCH   5   8
ATOM      8  N   UNL     1     -10.926  18.066  68.085  0.00  0.00    -0.158 NA
ATOM      9  C   UNL     1     -10.588  16.711  68.326  0.00  0.00    +0.348 C 
ATOM     10  N   UNL     1     -11.275  15.596  67.804  0.00  0.00    -0.161 NA
ATOM     11  O   UNL     1      -9.614  16.492  69.078  0.00  0.00    -0.248 OA
BRANCH  10  12
ATOM     12  C   UNL     1     -11.653  14.559  68.711  0.00  0.00    +0.075 A 
ATOM     13  C   UNL     1     -12.537  14.942  69.712  0.00  0.00    +0.021 A 
ATOM     14  C   UNL     1     -12.934  14.065  70.713  0.00  0.00    +0.083 A 
ATOM     15  C   UNL     1     -12.464  12.764  70.595  0.00  0.00    +0.062 A 
ATOM     16 CL   UNL     1     -12.860  11.649  71.894  0.00  0.00    -0.082 Cl
ATOM     17  C   UNL     1     -11.733  12.351  69.489  0.00  0.00    +0.013 A 
ATOM     18  C   UNL     1     -11.064  13.326  68.758  0.00  0.00    +0.018 A 
BRANCH  14  19
ATOM     19  C   UNL     1     -13.382  14.597  72.028  0.00  0.00    +0.419 C 
ATOM     20  F   UNL     1     -12.428  14.378  73.006  0.00  0.00    -0.166 F 
ATOM     21  F   UNL     1     -14.534  13.951  72.468  0.00  0.00    -0.166 F 
ATOM     22  F   UNL     1     -13.607  15.967  71.980  0.00  0.00    -0.166 F 
ENDBRANCH  14  19
ENDBRANCH  10  12
ENDBRANCH   5   8
BRANCH   1  23
ATOM     23  O   UNL     1      -6.058  18.736  66.751  0.00  0.00    -0.453 OA
BRANCH  23  28
ATOM     24  C   UNL     1      -6.244  15.224  67.582  0.00  0.00    +0.139 A 
ATOM     25  N   UNL     1      -4.926  14.967  67.703  0.00  0.00    -0.239 NA
ATOM     26  C   UNL     1      -3.968  15.869  67.486  0.00  0.00    +0.102 A 
ATOM     27  C   UNL     1      -4.379  17.132  67.079  0.00  0.00    +0.058 A 
ATOM     28  C   UNL     1      -5.690  17.531  67.321  0.00  0.00    +0.149 A 
ATOM     29  C   UNL     1      -6.622  16.504  67.212  0.00  0.00    +0.061 A 
BRANCH  24  32
ATOM     30  C   UNL     1      -7.732  11.823  68.299  0.00  0.00    +0.139 C 
ATOM     31  N   UNL     1      -6.995  13.044  68.487  0.00  0.00    -0.198 NA
ATOM     32  C   UNL     1      -7.136  14.081  67.525  0.00  0.00    +0.283 C 
ATOM     33  O   UNL     1      -8.238  14.221  66.916  0.00  0.00    -0.267 OA
ENDBRANCH  24  32
ENDBRANCH  23  28
ENDBRANCH   1  23
TORSDOF 6
ENDMDL
MODEL 7
REMARK VINA RESULT:      -7.3      4.992      9.674
REMARK  Name = 
REMARK  6 active torsions:
REMARK  status: ('A' for Active; 'I' for Inactive)
REMARK    1  A    between atoms: C_3  and  C_5
REMARK    2  A    between atoms: C_7  and  O_8
REMARK    3  A    between atoms: O_8  and  C_9
REMARK    4  A    between atoms: C_12  and  N_13
REMARK    5  A    between atoms: N_16  and  C_17
REMARK    6  A    between atoms: C_22  and  C_23
REMARK                            x       y       z     vdW  Elec       q    Type
REMARK                         _______ _______ _______ _____ _____    ______ ____
ROOT
ATOM      1  C   UNL     1     -12.249  13.768  65.471  0.00  0.00    +0.148 A 
ATOM      2  C   UNL     1     -11.951  14.107  66.786  0.00  0.00    +0.068 A 
ATOM      3  C   UNL     1     -11.142  15.204  67.064  0.00  0.00    +0.158 A 
ATOM      4  F   UNL     1     -10.751  15.516  68.330  0.00  0.00    -0.203 F 
ATOM      5  C   UNL     1     -10.561  15.959  66.051  0.00  0.00    +0.103 A 
ATOM      6  C   UNL     1     -11.143  15.825  64.801  0.00  0.00    +0.022 A 
ATOM      7  C   UNL     1     -12.039  14.792  64.555  0.00  0.00    +0.039 A 
ENDROOT
BRANCH   5   8
ATOM      8  N   UNL     1      -9.214  16.367  66.246  0.00  0.00    -0.158 NA
ATOM      9  C   UNL     1      -8.905  17.729  66.484  0.00  0.00    +0.348 C 
ATOM     10  N   UNL     1      -7.800  18.418  65.943  0.00  0.00    -0.161 NA
ATOM     11  O   UNL     1      -9.662  18.361  67.251  0.00  0.00    -0.248 OA
BRANCH  10  12
ATOM     12  C   UNL     1      -6.980  19.174  66.835  0.00  0.00    +0.075 A 
ATOM     13  C   UNL     1      -6.309  18.427  67.797  0.00  0.00    +0.021 A 
ATOM     14  C   UNL     1      -5.537  19.028  68.783  0.00  0.00    +0.083 A 
ATOM     15  C   UNL     1      -5.407  20.407  68.689  0.00  0.00    +0.062 A 
ATOM     16 CL   UNL     1      -4.523  21.217  69.974  0.00  0.00    -0.082 Cl
ATOM     17  C   UNL     1      -5.931  21.117  67.616  0.00  0.00    +0.013 A 
ATOM     18  C   UNL     1      -6.980  20.538  66.911  0.00  0.00    +0.018 A 
BRANCH  14  19
ATOM     19  C   UNL     1      -5.312  18.327  70.075  0.00  0.00    +0.419 C 
ATOM     20  F   UNL     1      -5.931  17.088  70.086  0.00  0.00    -0.166 F 
ATOM     21  F   UNL     1      -5.865  19.037  71.137  0.00  0.00    -0.166 F 
ATOM     22  F   UNL     1      -3.962  18.108  70.315  0.00  0.00    -0.166 F 
ENDBRANCH  14  19
ENDBRANCH  10  12
ENDBRANCH   5   8
BRANCH   1  23
ATOM     23  O   UNL     1     -12.225  12.422  65.108  0.00  0.00    -0.453 OA
BRANCH  23  28
ATOM     24  C   UNL     1      -9.796   9.756  65.334  0.00  0.00    +0.139 A 
ATOM     25  N   UNL     1      -9.304   9.813  64.081  0.00  0.00    -0.239 NA
ATOM     26  C   UNL     1      -9.751  10.649  63.143  0.00  0.00    +0.102 A 
ATOM     27  C   UNL     1     -10.810  11.476  63.495  0.00  0.00    +0.058 A 
ATOM     28  C   UNL     1     -11.067  11.715  64.841  0.00  0.00    +0.149 A 
ATOM     29  C   UNL     1     -10.827  10.620  65.665  0.00  0.00    +0.061 A 
BRANCH  24  32
ATOM     30  C   UNL     1     -10.097   6.881  67.770  0.00  0.00    +0.139 C 
ATOM     31  N   UNL     1     -10.472   7.894  66.821  0.00  0.00    -0.198 NA
ATOM     32  C   UNL     1      -9.446   8.592  66.127  0.00  0.00    +0.283 C 
ATOM     33  O   UNL     1      -8.358   8.000  65.862  0.00  0.00    -0.267 OA
ENDBRANCH  24  32
ENDBRANCH  23  28
ENDBRANCH   1  23
TORSDOF 6
ENDMDL
MODEL 8
REMARK VINA RESULT:      -7.2      4.110      5.323
REMARK  Name = 
REMARK  6 active torsions:
REMARK  status: ('A' for Active; 'I' for Inactive)
REMARK    1  A    between atoms: C_3  and  C_5
REMARK    2  A    between atoms: C_7  and  O_8
REMARK    3  A    between atoms: O_8  and  C_9
REMARK    4  A    between atoms: C_12  and  N_13
REMARK    5  A    between atoms: N_16  and  C_17
REMARK    6  A    between atoms: C_22  and  C_23
REMARK                            x       y       z     vdW  Elec       q    Type
REMARK                         _______ _______ _______ _____ _____    ______ ____
ROOT
ATOM      1  C   UNL     1      -8.509  19.600  66.515  0.00  0.00    +0.148 A 
ATOM      2  C   UNL     1      -8.174  18.251  66.506  0.00  0.00    +0.068 A 
ATOM      3  C   UNL     1      -9.008  17.314  67.108  0.00  0.00    +0.158 A 
ATOM      4  F   UNL     1      -8.673  15.998  67.202  0.00  0.00    -0.203 F 
ATOM      5  C   UNL     1     -10.165  17.692  67.781  0.00  0.00    +0.103 A 
ATOM      6  C   UNL     1     -10.646  18.954  67.475  0.00  0.00    +0.022 A 
ATOM      7  C   UNL     1      -9.851  19.854  66.775  0.00  0.00    +0.039 A 
ENDROOT
BRANCH   5   8
ATOM      8  N   UNL     1     -10.443  17.025  69.003  0.00  0.00    -0.158 NA
ATOM      9  C   UNL     1     -11.538  16.131  69.100  0.00  0.00    +0.348 C 
ATOM     10  N   UNL     1     -12.407  16.026  70.206  0.00  0.00    -0.161 NA
ATOM     11  O   UNL     1     -11.734  15.361  68.135  0.00  0.00    -0.248 OA
BRANCH  10  12
ATOM     12  C   UNL     1     -12.663  14.725  70.736  0.00  0.00    +0.075 A 
ATOM     13  C   UNL     1     -11.855  13.713  70.232  0.00  0.00    +0.021 A 
ATOM     14  C   UNL     1     -12.036  12.383  70.592  0.00  0.00    +0.083 A 
ATOM     15  C   UNL     1     -13.012  12.148  71.550  0.00  0.00    +0.062 A 
ATOM     16 CL   UNL     1     -13.343  10.471  71.960  0.00  0.00    -0.082 Cl
ATOM     17  C   UNL     1     -13.683  13.188  72.179  0.00  0.00    +0.013 A 
ATOM     18  C   UNL     1     -13.737  14.411  71.520  0.00  0.00    +0.018 A 
BRANCH  14  19
ATOM     19  C   UNL     1     -11.592  11.301  69.673  0.00  0.00    +0.419 C 
ATOM     20  F   UNL     1     -10.851  11.813  68.621  0.00  0.00    -0.166 F 
ATOM     21  F   UNL     1     -12.680  10.655  69.094  0.00  0.00    -0.166 F 
ATOM     22  F   UNL     1     -10.789  10.372  70.321  0.00  0.00    -0.166 F 
ENDBRANCH  14  19
ENDBRANCH  10  12
ENDBRANCH   5   8
BRANCH   1  23
ATOM     23  O   UNL     1      -7.507  20.536  66.771  0.00  0.00    -0.453 OA
BRANCH  23  28
ATOM     24  C   UNL     1      -4.979  20.589  64.189  0.00  0.00    +0.139 A 
ATOM     25  N   UNL     1      -3.957  21.096  64.907  0.00  0.00    -0.239 NA
ATOM     26  C   UNL     1      -4.055  21.465  66.184  0.00  0.00    +0.102 A 
ATOM     27  C   UNL     1      -5.305  21.342  66.777  0.00  0.00    +0.058 A 
ATOM     28  C   UNL     1      -6.244  20.485  66.211  0.00  0.00    +0.149 A 
ATOM     29  C   UNL     1      -6.203  20.442  64.821  0.00  0.00    +0.061 A 
BRANCH  24  32
ATOM     30  C   UNL     1      -5.809  20.252  60.517  0.00  0.00    +0.139 C 
ATOM     31  N   UNL     1      -5.973  20.510  61.922  0.00  0.00    -0.198 NA
ATOM     32  C   UNL     1      -4.816  20.545  62.748  0.00  0.00    +0.283 C 
ATOM     33  O   UNL     1      -3.716  20.947  62.265  0.00  0.00    -0.267 OA
ENDBRANCH  24  32
ENDBRANCH  23  28
ENDBRANCH   1  23
TORSDOF 6
ENDMDL
MODEL 9
REMARK VINA RESULT:      -7.2      4.532      9.760
REMARK  Name = 
REMARK  6 active torsions:
REMARK  status: ('A' for Active; 'I' for Inactive)
REMARK    1  A    between atoms: C_3  and  C_5
REMARK    2  A    between atoms: C_7  and  O_8
REMARK    3  A    between atoms: O_8  and  C_9
REMARK    4  A    between atoms: C_12  and  N_13
REMARK    5  A    between atoms: N_16  and  C_17
REMARK    6  A    between atoms: C_22  and  C_23
REMARK                            x       y       z     vdW  Elec       q    Type
REMARK                         _______ _______ _______ _____ _____    ______ ____
ROOT
ATOM      1  C   UNL     1     -11.021  11.591  67.689  0.00  0.00    +0.148 A 
ATOM      2  C   UNL     1     -12.057  12.396  67.228  0.00  0.00    +0.068 A 
ATOM      3  C   UNL     1     -11.848  13.274  66.169  0.00  0.00    +0.158 A 
ATOM      4  F   UNL     1     -12.806  14.143  65.747  0.00  0.00    -0.203 F 
ATOM      5  C   UNL     1     -10.598  13.420  65.577  0.00  0.00    +0.103 A 
ATOM      6  C   UNL     1      -9.706  12.385  65.807  0.00  0.00    +0.022 A 
ATOM      7  C   UNL     1      -9.970  11.441  66.792  0.00  0.00    +0.039 A 
ENDROOT
BRANCH   5   8
ATOM      8  N   UNL     1     -10.193  14.741  65.249  0.00  0.00    -0.158 NA
ATOM      9  C   UNL     1     -10.157  15.749  66.245  0.00  0.00    +0.348 C 
ATOM     10  N   UNL     1     -10.563  17.087  66.062  0.00  0.00    -0.161 NA
ATOM     11  O   UNL     1      -9.711  15.427  67.367  0.00  0.00    -0.248 OA
BRANCH  10  12
ATOM     12  C   UNL     1      -9.672  18.120  66.486  0.00  0.00    +0.075 A 
ATOM     13  C   UNL     1      -8.343  17.940  66.125  0.00  0.00    +0.021 A 
ATOM     14  C   UNL     1      -7.347  18.819  66.532  0.00  0.00    +0.083 A 
ATOM     15  C   UNL     1      -7.781  19.930  67.242  0.00  0.00    +0.062 A 
ATOM     16 CL   UNL     1      -6.545  21.015  67.863  0.00  0.00    -0.082 Cl
ATOM     17  C   UNL     1      -9.131  20.192  67.435  0.00  0.00    +0.013 A 
ATOM     18  C   UNL     1     -10.012  19.120  67.354  0.00  0.00    +0.018 A 
BRANCH  14  19
ATOM     19  C   UNL     1      -5.941  18.346  66.639  0.00  0.00    +0.419 C 
ATOM     20  F   UNL     1      -5.804  17.068  66.124  0.00  0.00    -0.166 F 
ATOM     21  F   UNL     1      -5.536  18.266  67.968  0.00  0.00    -0.166 F 
ATOM     22  F   UNL     1      -5.067  19.164  65.935  0.00  0.00    -0.166 F 
ENDBRANCH  14  19
ENDBRANCH  10  12
ENDBRANCH   5   8
BRANCH   1  23
ATOM     23  O   UNL     1     -10.859  11.437  69.066  0.00  0.00    -0.453 OA
BRANCH  23  28
ATOM     24  C   UNL     1     -12.027   8.895  71.355  0.00  0.00    +0.139 A 
ATOM     25  N   UNL     1     -12.976   9.608  71.993  0.00  0.00    -0.239 NA
ATOM     26  C   UNL     1     -13.232  10.894  71.749  0.00  0.00    +0.102 A 
ATOM     27  C   UNL     1     -12.436  11.521  70.800  0.00  0.00    +0.058 A 
ATOM     28  C   UNL     1     -11.743  10.746  69.875  0.00  0.00    +0.149 A 
ATOM     29  C   UNL     1     -11.275   9.540  70.386  0.00  0.00    +0.061 A 
BRANCH  24  32
ATOM     30  C   UNL     1     -10.381   6.388  73.656  0.00  0.00    +0.139 C 
ATOM     31  N   UNL     1     -10.944   7.624  73.184  0.00  0.00    -0.198 NA
ATOM     32  C   UNL     1     -11.644   7.627  71.946  0.00  0.00    +0.283 C 
ATOM     33  O   UNL     1     -12.276   6.590  71.586  0.00  0.00    -0.267 OA
ENDBRANCH  24  32
ENDBRANCH  23  28
ENDBRANCH   1  23
TORSDOF 6
ENDMDL
