MODEL 1
REMARK VINA RESULT:      -7.1      0.000      0.000
REMARK  Name = 
REMARK  0 active torsions:
REMARK  status: ('A' for Active; 'I' for Inactive)
REMARK                            x       y       z     vdW  Elec       q    Type
REMARK                         _______ _______ _______ _____ _____    ______ ____
ROOT
ATOM      1  N   UNL     1      -9.926  13.449  68.106  0.00  0.00    -0.069 NA
ATOM      2  C   UNL     1     -11.294  13.692  68.460  0.00  0.00    +0.350 C 
ATOM      3  N   UNL     1     -11.847  13.098  69.643  0.00  0.00    -0.219 N 
ATOM      4  C   UNL     1     -11.709  11.677  69.689  0.00  0.00    +0.060 A 
ATOM      5  C   UNL     1     -12.135  10.824  70.699  0.00  0.00    +0.014 A 
ATOM      6  C   UNL     1     -11.472   9.634  70.974  0.00  0.00    +0.001 A 
ATOM      7  C   UNL     1     -10.175   9.469  70.497  0.00  0.00    +0.000 A 
ATOM      8  C   UNL     1      -9.909  10.097  69.289  0.00  0.00    +0.001 A 
ATOM      9  C   UNL     1     -13.128  11.172  71.722  0.00  0.00    +0.001 C 
ATOM     10  C   UNL     1     -13.542  12.365  72.160  0.00  0.00    +0.001 C 
ATOM     11  C   UNL     1     -13.062  13.692  71.756  0.00  0.00    +0.014 A 
ATOM     12  C   UNL     1     -13.006  14.604  72.796  0.00  0.00    +0.001 A 
ATOM     13  C   UNL     1     -12.191  15.728  72.744  0.00  0.00    +0.000 A 
ATOM     14  C   UNL     1     -11.805  16.181  71.502  0.00  0.00    +0.001 A 
ATOM     15  C   UNL     1     -11.789  15.268  70.473  0.00  0.00    +0.015 A 
ATOM     16  C   UNL     1     -10.646  11.213  68.926  0.00  0.00    +0.015 A 
ATOM     17  C   UNL     1     -12.396  14.024  70.583  0.00  0.00    +0.060 A 
ATOM     18  O   UNL     1     -12.130  13.851  67.517  0.00  0.00    -0.248 OA
ENDROOT
TORSDOF 0
ENDMDL
MODEL 2
REMARK VINA RESULT:      -6.7      2.466      5.074
REMARK  Name = 
REMARK  0 active torsions:
REMARK  status: ('A' for Active; 'I' for Inactive)
REMARK                            x       y       z     vdW  Elec       q    Type
REMARK                         _______ _______ _______ _____ _____    ______ ____
ROOT
ATOM      1  N   UNL     1     -10.942  17.447  68.279  0.00  0.00    -0.069 NA
ATOM      2  C   UNL     1     -10.228  16.273  67.867  0.00  0.00    +0.350 C 
ATOM      3  N   UNL     1     -10.801  14.974  68.071  0.00  0.00    -0.219 N 
ATOM      4  C   UNL     1     -11.166  14.716  69.428  0.00  0.00    +0.060 A 
ATOM      5  C   UNL     1     -11.744  13.561  69.938  0.00  0.00    +0.014 A 
ATOM      6  C   UNL     1     -12.590  13.595  71.040  0.00  0.00    +0.001 A 
ATOM      7  C   UNL     1     -13.154  14.813  71.409  0.00  0.00    +0.000 A 
ATOM      8  C   UNL     1     -12.363  15.926  71.160  0.00  0.00    +0.001 A 
ATOM      9  C   UNL     1     -11.747  12.259  69.259  0.00  0.00    +0.001 C 
ATOM     10  C   UNL     1     -11.581  11.952  67.969  0.00  0.00    +0.001 C 
ATOM     11  C   UNL     1     -11.393  12.870  66.839  0.00  0.00    +0.014 A 
ATOM     12  C   UNL     1     -12.023  12.458  65.678  0.00  0.00    +0.001 A 
ATOM     13  C   UNL     1     -12.350  13.350  64.663  0.00  0.00    +0.000 A 
ATOM     14  C   UNL     1     -11.645  14.532  64.600  0.00  0.00    +0.001 A 
ATOM     15  C   UNL     1     -11.072  14.990  65.763  0.00  0.00    +0.015 A 
ATOM     16  C   UNL     1     -11.417  15.876  70.150  0.00  0.00    +0.015 A 
ATOM     17  C   UNL     1     -10.948  14.185  66.889  0.00  0.00    +0.060 A 
ATOM     18  O   UNL     1      -8.960  16.300  67.929  0.00  0.00    -0.248 OA
ENDROOT
TORSDOF 0
ENDMDL
MODEL 3
REMARK VINA RESULT:      -6.7      1.943      4.002
REMARK  Name = 
REMARK  0 active torsions:
REMARK  status: ('A' for Active; 'I' for Inactive)
REMARK                            x       y       z     vdW  Elec       q    Type
REMARK                         _______ _______ _______ _____ _____    ______ ____
ROOT
ATOM      1  N   UNL     1     -12.417  10.582  68.669  0.00  0.00    -0.069 NA
ATOM      2  C   UNL     1     -11.646  11.450  69.511  0.00  0.00    +0.350 C 
ATOM      3  N   UNL     1     -11.703  12.871  69.323  0.00  0.00    -0.219 N 
ATOM      4  C   UNL     1     -11.388  13.287  67.993  0.00  0.00    +0.060 A 
ATOM      5  C   UNL     1     -11.363  14.585  67.503  0.00  0.00    +0.014 A 
ATOM      6  C   UNL     1     -11.652  14.866  66.173  0.00  0.00    +0.001 A 
ATOM      7  C   UNL     1     -12.323  13.908  65.419  0.00  0.00    +0.000 A 
ATOM      8  C   UNL     1     -12.043  12.592  65.761  0.00  0.00    +0.001 A 
ATOM      9  C   UNL     1     -11.290  15.791  68.336  0.00  0.00    +0.001 C 
ATOM     10  C   UNL     1     -11.595  15.977  69.624  0.00  0.00    +0.001 C 
ATOM     11  C   UNL     1     -12.150  15.002  70.570  0.00  0.00    +0.014 A 
ATOM     12  C   UNL     1     -13.065  15.545  71.456  0.00  0.00    +0.001 A 
ATOM     13  C   UNL     1     -14.012  14.763  72.106  0.00  0.00    +0.000 A 
ATOM     14  C   UNL     1     -13.749  13.417  72.234  0.00  0.00    +0.001 A 
ATOM     15  C   UNL     1     -12.896  12.848  71.318  0.00  0.00    +0.015 A 
ATOM     16  C   UNL     1     -11.626  12.297  67.048  0.00  0.00    +0.015 A 
ATOM     17  C   UNL     1     -12.103  13.617  70.475  0.00  0.00    +0.060 A 
ATOM     18  O   UNL     1     -10.526  11.024  69.932  0.00  0.00    -0.248 OA
ENDROOT
TORSDOF 0
ENDMDL
MODEL 4
REMARK VINA RESULT:      -6.6      2.193      3.020
REMARK  Name = 
REMARK  0 active torsions:
REMARK  status: ('A' for Active; 'I' for Inactive)
REMARK                            x       y       z     vdW  Elec       q    Type
REMARK                         _______ _______ _______ _____ _____    ______ ____
ROOT
ATOM      1  N   UNL     1     -10.907  13.972  64.773  0.00  0.00    -0.069 NA
ATOM      2  C   UNL     1     -11.960  14.010  65.746  0.00  0.00    +0.350 C 
ATOM      3  N   UNL     1     -11.832  13.279  66.974  0.00  0.00    -0.219 N 
ATOM      4  C   UNL     1     -11.565  11.889  66.787  0.00  0.00    +0.060 A 
ATOM      5  C   UNL     1     -11.385  10.928  67.774  0.00  0.00    +0.014 A 
ATOM      6  C   UNL     1     -10.569   9.821  67.571  0.00  0.00    +0.001 A 
ATOM      7  C   UNL     1      -9.644   9.856  66.533  0.00  0.00    +0.000 A 
ATOM      8  C   UNL     1     -10.038  10.586  65.420  0.00  0.00    +0.001 A 
ATOM      9  C   UNL     1     -11.801  11.080  69.173  0.00  0.00    +0.001 C 
ATOM     10  C   UNL     1     -12.061  12.179  69.887  0.00  0.00    +0.001 C 
ATOM     11  C   UNL     1     -11.949  13.580  69.462  0.00  0.00    +0.014 A 
ATOM     12  C   UNL     1     -11.487  14.427  70.454  0.00  0.00    +0.001 A 
ATOM     13  C   UNL     1     -10.896  15.650  70.160  0.00  0.00    +0.000 A 
ATOM     14  C   UNL     1     -11.186  16.223  68.942  0.00  0.00    +0.001 A 
ATOM     15  C   UNL     1     -11.579  15.384  67.926  0.00  0.00    +0.015 A 
ATOM     16  C   UNL     1     -10.953  11.615  65.570  0.00  0.00    +0.015 A 
ATOM     17  C   UNL     1     -11.950  14.066  68.161  0.00  0.00    +0.060 A 
ATOM     18  O   UNL     1     -13.153  14.115  65.323  0.00  0.00    -0.248 OA
ENDROOT
TORSDOF 0
ENDMDL
MODEL 5
REMARK VINA RESULT:      -6.4      2.783      4.169
REMARK  Name = 
REMARK  0 active torsions:
REMARK  status: ('A' for Active; 'I' for Inactive)
REMARK                            x       y       z     vdW  Elec       q    Type
REMARK                         _______ _______ _______ _____ _____    ______ ____
ROOT
ATOM      1  N   UNL     1     -10.464  13.338  64.591  0.00  0.00    -0.069 NA
ATOM      2  C   UNL     1     -11.220  14.435  65.123  0.00  0.00    +0.350 C 
ATOM      3  N   UNL     1     -11.283  14.645  66.540  0.00  0.00    -0.219 N 
ATOM      4  C   UNL     1     -11.742  13.505  67.269  0.00  0.00    +0.060 A 
ATOM      5  C   UNL     1     -11.904  13.396  68.644  0.00  0.00    +0.014 A 
ATOM      6  C   UNL     1     -11.753  12.180  69.300  0.00  0.00    +0.001 A 
ATOM      7  C   UNL     1     -11.082  11.150  68.648  0.00  0.00    +0.000 A 
ATOM      8  C   UNL     1     -11.234  11.130  67.269  0.00  0.00    +0.001 A 
ATOM      9  C   UNL     1     -11.993  14.534  69.566  0.00  0.00    +0.001 C 
ATOM     10  C   UNL     1     -11.592  15.800  69.425  0.00  0.00    +0.001 C 
ATOM     11  C   UNL     1     -10.887  16.403  68.286  0.00  0.00    +0.014 A 
ATOM     12  C   UNL     1      -9.941  17.344  68.654  0.00  0.00    +0.001 A 
ATOM     13  C   UNL     1      -8.887  17.691  67.818  0.00  0.00    +0.000 A 
ATOM     14  C   UNL     1      -9.038  17.458  66.468  0.00  0.00    +0.001 A 
ATOM     15  C   UNL     1      -9.924  16.476  66.091  0.00  0.00    +0.015 A 
ATOM     16  C   UNL     1     -11.515  12.310  66.598  0.00  0.00    +0.015 A 
ATOM     17  C   UNL     1     -10.841  15.931  66.981  0.00  0.00    +0.060 A 
ATOM     18  O   UNL     1     -12.265  14.792  64.495  0.00  0.00    -0.248 OA
ENDROOT
TORSDOF 0
ENDMDL
MODEL 6
REMARK VINA RESULT:      -6.4      2.273      3.487
REMARK  Name = 
REMARK  0 active torsions:
REMARK  status: ('A' for Active; 'I' for Inactive)
REMARK                            x       y       z     vdW  Elec       q    Type
REMARK                         _______ _______ _______ _____ _____    ______ ____
ROOT
ATOM      1  N   UNL     1     -10.798  11.693  64.969  0.00  0.00    -0.069 NA
ATOM      2  C   UNL     1     -11.770  12.613  65.485  0.00  0.00    +0.350 C 
ATOM      3  N   UNL     1     -11.726  13.005  66.864  0.00  0.00    -0.219 N 
ATOM      4  C   UNL     1     -11.752  11.905  67.775  0.00  0.00    +0.060 A 
ATOM      5  C   UNL     1     -11.716  11.961  69.162  0.00  0.00    +0.014 A 
ATOM      6  C   UNL     1     -11.148  10.942  69.917  0.00  0.00    +0.001 A 
ATOM      7  C   UNL     1     -10.289  10.045  69.287  0.00  0.00    +0.000 A 
ATOM      8  C   UNL     1     -10.588   9.781  67.958  0.00  0.00    +0.001 A 
ATOM      9  C   UNL     1     -12.020  13.156  69.957  0.00  0.00    +0.001 C 
ATOM     10  C   UNL     1     -12.017  14.449  69.618  0.00  0.00    +0.001 C 
ATOM     11  C   UNL     1     -11.651  15.043  68.326  0.00  0.00    +0.014 A 
ATOM     12  C   UNL     1     -10.979  16.248  68.439  0.00  0.00    +0.001 A 
ATOM     13  C   UNL     1     -10.172  16.737  67.419  0.00  0.00    +0.000 A 
ATOM     14  C   UNL     1     -10.405  16.275  66.143  0.00  0.00    +0.001 A 
ATOM     15  C   UNL     1     -11.010  15.046  66.015  0.00  0.00    +0.015 A 
ATOM     16  C   UNL     1     -11.271  10.729  67.213  0.00  0.00    +0.015 A 
ATOM     17  C   UNL     1     -11.623  14.413  67.089  0.00  0.00    +0.060 A 
ATOM     18  O   UNL     1     -12.938  12.579  64.989  0.00  0.00    -0.248 OA
ENDROOT
TORSDOF 0
ENDMDL
MODEL 7
REMARK VINA RESULT:      -6.3      3.115      4.359
REMARK  Name = 
REMARK  0 active torsions:
REMARK  status: ('A' for Active; 'I' for Inactive)
REMARK                            x       y       z     vdW  Elec       q    Type
REMARK                         _______ _______ _______ _____ _____    ______ ____
ROOT
ATOM      1  N   UNL     1     -10.303  12.359  63.482  0.00  0.00    -0.069 NA
ATOM      2  C   UNL     1     -11.364  13.043  64.163  0.00  0.00    +0.350 C 
ATOM      3  N   UNL     1     -11.393  13.080  65.596  0.00  0.00    -0.219 N 
ATOM      4  C   UNL     1     -11.351  11.788  66.203  0.00  0.00    +0.060 A 
ATOM      5  C   UNL     1     -11.360  11.496  67.561  0.00  0.00    +0.014 A 
ATOM      6  C   UNL     1     -10.729  10.366  68.067  0.00  0.00    +0.001 A 
ATOM      7  C   UNL     1      -9.780   9.723  67.278  0.00  0.00    +0.000 A 
ATOM      8  C   UNL     1     -10.016   9.780  65.912  0.00  0.00    +0.001 A 
ATOM      9  C   UNL     1     -11.787  12.428  68.612  0.00  0.00    +0.001 C 
ATOM     10  C   UNL     1     -11.885  13.760  68.604  0.00  0.00    +0.001 C 
ATOM     11  C   UNL     1     -11.534  14.686  67.519  0.00  0.00    +0.014 A 
ATOM     12  C   UNL     1     -10.971  15.870  67.960  0.00  0.00    +0.001 A 
ATOM     13  C   UNL     1     -10.179  16.659  67.134  0.00  0.00    +0.000 A 
ATOM     14  C   UNL     1     -10.336  16.516  65.773  0.00  0.00    +0.001 A 
ATOM     15  C   UNL     1     -10.829  15.317  65.315  0.00  0.00    +0.015 A 
ATOM     16  C   UNL     1     -10.756  10.829  65.392  0.00  0.00    +0.015 A 
ATOM     17  C   UNL     1     -11.417  14.390  66.167  0.00  0.00    +0.060 A 
ATOM     18  O   UNL     1     -12.510  13.047  63.617  0.00  0.00    -0.248 OA
ENDROOT
TORSDOF 0
ENDMDL
MODEL 8
REMARK VINA RESULT:      -6.2      2.419      4.522
REMARK  Name = 
REMARK  0 active torsions:
REMARK  status: ('A' for Active; 'I' for Inactive)
REMARK                            x       y       z     vdW  Elec       q    Type
REMARK                         _______ _______ _______ _____ _____    ______ ____
ROOT
ATOM      1  N   UNL     1     -10.561   9.400  66.740  0.00  0.00    -0.069 NA
ATOM      2  C   UNL     1     -10.115  10.181  67.858  0.00  0.00    +0.350 C 
ATOM      3  N   UNL     1     -10.845  11.351  68.253  0.00  0.00    -0.219 N 
ATOM      4  C   UNL     1     -11.023  12.299  67.200  0.00  0.00    +0.060 A 
ATOM      5  C   UNL     1     -11.686  13.517  67.269  0.00  0.00    +0.014 A 
ATOM      6  C   UNL     1     -12.329  14.060  66.162  0.00  0.00    +0.001 A 
ATOM      7  C   UNL     1     -12.629  13.224  65.090  0.00  0.00    +0.000 A 
ATOM      8  C   UNL     1     -11.723  12.195  64.877  0.00  0.00    +0.001 A 
ATOM      9  C   UNL     1     -12.001  14.227  68.514  0.00  0.00    +0.001 C 
ATOM     10  C   UNL     1     -12.094  13.778  69.769  0.00  0.00    +0.001 C 
ATOM     11  C   UNL     1     -11.948  12.398  70.249  0.00  0.00    +0.014 A 
ATOM     12  C   UNL     1     -12.813  12.073  71.280  0.00  0.00    +0.001 A 
ATOM     13  C   UNL     1     -13.154  10.756  71.565  0.00  0.00    +0.000 A 
ATOM     14  C   UNL     1     -12.291   9.768  71.145  0.00  0.00    +0.001 A 
ATOM     15  C   UNL     1     -11.475  10.053  70.075  0.00  0.00    +0.015 A 
ATOM     16  C   UNL     1     -10.971  11.720  65.938  0.00  0.00    +0.015 A 
ATOM     17  C   UNL     1     -11.300  11.350  69.608  0.00  0.00    +0.060 A 
ATOM     18  O   UNL     1      -8.866  10.248  68.071  0.00  0.00    -0.248 OA
ENDROOT
TORSDOF 0
ENDMDL
MODEL 9
REMARK VINA RESULT:      -6.0      2.179      5.405
REMARK  Name = 
REMARK  0 active torsions:
REMARK  status: ('A' for Active; 'I' for Inactive)
REMARK                            x       y       z     vdW  Elec       q    Type
REMARK                         _______ _______ _______ _____ _____    ______ ____
ROOT
ATOM      1  N   UNL     1     -11.403  15.182  71.537  0.00  0.00    -0.069 NA
ATOM      2  C   UNL     1     -12.316  14.457  70.702  0.00  0.00    +0.350 C 
ATOM      3  N   UNL     1     -11.958  14.141  69.349  0.00  0.00    -0.219 N 
ATOM      4  C   UNL     1     -11.589  15.283  68.574  0.00  0.00    +0.060 A 
ATOM      5  C   UNL     1     -11.191  15.302  67.243  0.00  0.00    +0.014 A 
ATOM      6  C   UNL     1     -10.309  16.262  66.761  0.00  0.00    +0.001 A 
ATOM      7  C   UNL     1      -9.538  16.976  67.673  0.00  0.00    +0.000 A 
ATOM      8  C   UNL     1     -10.143  17.206  68.901  0.00  0.00    +0.001 A 
ATOM      9  C   UNL     1     -11.429  14.216  66.285  0.00  0.00    +0.001 C 
ATOM     10  C   UNL     1     -11.693  12.922  66.488  0.00  0.00    +0.001 C 
ATOM     11  C   UNL     1     -11.770  12.204  67.766  0.00  0.00    +0.014 A 
ATOM     12  C   UNL     1     -11.261  10.918  67.714  0.00  0.00    +0.001 A 
ATOM     13  C   UNL     1     -10.831  10.251  68.855  0.00  0.00    +0.000 A 
ATOM     14  C   UNL     1     -11.333  10.670  70.067  0.00  0.00    +0.001 A 
ATOM     15  C   UNL     1     -11.778  11.968  70.153  0.00  0.00    +0.015 A 
ATOM     16  C   UNL     1     -11.122  16.336  69.350  0.00  0.00    +0.015 A 
ATOM     17  C   UNL     1     -11.989  12.750  69.024  0.00  0.00    +0.060 A 
ATOM     18  O   UNL     1     -13.559  14.644  70.883  0.00  0.00    -0.248 OA
ENDROOT
TORSDOF 0
ENDMDL
