MODEL 1
REMARK VINA RESULT:      -7.5      0.000      0.000
REMARK  Name = 
REMARK  4 active torsions:
REMARK  status: ('A' for Active; 'I' for Inactive)
REMARK    1  A    between atoms: N_2  and  C_4
REMARK    2  A    between atoms: C_7  and  C_8
REMARK    3  A    between atoms: C_8  and  C_9
REMARK    4  A    between atoms: C_12  and  N_13
REMARK                            x       y       z     vdW  Elec       q    Type
REMARK                         _______ _______ _______ _____ _____    ______ ____
ROOT
ATOM      1  C   UNL     1     -10.868  15.646  67.582  0.00  0.00    +0.000 C 
ATOM      2  C   UNL     1     -11.395  15.456  68.771  0.00  0.00    +0.000 C 
ATOM      3  C   UNL     1     -11.112  16.369  69.887  0.00  0.00    +0.006 C 
ATOM      4  C   UNL     1     -11.298  16.007  71.150  0.00  0.00    +0.069 C 
ATOM      5  C   UNL     1     -12.195  14.895  71.443  0.00  0.00    +0.222 C 
ATOM      6  N   UNL     1     -13.031  14.944  72.438  0.00  0.00    -0.177 N 
ATOM      7  C   UNL     1     -14.323  15.554  72.131  0.00  0.00    +0.403 C 
ATOM      8  C   UNL     1     -12.588  14.864  73.819  0.00  0.00    +0.403 C 
ATOM      9  C   UNL     1     -12.313  13.874  70.403  0.00  0.00    +0.069 C 
ATOM     10  C   UNL     1     -12.012  14.180  69.160  0.00  0.00    +0.006 C 
ENDROOT
BRANCH   1  14
ATOM     11  C   UNL     1     -10.883  13.053  64.353  0.00  0.00    +0.048 A 
ATOM     12  C   UNL     1     -12.013  13.831  64.563  0.00  0.00    +0.015 A 
ATOM     13  C   UNL     1     -12.110  14.701  65.642  0.00  0.00    +0.001 A 
ATOM     14  C   UNL     1     -11.096  14.596  66.581  0.00  0.00    +0.000 A 
ATOM     15  C   UNL     1     -10.218  13.536  66.579  0.00  0.00    +0.001 A 
ATOM     16  C   UNL     1     -10.125  12.729  65.472  0.00  0.00    +0.015 A 
BRANCH  11  18
ATOM     17  C   UNL     1     -12.373  11.538  63.109  0.00  0.00    +0.112 C 
ATOM     18  N   UNL     1     -11.026  11.999  63.392  0.00  0.00    -0.304 N 
ATOM     19  C   UNL     1      -9.909  11.063  63.318  0.00  0.00    +0.112 C 
ENDBRANCH  11  18
ENDBRANCH   1  14
BRANCH   1  20
ATOM     20  C   UNL     1      -9.878  16.668  67.315  0.00  0.00    +0.000 A 
ATOM     21  C   UNL     1     -10.281  17.885  66.779  0.00  0.00    +0.001 A 
ATOM     22  C   UNL     1      -9.368  18.933  66.787  0.00  0.00    +0.015 A 
ATOM     23  C   UNL     1      -8.185  18.777  67.498  0.00  0.00    +0.048 A 
ATOM     24  C   UNL     1      -7.701  17.481  67.585  0.00  0.00    +0.015 A 
ATOM     25  C   UNL     1      -8.515  16.417  67.218  0.00  0.00    +0.001 A 
BRANCH  23  26
ATOM     26  N   UNL     1      -7.508  19.894  68.081  0.00  0.00    -0.304 N 
ATOM     27  C   UNL     1      -6.786  19.689  69.334  0.00  0.00    +0.112 C 
ATOM     28  C   UNL     1      -6.896  20.833  67.145  0.00  0.00    +0.112 C 
ENDBRANCH  23  26
ENDBRANCH   1  20
TORSDOF 4
ENDMDL
MODEL 2
REMARK VINA RESULT:      -7.1      1.067      1.323
REMARK  Name = 
REMARK  4 active torsions:
REMARK  status: ('A' for Active; 'I' for Inactive)
REMARK    1  A    between atoms: N_2  and  C_4
REMARK    2  A    between atoms: C_7  and  C_8
REMARK    3  A    between atoms: C_8  and  C_9
REMARK    4  A    between atoms: C_12  and  N_13
REMARK                            x       y       z     vdW  Elec       q    Type
REMARK                         _______ _______ _______ _____ _____    ______ ____
ROOT
ATOM      1  C   UNL     1     -10.764  14.825  67.453  0.00  0.00    +0.000 C 
ATOM      2  C   UNL     1     -11.364  14.831  68.623  0.00  0.00    +0.000 C 
ATOM      3  C   UNL     1     -11.329  16.015  69.492  0.00  0.00    +0.006 C 
ATOM      4  C   UNL     1     -11.574  15.932  70.794  0.00  0.00    +0.069 C 
ATOM      5  C   UNL     1     -12.313  14.784  71.304  0.00  0.00    +0.222 C 
ATOM      6  N   UNL     1     -13.235  14.920  72.211  0.00  0.00    -0.177 N 
ATOM      7  C   UNL     1     -14.572  15.211  71.694  0.00  0.00    +0.403 C 
ATOM      8  C   UNL     1     -12.915  15.243  73.590  0.00  0.00    +0.403 C 
ATOM      9  C   UNL     1     -12.176  13.543  70.543  0.00  0.00    +0.069 C 
ATOM     10  C   UNL     1     -11.811  13.596  69.280  0.00  0.00    +0.006 C 
ENDROOT
BRANCH   1  14
ATOM     11  C   UNL     1     -10.045  11.564  65.002  0.00  0.00    +0.048 A 
ATOM     12  C   UNL     1     -11.271  12.205  64.883  0.00  0.00    +0.015 A 
ATOM     13  C   UNL     1     -11.612  13.284  65.690  0.00  0.00    +0.001 A 
ATOM     14  C   UNL     1     -10.735  13.547  66.731  0.00  0.00    +0.000 A 
ATOM     15  C   UNL     1      -9.756  12.649  67.093  0.00  0.00    +0.001 A 
ATOM     16  C   UNL     1      -9.422  11.624  66.243  0.00  0.00    +0.015 A 
BRANCH  11  18
ATOM     17  C   UNL     1      -9.399   9.190  65.087  0.00  0.00    +0.112 C 
ATOM     18  N   UNL     1      -9.938  10.304  64.328  0.00  0.00    -0.304 N 
ATOM     19  C   UNL     1      -9.704  10.381  62.889  0.00  0.00    +0.112 C 
ENDBRANCH  11  18
ENDBRANCH   1  14
BRANCH   1  20
ATOM     20  C   UNL     1      -9.922  15.909  66.995  0.00  0.00    +0.000 A 
ATOM     21  C   UNL     1     -10.502  17.009  66.374  0.00  0.00    +0.001 A 
ATOM     22  C   UNL     1      -9.719  18.143  66.192  0.00  0.00    +0.015 A 
ATOM     23  C   UNL     1      -8.475  18.194  66.809  0.00  0.00    +0.048 A 
ATOM     24  C   UNL     1      -7.839  16.975  66.986  0.00  0.00    +0.015 A 
ATOM     25  C   UNL     1      -8.550  15.796  66.804  0.00  0.00    +0.001 A 
BRANCH  23  26
ATOM     26  N   UNL     1      -7.889  19.435  67.211  0.00  0.00    -0.304 N 
ATOM     27  C   UNL     1      -7.462  19.581  68.600  0.00  0.00    +0.112 C 
ATOM     28  C   UNL     1      -7.049  20.100  66.218  0.00  0.00    +0.112 C 
ENDBRANCH  23  26
ENDBRANCH   1  20
TORSDOF 4
ENDMDL
MODEL 3
REMARK VINA RESULT:      -6.3      1.141      5.815
REMARK  Name = 
REMARK  4 active torsions:
REMARK  status: ('A' for Active; 'I' for Inactive)
REMARK    1  A    between atoms: N_2  and  C_4
REMARK    2  A    between atoms: C_7  and  C_8
REMARK    3  A    between atoms: C_8  and  C_9
REMARK    4  A    between atoms: C_12  and  N_13
REMARK                            x       y       z     vdW  Elec       q    Type
REMARK                         _______ _______ _______ _____ _____    ______ ____
ROOT
ATOM      1  C   UNL     1      -9.760  15.490  67.758  0.00  0.00    +0.000 C 
ATOM      2  C   UNL     1      -8.844  16.431  67.685  0.00  0.00    +0.000 C 
ATOM      3  C   UNL     1      -8.700  17.439  68.745  0.00  0.00    +0.006 C 
ATOM      4  C   UNL     1      -8.078  18.592  68.531  0.00  0.00    +0.069 C 
ATOM      5  C   UNL     1      -7.148  18.699  67.414  0.00  0.00    +0.222 C 
ATOM      6  N   UNL     1      -6.011  19.318  67.536  0.00  0.00    -0.177 N 
ATOM      7  C   UNL     1      -4.908  18.494  68.027  0.00  0.00    +0.403 C 
ATOM      8  C   UNL     1      -5.932  20.764  67.654  0.00  0.00    +0.403 C 
ATOM      9  C   UNL     1      -7.421  17.833  66.267  0.00  0.00    +0.069 C 
ATOM     10  C   UNL     1      -8.143  16.747  66.434  0.00  0.00    +0.006 C 
ENDROOT
BRANCH   1  14
ATOM     11  C   UNL     1     -10.950  12.890  64.762  0.00  0.00    +0.048 A 
ATOM     12  C   UNL     1      -9.856  12.528  65.537  0.00  0.00    +0.015 A 
ATOM     13  C   UNL     1      -9.365  13.355  66.539  0.00  0.00    +0.001 A 
ATOM     14  C   UNL     1      -9.915  14.626  66.581  0.00  0.00    +0.000 A 
ATOM     15  C   UNL     1     -10.685  15.113  65.549  0.00  0.00    +0.001 A 
ATOM     16  C   UNL     1     -11.186  14.251  64.605  0.00  0.00    +0.015 A 
BRANCH  11  18
ATOM     17  C   UNL     1     -12.543  11.820  63.221  0.00  0.00    +0.112 C 
ATOM     18  N   UNL     1     -11.167  12.097  63.588  0.00  0.00    -0.304 N 
ATOM     19  C   UNL     1     -10.127  11.115  63.294  0.00  0.00    +0.112 C 
ENDBRANCH  11  18
ENDBRANCH   1  14
BRANCH   1  20
ATOM     20  C   UNL     1     -10.769  15.453  68.795  0.00  0.00    +0.000 A 
ATOM     21  C   UNL     1     -11.725  14.445  68.779  0.00  0.00    +0.001 A 
ATOM     22  C   UNL     1     -12.504  14.270  69.917  0.00  0.00    +0.015 A 
ATOM     23  C   UNL     1     -12.161  14.967  71.069  0.00  0.00    +0.048 A 
ATOM     24  C   UNL     1     -11.552  16.196  70.870  0.00  0.00    +0.015 A 
ATOM     25  C   UNL     1     -11.083  16.535  69.608  0.00  0.00    +0.001 A 
BRANCH  23  26
ATOM     26  N   UNL     1     -12.445  14.448  72.371  0.00  0.00    -0.304 N 
ATOM     27  C   UNL     1     -12.298  15.340  73.519  0.00  0.00    +0.112 C 
ATOM     28  C   UNL     1     -13.540  13.486  72.455  0.00  0.00    +0.112 C 
ENDBRANCH  23  26
ENDBRANCH   1  20
TORSDOF 4
ENDMDL
MODEL 4
REMARK VINA RESULT:      -6.3      4.391      7.826
REMARK  Name = 
REMARK  4 active torsions:
REMARK  status: ('A' for Active; 'I' for Inactive)
REMARK    1  A    between atoms: N_2  and  C_4
REMARK    2  A    between atoms: C_7  and  C_8
REMARK    3  A    between atoms: C_8  and  C_9
REMARK    4  A    between atoms: C_12  and  N_13
REMARK                            x       y       z     vdW  Elec       q    Type
REMARK                         _______ _______ _______ _____ _____    ______ ____
ROOT
ATOM      1  C   UNL     1     -11.081  10.743  69.953  0.00  0.00    +0.000 C 
ATOM      2  C   UNL     1     -10.965   9.627  70.638  0.00  0.00    +0.000 C 
ATOM      3  C   UNL     1     -10.150   8.509  70.142  0.00  0.00    +0.006 C 
ATOM      4  C   UNL     1     -10.317   7.271  70.590  0.00  0.00    +0.069 C 
ATOM      5  C   UNL     1     -10.973   7.065  71.876  0.00  0.00    +0.222 C 
ATOM      6  N   UNL     1     -10.532   6.187  72.728  0.00  0.00    -0.177 N 
ATOM      7  C   UNL     1      -9.496   6.675  73.638  0.00  0.00    +0.403 C 
ATOM      8  C   UNL     1     -10.673   4.759  72.503  0.00  0.00    +0.403 C 
ATOM      9  C   UNL     1     -11.945   8.084  72.271  0.00  0.00    +0.069 C 
ATOM     10  C   UNL     1     -11.872   9.286  71.742  0.00  0.00    +0.006 C 
ENDROOT
BRANCH   1  14
ATOM     11  C   UNL     1     -13.113  13.827  71.830  0.00  0.00    +0.048 A 
ATOM     12  C   UNL     1     -13.513  12.526  72.104  0.00  0.00    +0.015 A 
ATOM     13  C   UNL     1     -12.914  11.433  71.493  0.00  0.00    +0.001 A 
ATOM     14  C   UNL     1     -12.034  11.736  70.465  0.00  0.00    +0.000 A 
ATOM     15  C   UNL     1     -11.969  12.999  69.921  0.00  0.00    +0.001 A 
ATOM     16  C   UNL     1     -12.540  14.058  70.584  0.00  0.00    +0.015 A 
BRANCH  11  18
ATOM     17  C   UNL     1     -15.122  15.196  71.445  0.00  0.00    +0.112 C 
ATOM     18  N   UNL     1     -13.994  14.857  72.293  0.00  0.00    -0.304 N 
ATOM     19  C   UNL     1     -13.373  15.889  73.118  0.00  0.00    +0.112 C 
ENDBRANCH  11  18
ENDBRANCH   1  14
BRANCH   1  20
ATOM     20  C   UNL     1     -10.543  10.908  68.620  0.00  0.00    +0.000 A 
ATOM     21  C   UNL     1     -11.145  10.250  67.555  0.00  0.00    +0.001 A 
ATOM     22  C   UNL     1     -10.788  10.633  66.267  0.00  0.00    +0.015 A 
ATOM     23  C   UNL     1     -10.008  11.772  66.107  0.00  0.00    +0.048 A 
ATOM     24  C   UNL     1      -9.135  12.055  67.145  0.00  0.00    +0.015 A 
ATOM     25  C   UNL     1      -9.266  11.386  68.356  0.00  0.00    +0.001 A 
BRANCH  23  26
ATOM     26  N   UNL     1     -10.095  12.580  64.931  0.00  0.00    -0.304 N 
ATOM     27  C   UNL     1     -10.186  11.910  63.636  0.00  0.00    +0.112 C 
ATOM     28  C   UNL     1     -10.859  13.818  65.056  0.00  0.00    +0.112 C 
ENDBRANCH  23  26
ENDBRANCH   1  20
TORSDOF 4
ENDMDL
MODEL 5
REMARK VINA RESULT:      -6.2      1.488      6.551
REMARK  Name = 
REMARK  4 active torsions:
REMARK  status: ('A' for Active; 'I' for Inactive)
REMARK    1  A    between atoms: N_2  and  C_4
REMARK    2  A    between atoms: C_7  and  C_8
REMARK    3  A    between atoms: C_8  and  C_9
REMARK    4  A    between atoms: C_12  and  N_13
REMARK                            x       y       z     vdW  Elec       q    Type
REMARK                         _______ _______ _______ _____ _____    ______ ____
ROOT
ATOM      1  C   UNL     1      -9.346  14.868  68.183  0.00  0.00    +0.000 C 
ATOM      2  C   UNL     1     -10.332  14.920  69.051  0.00  0.00    +0.000 C 
ATOM      3  C   UNL     1     -11.315  13.834  69.155  0.00  0.00    +0.006 C 
ATOM      4  C   UNL     1     -12.503  14.019  69.718  0.00  0.00    +0.069 C 
ATOM      5  C   UNL     1     -12.686  15.139  70.634  0.00  0.00    +0.222 C 
ATOM      6  N   UNL     1     -13.356  15.006  71.740  0.00  0.00    -0.177 N 
ATOM      7  C   UNL     1     -12.574  14.545  72.886  0.00  0.00    +0.403 C 
ATOM      8  C   UNL     1     -14.800  14.848  71.750  0.00  0.00    +0.403 C 
ATOM      9  C   UNL     1     -11.840  16.308  70.395  0.00  0.00    +0.069 C 
ATOM     10  C   UNL     1     -10.716  16.167  69.728  0.00  0.00    +0.006 C 
ENDROOT
BRANCH   1  14
ATOM     11  C   UNL     1      -7.389  18.503  68.525  0.00  0.00    +0.048 A 
ATOM     12  C   UNL     1      -8.168  18.291  67.395  0.00  0.00    +0.015 A 
ATOM     13  C   UNL     1      -8.830  17.089  67.180  0.00  0.00    +0.001 A 
ATOM     14  C   UNL     1      -8.508  16.069  68.061  0.00  0.00    +0.000 A 
ATOM     15  C   UNL     1      -7.426  16.161  68.907  0.00  0.00    +0.001 A 
ATOM     16  C   UNL     1      -6.831  17.380  69.123  0.00  0.00    +0.015 A 
BRANCH  11  18
ATOM     17  C   UNL     1      -6.024  20.147  69.747  0.00  0.00    +0.112 C 
ATOM     18  N   UNL     1      -6.537  19.655  68.482  0.00  0.00    -0.304 N 
ATOM     19  C   UNL     1      -6.804  20.591  67.394  0.00  0.00    +0.112 C 
ENDBRANCH  11  18
ENDBRANCH   1  14
BRANCH   1  20
ATOM     20  C   UNL     1      -9.231  13.827  67.185  0.00  0.00    +0.000 A 
ATOM     21  C   UNL     1      -8.227  12.873  67.306  0.00  0.00    +0.001 A 
ATOM     22  C   UNL     1      -8.303  11.742  66.502  0.00  0.00    +0.015 A 
ATOM     23  C   UNL     1      -9.465  11.527  65.770  0.00  0.00    +0.048 A 
ATOM     24  C   UNL     1     -10.146  12.666  65.372  0.00  0.00    +0.015 A 
ATOM     25  C   UNL     1      -9.813  13.896  65.925  0.00  0.00    +0.001 A 
BRANCH  23  26
ATOM     26  N   UNL     1      -9.906  10.208  65.436  0.00  0.00    -0.304 N 
ATOM     27  C   UNL     1      -9.340   9.567  64.252  0.00  0.00    +0.112 C 
ATOM     28  C   UNL     1     -10.187   9.321  66.562  0.00  0.00    +0.112 C 
ENDBRANCH  23  26
ENDBRANCH   1  20
TORSDOF 4
ENDMDL
MODEL 6
REMARK VINA RESULT:      -6.2      2.869      7.265
REMARK  Name = 
REMARK  4 active torsions:
REMARK  status: ('A' for Active; 'I' for Inactive)
REMARK    1  A    between atoms: N_2  and  C_4
REMARK    2  A    between atoms: C_7  and  C_8
REMARK    3  A    between atoms: C_8  and  C_9
REMARK    4  A    between atoms: C_12  and  N_13
REMARK                            x       y       z     vdW  Elec       q    Type
REMARK                         _______ _______ _______ _____ _____    ______ ____
ROOT
ATOM      1  C   UNL     1     -10.527  12.437  67.104  0.00  0.00    +0.000 C 
ATOM      2  C   UNL     1     -10.166  13.701  67.129  0.00  0.00    +0.000 C 
ATOM      3  C   UNL     1      -9.838  14.425  65.894  0.00  0.00    +0.006 C 
ATOM      4  C   UNL     1      -9.118  15.541  65.909  0.00  0.00    +0.069 C 
ATOM      5  C   UNL     1      -9.026  16.307  67.145  0.00  0.00    +0.222 C 
ATOM      6  N   UNL     1      -9.100  17.606  67.144  0.00  0.00    -0.177 N 
ATOM      7  C   UNL     1     -10.455  18.148  67.224  0.00  0.00    +0.403 C 
ATOM      8  C   UNL     1      -8.026  18.436  66.627  0.00  0.00    +0.403 C 
ATOM      9  C   UNL     1      -9.148  15.542  68.386  0.00  0.00    +0.069 C 
ATOM     10  C   UNL     1      -9.750  14.373  68.368  0.00  0.00    +0.006 C 
ENDROOT
BRANCH   1  14
ATOM     11  C   UNL     1     -11.129   9.875  70.304  0.00  0.00    +0.048 A 
ATOM     12  C   UNL     1     -12.020  10.927  70.139  0.00  0.00    +0.015 A 
ATOM     13  C   UNL     1     -11.874  11.855  69.117  0.00  0.00    +0.001 A 
ATOM     14  C   UNL     1     -10.689  11.770  68.403  0.00  0.00    +0.000 A 
ATOM     15  C   UNL     1      -9.635  11.004  68.845  0.00  0.00    +0.001 A 
ATOM     16  C   UNL     1      -9.837  10.067  69.829  0.00  0.00    +0.015 A 
BRANCH  11  18
ATOM     17  C   UNL     1     -10.034   8.472  72.004  0.00  0.00    +0.112 C 
ATOM     18  N   UNL     1     -11.220   9.175  71.550  0.00  0.00    -0.304 N 
ATOM     19  C   UNL     1     -12.543   8.653  71.880  0.00  0.00    +0.112 C 
ENDBRANCH  11  18
ENDBRANCH   1  14
BRANCH   1  20
ATOM     20  C   UNL     1     -10.496  11.634  65.901  0.00  0.00    +0.000 A 
ATOM     21  C   UNL     1     -11.299  11.989  64.823  0.00  0.00    +0.001 A 
ATOM     22  C   UNL     1     -11.054  11.376  63.600  0.00  0.00    +0.015 A 
ATOM     23  C   UNL     1      -9.911  10.598  63.465  0.00  0.00    +0.048 A 
ATOM     24  C   UNL     1      -9.473   9.966  64.618  0.00  0.00    +0.015 A 
ATOM     25  C   UNL     1     -10.000  10.337  65.849  0.00  0.00    +0.001 A 
BRANCH  23  26
ATOM     26  N   UNL     1      -9.250  10.449  62.206  0.00  0.00    -0.304 N 
ATOM     27  C   UNL     1      -7.975  11.135  62.008  0.00  0.00    +0.112 C 
ATOM     28  C   UNL     1      -9.370   9.141  61.567  0.00  0.00    +0.112 C 
ENDBRANCH  23  26
ENDBRANCH   1  20
TORSDOF 4
ENDMDL
MODEL 7
REMARK VINA RESULT:      -6.1      1.693      6.134
REMARK  Name = 
REMARK  4 active torsions:
REMARK  status: ('A' for Active; 'I' for Inactive)
REMARK    1  A    between atoms: N_2  and  C_4
REMARK    2  A    between atoms: C_7  and  C_8
REMARK    3  A    between atoms: C_8  and  C_9
REMARK    4  A    between atoms: C_12  and  N_13
REMARK                            x       y       z     vdW  Elec       q    Type
REMARK                         _______ _______ _______ _____ _____    ______ ____
ROOT
ATOM      1  C   UNL     1      -9.752  14.010  67.691  0.00  0.00    +0.000 C 
ATOM      2  C   UNL     1     -10.494  14.391  68.707  0.00  0.00    +0.000 C 
ATOM      3  C   UNL     1     -11.549  13.524  69.249  0.00  0.00    +0.006 C 
ATOM      4  C   UNL     1     -12.541  14.008  69.985  0.00  0.00    +0.069 C 
ATOM      5  C   UNL     1     -12.369  15.297  70.645  0.00  0.00    +0.222 C 
ATOM      6  N   UNL     1     -12.773  15.493  71.865  0.00  0.00    -0.177 N 
ATOM      7  C   UNL     1     -11.806  15.137  72.901  0.00  0.00    +0.403 C 
ATOM      8  C   UNL     1     -14.183  15.582  72.203  0.00  0.00    +0.403 C 
ATOM      9  C   UNL     1     -11.469  16.241  69.983  0.00  0.00    +0.069 C 
ATOM     10  C   UNL     1     -10.557  15.790  69.150  0.00  0.00    +0.006 C 
ENDROOT
BRANCH   1  14
ATOM     11  C   UNL     1      -7.231  17.193  66.869  0.00  0.00    +0.048 A 
ATOM     12  C   UNL     1      -8.389  17.072  66.113  0.00  0.00    +0.015 A 
ATOM     13  C   UNL     1      -9.273  16.016  66.294  0.00  0.00    +0.001 A 
ATOM     14  C   UNL     1      -8.828  15.008  67.135  0.00  0.00    +0.000 A 
ATOM     15  C   UNL     1      -7.515  14.934  67.540  0.00  0.00    +0.001 A 
ATOM     16  C   UNL     1      -6.689  16.019  67.380  0.00  0.00    +0.015 A 
BRANCH  11  18
ATOM     17  C   UNL     1      -6.792  19.351  65.769  0.00  0.00    +0.112 C 
ATOM     18  N   UNL     1      -6.274  18.145  66.389  0.00  0.00    -0.304 N 
ATOM     19  C   UNL     1      -5.006  17.583  65.934  0.00  0.00    +0.112 C 
ENDBRANCH  11  18
ENDBRANCH   1  14
BRANCH   1  20
ATOM     20  C   UNL     1      -9.999  12.792  66.949  0.00  0.00    +0.000 A 
ATOM     21  C   UNL     1     -10.952  12.791  65.938  0.00  0.00    +0.001 A 
ATOM     22  C   UNL     1     -10.979  11.706  65.070  0.00  0.00    +0.015 A 
ATOM     23  C   UNL     1      -9.941  10.784  65.128  0.00  0.00    +0.048 A 
ATOM     24  C   UNL     1      -9.351  10.619  66.372  0.00  0.00    +0.015 A 
ATOM     25  C   UNL     1      -9.619  11.530  67.386  0.00  0.00    +0.001 A 
BRANCH  23  26
ATOM     26  N   UNL     1      -9.530  10.044  63.976  0.00  0.00    -0.304 N 
ATOM     27  C   UNL     1      -9.384  10.759  62.710  0.00  0.00    +0.112 C 
ATOM     28  C   UNL     1      -8.568   8.971  64.210  0.00  0.00    +0.112 C 
ENDBRANCH  23  26
ENDBRANCH   1  20
TORSDOF 4
ENDMDL
MODEL 8
REMARK VINA RESULT:      -6.1      4.744      8.506
REMARK  Name = 
REMARK  4 active torsions:
REMARK  status: ('A' for Active; 'I' for Inactive)
REMARK    1  A    between atoms: N_2  and  C_4
REMARK    2  A    between atoms: C_7  and  C_8
REMARK    3  A    between atoms: C_8  and  C_9
REMARK    4  A    between atoms: C_12  and  N_13
REMARK                            x       y       z     vdW  Elec       q    Type
REMARK                         _______ _______ _______ _____ _____    ______ ____
ROOT
ATOM      1  C   UNL     1     -11.227  10.486  70.093  0.00  0.00    +0.000 C 
ATOM      2  C   UNL     1     -10.746  10.325  68.880  0.00  0.00    +0.000 C 
ATOM      3  C   UNL     1     -10.842  11.390  67.873  0.00  0.00    +0.006 C 
ATOM      4  C   UNL     1     -10.729  11.136  66.575  0.00  0.00    +0.069 C 
ATOM      5  C   UNL     1     -10.068   9.909  66.149  0.00  0.00    +0.222 C 
ATOM      6  N   UNL     1      -9.237   9.900  65.148  0.00  0.00    -0.177 N 
ATOM      7  C   UNL     1      -7.851  10.209  65.493  0.00  0.00    +0.403 C 
ATOM      8  C   UNL     1      -9.686  10.057  63.775  0.00  0.00    +0.403 C 
ATOM      9  C   UNL     1     -10.154   8.779  67.073  0.00  0.00    +0.069 C 
ATOM     10  C   UNL     1     -10.391   9.002  68.347  0.00  0.00    +0.006 C 
ENDROOT
BRANCH   1  14
ATOM     11  C   UNL     1     -10.757   6.813  71.949  0.00  0.00    +0.048 A 
ATOM     12  C   UNL     1     -12.048   7.229  71.655  0.00  0.00    +0.015 A 
ATOM     13  C   UNL     1     -12.302   8.462  71.067  0.00  0.00    +0.001 A 
ATOM     14  C   UNL     1     -11.210   9.310  70.973  0.00  0.00    +0.000 A 
ATOM     15  C   UNL     1     -10.038   9.054  71.648  0.00  0.00    +0.001 A 
ATOM     16  C   UNL     1      -9.813   7.807  72.175  0.00  0.00    +0.015 A 
BRANCH  11  18
ATOM     17  C   UNL     1     -10.298   5.914  74.194  0.00  0.00    +0.112 C 
ATOM     18  N   UNL     1     -10.655   5.671  72.808  0.00  0.00    -0.304 N 
ATOM     19  C   UNL     1     -10.236   4.433  72.158  0.00  0.00    +0.112 C 
ENDBRANCH  11  18
ENDBRANCH   1  14
BRANCH   1  20
ATOM     20  C   UNL     1     -11.997  11.646  70.486  0.00  0.00    +0.000 A 
ATOM     21  C   UNL     1     -12.947  11.525  71.493  0.00  0.00    +0.001 A 
ATOM     22  C   UNL     1     -13.473  12.692  72.035  0.00  0.00    +0.015 A 
ATOM     23  C   UNL     1     -12.888  13.905  71.691  0.00  0.00    +0.048 A 
ATOM     24  C   UNL     1     -12.320  13.963  70.429  0.00  0.00    +0.015 A 
ATOM     25  C   UNL     1     -12.121  12.791  69.709  0.00  0.00    +0.001 A 
BRANCH  23  26
ATOM     26  N   UNL     1     -12.899  15.021  72.585  0.00  0.00    -0.304 N 
ATOM     27  C   UNL     1     -14.101  15.850  72.643  0.00  0.00    +0.112 C 
ATOM     28  C   UNL     1     -12.196  14.838  73.852  0.00  0.00    +0.112 C 
ENDBRANCH  23  26
ENDBRANCH   1  20
TORSDOF 4
ENDMDL
MODEL 9
REMARK VINA RESULT:      -6.1      2.331      7.524
REMARK  Name = 
REMARK  4 active torsions:
REMARK  status: ('A' for Active; 'I' for Inactive)
REMARK    1  A    between atoms: N_2  and  C_4
REMARK    2  A    between atoms: C_7  and  C_8
REMARK    3  A    between atoms: C_8  and  C_9
REMARK    4  A    between atoms: C_12  and  N_13
REMARK                            x       y       z     vdW  Elec       q    Type
REMARK                         _______ _______ _______ _____ _____    ______ ____
ROOT
ATOM      1  C   UNL     1     -10.094  13.617  67.847  0.00  0.00    +0.000 C 
ATOM      2  C   UNL     1      -8.904  14.138  68.048  0.00  0.00    +0.000 C 
ATOM      3  C   UNL     1      -7.742  13.713  67.256  0.00  0.00    +0.006 C 
ATOM      4  C   UNL     1      -6.499  13.917  67.676  0.00  0.00    +0.069 C 
ATOM      5  C   UNL     1      -6.250  14.945  68.679  0.00  0.00    +0.222 C 
ATOM      6  N   UNL     1      -5.229  15.745  68.591  0.00  0.00    -0.177 N 
ATOM      7  C   UNL     1      -5.457  16.953  67.799  0.00  0.00    +0.403 C 
ATOM      8  C   UNL     1      -3.870  15.286  68.821  0.00  0.00    +0.403 C 
ATOM      9  C   UNL     1      -7.350  15.219  69.604  0.00  0.00    +0.069 C 
ATOM     10  C   UNL     1      -8.580  14.908  69.256  0.00  0.00    +0.006 C 
ENDROOT
BRANCH   1  14
ATOM     11  C   UNL     1     -12.453  15.042  70.940  0.00  0.00    +0.048 A 
ATOM     12  C   UNL     1     -12.400  13.668  70.745  0.00  0.00    +0.015 A 
ATOM     13  C   UNL     1     -11.665  13.104  69.711  0.00  0.00    +0.001 A 
ATOM     14  C   UNL     1     -11.153  14.004  68.788  0.00  0.00    +0.000 A 
ATOM     15  C   UNL     1     -11.567  15.316  68.755  0.00  0.00    +0.001 A 
ATOM     16  C   UNL     1     -12.254  15.842  69.821  0.00  0.00    +0.015 A 
BRANCH  11  18
ATOM     17  C   UNL     1     -13.051  15.827  73.195  0.00  0.00    +0.112 C 
ATOM     18  N   UNL     1     -13.466  15.501  71.843  0.00  0.00    -0.304 N 
ATOM     19  C   UNL     1     -14.805  14.972  71.603  0.00  0.00    +0.112 C 
ENDBRANCH  11  18
ENDBRANCH   1  14
BRANCH   1  20
ATOM     20  C   UNL     1     -10.326  12.508  66.947  0.00  0.00    +0.000 A 
ATOM     21  C   UNL     1     -11.082  12.708  65.798  0.00  0.00    +0.001 A 
ATOM     22  C   UNL     1     -11.062  11.715  64.825  0.00  0.00    +0.015 A 
ATOM     23  C   UNL     1     -10.146  10.679  64.954  0.00  0.00    +0.048 A 
ATOM     24  C   UNL     1      -9.804  10.335  66.252  0.00  0.00    +0.015 A 
ATOM     25  C   UNL     1     -10.155  11.175  67.301  0.00  0.00    +0.001 A 
BRANCH  23  26
ATOM     26  N   UNL     1      -9.614  10.003  63.812  0.00  0.00    -0.304 N 
ATOM     27  C   UNL     1      -9.376  10.778  62.597  0.00  0.00    +0.112 C 
ATOM     28  C   UNL     1      -8.647   8.943  64.084  0.00  0.00    +0.112 C 
ENDBRANCH  23  26
ENDBRANCH   1  20
TORSDOF 4
ENDMDL
