MODEL 1
REMARK VINA RESULT:      -6.7      0.000      0.000
REMARK  Name = 
REMARK  6 active torsions:
REMARK  status: ('A' for Active; 'I' for Inactive)
REMARK    1  A    between atoms: N_4  and  C_5
REMARK    2  A    between atoms: C_6  and  C_7
REMARK    3  A    between atoms: C_7  and  C_9
REMARK    4  A    between atoms: C_9  and  C_11
REMARK    5  A    between atoms: C_14  and  C_15
REMARK    6  A    between atoms: C_19  and  N_20
REMARK                            x       y       z     vdW  Elec       q    Type
REMARK                         _______ _______ _______ _____ _____    ______ ____
ROOT
ATOM      1  C   UNL     1     -11.760  13.472  68.782  0.00  0.00    +0.182 C 
ATOM      2  C   UNL     1     -10.180  13.243  68.122  0.00  0.00    +0.230 C 
ATOM      3  C   UNL     1      -9.813  14.819  67.967  0.00  0.00    +0.062 C 
ATOM      4  C   UNL     1     -10.786  15.635  67.677  0.00  0.00    +0.217 C 
ATOM      5  O   UNL     1     -11.635  15.776  68.784  0.00  0.00    -0.468 OA
ATOM      6  C   UNL     1     -11.307  14.727  69.860  0.00  0.00    +0.222 C 
ENDROOT
BRANCH   1   9
ATOM      7  C   UNL     1     -11.434  10.127  70.495  0.00  0.00    +0.096 C 
ATOM      8  C   UNL     1     -12.013  11.091  69.768  0.00  0.00    +0.242 C 
ATOM      9  N   UNL     1     -11.644  12.399  69.903  0.00  0.00    -0.199 NA
ATOM     10  O   UNL     1     -12.371  10.675  68.660  0.00  0.00    -0.273 OA
ENDBRANCH   1   9
BRANCH   2  11
ATOM     11  N   UNL     1     -10.748  13.181  66.637  0.00  0.00    -0.083 NA
ATOM     12  C   UNL     1     -10.489  11.993  65.934  0.00  0.00    +0.535 C 
ATOM     13  N   UNL     1     -11.228  11.761  64.726  0.00  0.00    +0.135 NA
ATOM     14  N   UNL     1      -9.218  11.726  65.856  0.00  0.00    +0.135 NA
ENDBRANCH   2  11
BRANCH   4  15
ATOM     15  C   UNL     1     -10.370  16.959  67.160  0.00  0.00    +0.421 C 
ATOM     16  O   UNL     1     -10.848  18.092  67.824  0.00  0.00    -0.237 OA
ATOM     17  O   UNL     1     -10.076  17.107  65.936  0.00  0.00    -0.237 OA
ENDBRANCH   4  15
BRANCH   6  18
ATOM     18  C   UNL     1     -12.895  14.642  70.540  0.00  0.00    +0.226 C 
ATOM     19  O   UNL     1     -13.184  16.125  70.534  0.00  0.00    -0.216 OA
BRANCH  18  20
ATOM     20  C   UNL     1     -12.296  14.784  72.174  0.00  0.00    +0.219 C 
ATOM     21  O   UNL     1     -12.922  13.454  72.591  0.00  0.00    -0.217 OA
BRANCH  20  22
ATOM     22  C   UNL     1     -13.652  15.620  72.660  0.00  0.00    +0.218 C 
ATOM     23  O   UNL     1     -13.261  16.239  73.843  0.00  0.00    -0.217 OA
ENDBRANCH  20  22
ENDBRANCH  18  20
ENDBRANCH   6  18
TORSDOF 6
ENDMDL
MODEL 2
REMARK VINA RESULT:      -6.6      2.828      5.023
REMARK  Name = 
REMARK  6 active torsions:
REMARK  status: ('A' for Active; 'I' for Inactive)
REMARK    1  A    between atoms: N_4  and  C_5
REMARK    2  A    between atoms: C_6  and  C_7
REMARK    3  A    between atoms: C_7  and  C_9
REMARK    4  A    between atoms: C_9  and  C_11
REMARK    5  A    between atoms: C_14  and  C_15
REMARK    6  A    between atoms: C_19  and  N_20
REMARK                            x       y       z     vdW  Elec       q    Type
REMARK                         _______ _______ _______ _____ _____    ______ ____
ROOT
ATOM      1  C   UNL     1     -10.346  13.962  67.618  0.00  0.00    +0.182 C 
ATOM      2  C   UNL     1     -11.193  15.075  66.603  0.00  0.00    +0.230 C 
ATOM      3  C   UNL     1     -11.484  14.033  65.389  0.00  0.00    +0.062 C 
ATOM      4  C   UNL     1     -10.584  13.123  65.151  0.00  0.00    +0.217 C 
ATOM      5  O   UNL     1     -10.582  12.172  66.181  0.00  0.00    -0.468 OA
ATOM      6  C   UNL     1     -11.430  12.656  67.370  0.00  0.00    +0.222 C 
ENDROOT
BRANCH   1   9
ATOM      7  C   UNL     1     -11.397  15.971  70.632  0.00  0.00    +0.096 C 
ATOM      8  C   UNL     1     -10.572  15.282  69.834  0.00  0.00    +0.242 C 
ATOM      9  N   UNL     1     -11.050  14.360  68.947  0.00  0.00    -0.199 NA
ATOM     10  O   UNL     1      -9.566  15.939  69.541  0.00  0.00    -0.273 OA
ENDBRANCH   1   9
BRANCH   2  11
ATOM     11  N   UNL     1      -9.842  15.566  65.919  0.00  0.00    -0.083 NA
ATOM     12  C   UNL     1      -9.523  16.921  66.104  0.00  0.00    +0.535 C 
ATOM     13  N   UNL     1      -8.189  17.340  65.781  0.00  0.00    +0.135 NA
ATOM     14  N   UNL     1     -10.462  17.717  65.683  0.00  0.00    +0.135 NA
ENDBRANCH   2  11
BRANCH   4  15
ATOM     15  C   UNL     1     -10.681  12.466  63.827  0.00  0.00    +0.421 C 
ATOM     16  O   UNL     1     -11.953  12.328  63.265  0.00  0.00    -0.237 OA
ATOM     17  O   UNL     1      -9.812  11.617  63.466  0.00  0.00    -0.237 OA
ENDBRANCH   4  15
BRANCH   6  18
ATOM     18  C   UNL     1     -10.571  11.783  68.591  0.00  0.00    +0.226 C 
ATOM     19  O   UNL     1     -10.287  10.544  67.774  0.00  0.00    -0.216 OA
BRANCH  18  20
ATOM     20  C   UNL     1     -12.024  11.029  69.197  0.00  0.00    +0.219 C 
ATOM     21  O   UNL     1     -12.159  12.046  70.329  0.00  0.00    -0.217 OA
BRANCH  20  22
ATOM     22  C   UNL     1     -11.151   9.999  70.172  0.00  0.00    +0.218 C 
ATOM     23  O   UNL     1     -11.866   9.979  71.367  0.00  0.00    -0.217 OA
ENDBRANCH  20  22
ENDBRANCH  18  20
ENDBRANCH   6  18
TORSDOF 6
ENDMDL
MODEL 3
REMARK VINA RESULT:      -6.6      1.922      5.178
REMARK  Name = 
REMARK  6 active torsions:
REMARK  status: ('A' for Active; 'I' for Inactive)
REMARK    1  A    between atoms: N_4  and  C_5
REMARK    2  A    between atoms: C_6  and  C_7
REMARK    3  A    between atoms: C_7  and  C_9
REMARK    4  A    between atoms: C_9  and  C_11
REMARK    5  A    between atoms: C_14  and  C_15
REMARK    6  A    between atoms: C_19  and  N_20
REMARK                            x       y       z     vdW  Elec       q    Type
REMARK                         _______ _______ _______ _____ _____    ______ ____
ROOT
ATOM      1  C   UNL     1     -10.553  14.746  68.212  0.00  0.00    +0.182 C 
ATOM      2  C   UNL     1     -12.000  13.828  68.436  0.00  0.00    +0.230 C 
ATOM      3  C   UNL     1     -12.589  14.707  69.670  0.00  0.00    +0.062 C 
ATOM      4  C   UNL     1     -11.730  15.227  70.499  0.00  0.00    +0.217 C 
ATOM      5  O   UNL     1     -11.035  16.272  69.874  0.00  0.00    -0.468 OA
ATOM      6  C   UNL     1     -11.308  16.279  68.361  0.00  0.00    +0.222 C 
ENDROOT
BRANCH   1   9
ATOM      7  C   UNL     1     -10.465  13.681  64.595  0.00  0.00    +0.096 C 
ATOM      8  C   UNL     1      -9.986  13.937  65.819  0.00  0.00    +0.242 C 
ATOM      9  N   UNL     1     -10.619  14.808  66.659  0.00  0.00    -0.199 NA
ATOM     10  O   UNL     1      -9.397  12.959  66.293  0.00  0.00    -0.273 OA
ENDBRANCH   1   9
BRANCH   2  11
ATOM     11  N   UNL     1     -11.274  12.825  69.437  0.00  0.00    -0.083 NA
ATOM     12  C   UNL     1     -11.175  11.494  69.000  0.00  0.00    +0.535 C 
ATOM     13  N   UNL     1     -10.275  10.628  69.707  0.00  0.00    +0.135 NA
ATOM     14  N   UNL     1     -12.334  10.970  68.726  0.00  0.00    +0.135 NA
ENDBRANCH   2  11
BRANCH   4  15
ATOM     15  C   UNL     1     -12.290  15.668  71.798  0.00  0.00    +0.421 C 
ATOM     16  O   UNL     1     -11.632  15.255  72.960  0.00  0.00    -0.237 OA
ATOM     17  O   UNL     1     -13.526  15.921  71.912  0.00  0.00    -0.237 OA
ENDBRANCH   4  15
BRANCH   6  18
ATOM     18  C   UNL     1      -9.808  17.003  67.895  0.00  0.00    +0.226 C 
ATOM     19  O   UNL     1      -9.644  17.894  69.104  0.00  0.00    -0.216 OA
BRANCH  18  20
ATOM     20  C   UNL     1     -10.600  18.313  67.058  0.00  0.00    +0.219 C 
ATOM     21  O   UNL     1     -10.330  17.692  65.689  0.00  0.00    -0.217 OA
BRANCH  20  22
ATOM     22  C   UNL     1      -9.189  19.194  66.981  0.00  0.00    +0.218 C 
ATOM     23  O   UNL     1      -9.606  20.514  67.128  0.00  0.00    -0.217 OA
ENDBRANCH  20  22
ENDBRANCH  18  20
ENDBRANCH   6  18
TORSDOF 6
ENDMDL
MODEL 4
REMARK VINA RESULT:      -6.5      4.176      5.890
REMARK  Name = 
REMARK  6 active torsions:
REMARK  status: ('A' for Active; 'I' for Inactive)
REMARK    1  A    between atoms: N_4  and  C_5
REMARK    2  A    between atoms: C_6  and  C_7
REMARK    3  A    between atoms: C_7  and  C_9
REMARK    4  A    between atoms: C_9  and  C_11
REMARK    5  A    between atoms: C_14  and  C_15
REMARK    6  A    between atoms: C_19  and  N_20
REMARK                            x       y       z     vdW  Elec       q    Type
REMARK                         _______ _______ _______ _____ _____    ______ ____
ROOT
ATOM      1  C   UNL     1      -8.717  15.881  66.674  0.00  0.00    +0.182 C 
ATOM      2  C   UNL     1      -8.461  16.671  68.189  0.00  0.00    +0.230 C 
ATOM      3  C   UNL     1      -9.501  17.895  67.937  0.00  0.00    +0.062 C 
ATOM      4  C   UNL     1      -9.627  18.334  66.717  0.00  0.00    +0.217 C 
ATOM      5  O   UNL     1     -10.303  17.385  65.937  0.00  0.00    -0.468 OA
ATOM      6  C   UNL     1     -10.424  16.048  66.688  0.00  0.00    +0.222 C 
ENDROOT
BRANCH   1   9
ATOM      7  C   UNL     1      -7.744  12.641  68.343  0.00  0.00    +0.096 C 
ATOM      8  C   UNL     1      -7.736  13.599  67.408  0.00  0.00    +0.242 C 
ATOM      9  N   UNL     1      -8.804  14.434  67.239  0.00  0.00    -0.199 NA
ATOM     10  O   UNL     1      -6.595  14.029  67.205  0.00  0.00    -0.273 OA
ENDBRANCH   1   9
BRANCH   2  11
ATOM     11  N   UNL     1      -7.248  17.520  67.604  0.00  0.00    -0.083 NA
ATOM     12  C   UNL     1      -6.061  17.480  68.352  0.00  0.00    +0.535 C 
ATOM     13  N   UNL     1      -4.864  17.965  67.726  0.00  0.00    +0.135 NA
ATOM     14  N   UNL     1      -6.231  17.875  69.581  0.00  0.00    +0.135 NA
ENDBRANCH   2  11
BRANCH   4  15
ATOM     15  C   UNL     1     -10.253  19.670  66.585  0.00  0.00    +0.421 C 
ATOM     16  O   UNL     1     -10.867  19.978  65.367  0.00  0.00    -0.237 OA
ATOM     17  O   UNL     1      -9.825  20.650  67.263  0.00  0.00    -0.237 OA
ENDBRANCH   4  15
BRANCH   6  18
ATOM     18  C   UNL     1     -10.480  15.040  65.284  0.00  0.00    +0.226 C 
ATOM     19  O   UNL     1     -11.147  16.035  64.362  0.00  0.00    -0.216 OA
BRANCH  18  20
ATOM     20  C   UNL     1     -12.050  14.400  65.700  0.00  0.00    +0.219 C 
ATOM     21  O   UNL     1     -11.448  13.319  66.595  0.00  0.00    -0.217 OA
BRANCH  20  22
ATOM     22  C   UNL     1     -12.044  13.375  64.387  0.00  0.00    +0.218 C 
ATOM     23  O   UNL     1     -13.114  12.517  64.624  0.00  0.00    -0.217 OA
ENDBRANCH  20  22
ENDBRANCH  18  20
ENDBRANCH   6  18
TORSDOF 6
ENDMDL
MODEL 5
REMARK VINA RESULT:      -6.5      2.468      5.109
REMARK  Name = 
REMARK  6 active torsions:
REMARK  status: ('A' for Active; 'I' for Inactive)
REMARK    1  A    between atoms: N_4  and  C_5
REMARK    2  A    between atoms: C_6  and  C_7
REMARK    3  A    between atoms: C_7  and  C_9
REMARK    4  A    between atoms: C_9  and  C_11
REMARK    5  A    between atoms: C_14  and  C_15
REMARK    6  A    between atoms: C_19  and  N_20
REMARK                            x       y       z     vdW  Elec       q    Type
REMARK                         _______ _______ _______ _____ _____    ______ ____
ROOT
ATOM      1  C   UNL     1     -10.987  12.390  66.398  0.00  0.00    +0.182 C 
ATOM      2  C   UNL     1     -10.111  13.869  66.221  0.00  0.00    +0.230 C 
ATOM      3  C   UNL     1     -10.411  14.442  67.712  0.00  0.00    +0.062 C 
ATOM      4  C   UNL     1     -11.563  14.151  68.245  0.00  0.00    +0.217 C 
ATOM      5  O   UNL     1     -11.603  12.791  68.585  0.00  0.00    -0.468 OA
ATOM      6  C   UNL     1     -10.406  12.042  67.974  0.00  0.00    +0.222 C 
ENDROOT
BRANCH   1   9
ATOM      7  C   UNL     1      -8.984  10.547  63.786  0.00  0.00    +0.096 C 
ATOM      8  C   UNL     1     -10.053  10.858  64.530  0.00  0.00    +0.242 C 
ATOM      9  N   UNL     1      -9.917  11.468  65.745  0.00  0.00    -0.199 NA
ATOM     10  O   UNL     1     -11.037  11.119  63.830  0.00  0.00    -0.273 OA
ENDBRANCH   1   9
BRANCH   2  11
ATOM     11  N   UNL     1     -11.383  14.617  65.627  0.00  0.00    -0.083 NA
ATOM     12  C   UNL     1     -11.113  15.628  64.690  0.00  0.00    +0.535 C 
ATOM     13  N   UNL     1     -12.211  16.117  63.905  0.00  0.00    +0.135 NA
ATOM     14  N   UNL     1     -10.329  16.551  65.164  0.00  0.00    +0.135 NA
ENDBRANCH   2  11
BRANCH   4  15
ATOM     15  C   UNL     1     -11.960  14.994  69.397  0.00  0.00    +0.421 C 
ATOM     16  O   UNL     1     -12.777  14.414  70.372  0.00  0.00    -0.237 OA
ATOM     17  O   UNL     1     -12.035  16.253  69.276  0.00  0.00    -0.237 OA
ENDBRANCH   4  15
BRANCH   6  18
ATOM     18  C   UNL     1     -11.179  10.500  67.859  0.00  0.00    +0.226 C 
ATOM     19  O   UNL     1     -12.233  10.736  68.916  0.00  0.00    -0.216 OA
BRANCH  18  20
ATOM     20  C   UNL     1     -10.144   9.794  69.074  0.00  0.00    +0.219 C 
ATOM     21  O   UNL     1      -8.987   9.629  68.090  0.00  0.00    -0.217 OA
BRANCH  20  22
ATOM     22  C   UNL     1     -10.700   8.260  68.740  0.00  0.00    +0.218 C 
ATOM     23  O   UNL     1     -10.945   7.709  69.995  0.00  0.00    -0.217 OA
ENDBRANCH  20  22
ENDBRANCH  18  20
ENDBRANCH   6  18
TORSDOF 6
ENDMDL
MODEL 6
REMARK VINA RESULT:      -6.5      4.932      7.370
REMARK  Name = 
REMARK  6 active torsions:
REMARK  status: ('A' for Active; 'I' for Inactive)
REMARK    1  A    between atoms: N_4  and  C_5
REMARK    2  A    between atoms: C_6  and  C_7
REMARK    3  A    between atoms: C_7  and  C_9
REMARK    4  A    between atoms: C_9  and  C_11
REMARK    5  A    between atoms: C_14  and  C_15
REMARK    6  A    between atoms: C_19  and  N_20
REMARK                            x       y       z     vdW  Elec       q    Type
REMARK                         _______ _______ _______ _____ _____    ______ ____
ROOT
ATOM      1  C   UNL     1      -8.752  17.319  67.262  0.00  0.00    +0.182 C 
ATOM      2  C   UNL     1      -7.198  18.000  66.937  0.00  0.00    +0.230 C 
ATOM      3  C   UNL     1      -6.374  16.599  66.952  0.00  0.00    +0.062 C 
ATOM      4  C   UNL     1      -6.783  15.671  67.769  0.00  0.00    +0.217 C 
ATOM      5  O   UNL     1      -7.999  15.139  67.317  0.00  0.00    -0.468 OA
ATOM      6  C   UNL     1      -8.581  15.998  66.181  0.00  0.00    +0.222 C 
ENDROOT
BRANCH   1   9
ATOM      7  C   UNL     1     -10.778  20.083  65.687  0.00  0.00    +0.096 C 
ATOM      8  C   UNL     1     -10.521  19.048  66.496  0.00  0.00    +0.242 C 
ATOM      9  N   UNL     1      -9.536  18.148  66.204  0.00  0.00    -0.199 NA
ATOM     10  O   UNL     1     -10.759  19.322  67.678  0.00  0.00    -0.273 OA
ENDBRANCH   1   9
BRANCH   2  11
ATOM     11  N   UNL     1      -6.916  18.235  68.486  0.00  0.00    -0.083 NA
ATOM     12  C   UNL     1      -6.363  19.482  68.822  0.00  0.00    +0.535 C 
ATOM     13  N   UNL     1      -6.375  19.863  70.206  0.00  0.00    +0.135 NA
ATOM     14  N   UNL     1      -5.243  19.716  68.202  0.00  0.00    +0.135 NA
ENDBRANCH   2  11
BRANCH   4  15
ATOM     15  C   UNL     1      -5.806  14.593  68.046  0.00  0.00    +0.421 C 
ATOM     16  O   UNL     1      -5.878  13.438  67.263  0.00  0.00    -0.237 OA
ATOM     17  O   UNL     1      -5.311  14.458  69.205  0.00  0.00    -0.237 OA
ENDBRANCH   4  15
BRANCH   6  18
ATOM     18  C   UNL     1     -10.241  15.612  66.476  0.00  0.00    +0.226 C 
ATOM     19  O   UNL     1     -10.026  14.195  66.951  0.00  0.00    -0.216 OA
BRANCH  18  20
ATOM     20  C   UNL     1     -10.480  15.014  64.853  0.00  0.00    +0.219 C 
ATOM     21  O   UNL     1     -11.022  16.356  64.365  0.00  0.00    -0.217 OA
BRANCH  20  22
ATOM     22  C   UNL     1     -12.015  14.479  65.215  0.00  0.00    +0.218 C 
ATOM     23  O   UNL     1     -12.671  14.483  63.987  0.00  0.00    -0.217 OA
ENDBRANCH  20  22
ENDBRANCH  18  20
ENDBRANCH   6  18
TORSDOF 6
ENDMDL
MODEL 7
REMARK VINA RESULT:      -6.4      2.561      5.664
REMARK  Name = 
REMARK  6 active torsions:
REMARK  status: ('A' for Active; 'I' for Inactive)
REMARK    1  A    between atoms: N_4  and  C_5
REMARK    2  A    between atoms: C_6  and  C_7
REMARK    3  A    between atoms: C_7  and  C_9
REMARK    4  A    between atoms: C_9  and  C_11
REMARK    5  A    between atoms: C_14  and  C_15
REMARK    6  A    between atoms: C_19  and  N_20
REMARK                            x       y       z     vdW  Elec       q    Type
REMARK                         _______ _______ _______ _____ _____    ______ ____
ROOT
ATOM      1  C   UNL     1     -10.335  11.911  67.618  0.00  0.00    +0.182 C 
ATOM      2  C   UNL     1     -11.262  10.609  68.276  0.00  0.00    +0.230 C 
ATOM      3  C   UNL     1     -12.235  11.524  69.202  0.00  0.00    +0.062 C 
ATOM      4  C   UNL     1     -11.725  12.603  69.724  0.00  0.00    +0.217 C 
ATOM      5  O   UNL     1     -11.509  13.561  68.723  0.00  0.00    -0.468 OA
ATOM      6  C   UNL     1     -11.677  12.938  67.327  0.00  0.00    +0.222 C 
ENDROOT
BRANCH   1   9
ATOM      7  C   UNL     1      -9.407   9.992  64.506  0.00  0.00    +0.096 C 
ATOM      8  C   UNL     1      -9.257  10.868  65.507  0.00  0.00    +0.242 C 
ATOM      9  N   UNL     1     -10.337  11.407  66.146  0.00  0.00    -0.199 NA
ATOM     10  O   UNL     1      -8.220  10.656  66.146  0.00  0.00    -0.273 OA
ENDBRANCH   1   9
BRANCH   2  11
ATOM     11  N   UNL     1     -10.233  10.408  69.473  0.00  0.00    -0.083 NA
ATOM     12  C   UNL     1      -9.858   9.081  69.737  0.00  0.00    +0.535 C 
ATOM     13  N   UNL     1      -8.719   8.868  70.585  0.00  0.00    +0.135 NA
ATOM     14  N   UNL     1     -10.878   8.314  69.992  0.00  0.00    +0.135 NA
ENDBRANCH   2  11
BRANCH   4  15
ATOM     15  C   UNL     1     -12.488  13.183  70.853  0.00  0.00    +0.421 C 
ATOM     16  O   UNL     1     -13.140  12.298  71.716  0.00  0.00    -0.237 OA
ATOM     17  O   UNL     1     -12.980  14.347  70.765  0.00  0.00    -0.237 OA
ENDBRANCH   4  15
BRANCH   6  18
ATOM     18  C   UNL     1     -10.605  14.015  66.502  0.00  0.00    +0.226 C 
ATOM     19  O   UNL     1     -10.852  15.229  67.366  0.00  0.00    -0.216 OA
BRANCH  18  20
ATOM     20  C   UNL     1     -11.854  14.560  65.410  0.00  0.00    +0.219 C 
ATOM     21  O   UNL     1     -11.372  13.637  64.291  0.00  0.00    -0.217 OA
BRANCH  20  22
ATOM     22  C   UNL     1     -10.900  15.805  64.849  0.00  0.00    +0.218 C 
ATOM     23  O   UNL     1     -11.712  16.463  63.930  0.00  0.00    -0.217 OA
ENDBRANCH  20  22
ENDBRANCH  18  20
ENDBRANCH   6  18
TORSDOF 6
ENDMDL
MODEL 8
REMARK VINA RESULT:      -6.4      2.576      6.013
REMARK  Name = 
REMARK  6 active torsions:
REMARK  status: ('A' for Active; 'I' for Inactive)
REMARK    1  A    between atoms: N_4  and  C_5
REMARK    2  A    between atoms: C_6  and  C_7
REMARK    3  A    between atoms: C_7  and  C_9
REMARK    4  A    between atoms: C_9  and  C_11
REMARK    5  A    between atoms: C_14  and  C_15
REMARK    6  A    between atoms: C_19  and  N_20
REMARK                            x       y       z     vdW  Elec       q    Type
REMARK                         _______ _______ _______ _____ _____    ______ ____
ROOT
ATOM      1  C   UNL     1     -11.699  12.552  68.224  0.00  0.00    +0.182 C 
ATOM      2  C   UNL     1     -10.568  11.650  69.170  0.00  0.00    +0.230 C 
ATOM      3  C   UNL     1     -10.025  10.709  67.961  0.00  0.00    +0.062 C 
ATOM      4  C   UNL     1     -10.877  10.371  67.035  0.00  0.00    +0.217 C 
ATOM      5  O   UNL     1     -11.187  11.486  66.244  0.00  0.00    -0.468 OA
ATOM      6  C   UNL     1     -10.650  12.777  66.886  0.00  0.00    +0.222 C 
ENDROOT
BRANCH   1   9
ATOM      7  C   UNL     1     -11.345  15.425  70.643  0.00  0.00    +0.096 C 
ATOM      8  C   UNL     1     -11.975  14.541  69.860  0.00  0.00    +0.242 C 
ATOM      9  N   UNL     1     -11.341  13.951  68.804  0.00  0.00    -0.199 NA
ATOM     10  O   UNL     1     -12.828  13.902  70.486  0.00  0.00    -0.273 OA
ENDBRANCH   1   9
BRANCH   2  11
ATOM     11  N   UNL     1     -11.675  10.578  69.570  0.00  0.00    -0.083 NA
ATOM     12  C   UNL     1     -11.576  10.057  70.871  0.00  0.00    +0.535 C 
ATOM     13  N   UNL     1     -12.704   9.333  71.384  0.00  0.00    +0.135 NA
ATOM     14  N   UNL     1     -10.421   9.502  71.100  0.00  0.00    +0.135 NA
ENDBRANCH   2  11
BRANCH   4  15
ATOM     15  C   UNL     1     -10.475   9.221  66.192  0.00  0.00    +0.421 C 
ATOM     16  O   UNL     1     -10.543   7.947  66.761  0.00  0.00    -0.237 OA
ATOM     17  O   UNL     1      -9.636   9.375  65.255  0.00  0.00    -0.237 OA
ENDBRANCH   4  15
BRANCH   6  18
ATOM     18  C   UNL     1     -11.833  13.839  66.206  0.00  0.00    +0.226 C 
ATOM     19  O   UNL     1     -12.101  13.047  64.948  0.00  0.00    -0.216 OA
BRANCH  18  20
ATOM     20  C   UNL     1     -10.632  14.768  65.346  0.00  0.00    +0.219 C 
ATOM     21  O   UNL     1     -10.647  15.883  66.390  0.00  0.00    -0.217 OA
BRANCH  20  22
ATOM     22  C   UNL     1     -11.795  15.544  64.441  0.00  0.00    +0.218 C 
ATOM     23  O   UNL     1     -11.280  16.823  64.255  0.00  0.00    -0.217 OA
ENDBRANCH  20  22
ENDBRANCH  18  20
ENDBRANCH   6  18
TORSDOF 6
ENDMDL
MODEL 9
REMARK VINA RESULT:      -6.4      2.873      5.344
REMARK  Name = 
REMARK  6 active torsions:
REMARK  status: ('A' for Active; 'I' for Inactive)
REMARK    1  A    between atoms: N_4  and  C_5
REMARK    2  A    between atoms: C_6  and  C_7
REMARK    3  A    between atoms: C_7  and  C_9
REMARK    4  A    between atoms: C_9  and  C_11
REMARK    5  A    between atoms: C_14  and  C_15
REMARK    6  A    between atoms: C_19  and  N_20
REMARK                            x       y       z     vdW  Elec       q    Type
REMARK                         _______ _______ _______ _____ _____    ______ ____
ROOT
ATOM      1  C   UNL     1     -10.752  12.865  67.431  0.00  0.00    +0.182 C 
ATOM      2  C   UNL     1     -11.978  13.203  66.261  0.00  0.00    +0.230 C 
ATOM      3  C   UNL     1     -11.576  12.018  65.224  0.00  0.00    +0.062 C 
ATOM      4  C   UNL     1     -10.315  11.710  65.123  0.00  0.00    +0.217 C 
ATOM      5  O   UNL     1      -9.890  11.056  66.288  0.00  0.00    -0.468 OA
ATOM      6  C   UNL     1     -10.955  11.162  67.393  0.00  0.00    +0.222 C 
ENDROOT
BRANCH   1   9
ATOM      7  C   UNL     1     -12.581  14.371  70.366  0.00  0.00    +0.096 C 
ATOM      8  C   UNL     1     -11.530  13.962  69.643  0.00  0.00    +0.242 C 
ATOM      9  N   UNL     1     -11.661  12.997  68.687  0.00  0.00    -0.199 NA
ATOM     10  O   UNL     1     -10.709  14.872  69.476  0.00  0.00    -0.273 OA
ENDBRANCH   1   9
BRANCH   2  11
ATOM     11  N   UNL     1     -11.045  14.246  65.502  0.00  0.00    -0.083 NA
ATOM     12  C   UNL     1     -11.708  15.316  64.880  0.00  0.00    +0.535 C 
ATOM     13  N   UNL     1     -10.913  16.433  64.453  0.00  0.00    +0.135 NA
ATOM     14  N   UNL     1     -12.597  14.919  64.017  0.00  0.00    +0.135 NA
ENDBRANCH   2  11
BRANCH   4  15
ATOM     15  C   UNL     1      -9.945  10.934  63.917  0.00  0.00    +0.421 C 
ATOM     16  O   UNL     1      -9.256   9.733  64.107  0.00  0.00    -0.237 OA
ATOM     17  O   UNL     1      -9.761  11.519  62.809  0.00  0.00    -0.237 OA
ENDBRANCH   4  15
BRANCH   6  18
ATOM     18  C   UNL     1      -9.861  11.058  68.729  0.00  0.00    +0.226 C 
ATOM     19  O   UNL     1      -8.839  10.162  68.068  0.00  0.00    -0.216 OA
BRANCH  18  20
ATOM     20  C   UNL     1     -10.654   9.645  69.379  0.00  0.00    +0.219 C 
ATOM     21  O   UNL     1     -11.429  10.469  70.405  0.00  0.00    -0.217 OA
BRANCH  20  22
ATOM     22  C   UNL     1      -9.419   9.380  70.464  0.00  0.00    +0.218 C 
ATOM     23  O   UNL     1     -10.074   9.016  71.638  0.00  0.00    -0.217 OA
ENDBRANCH  20  22
ENDBRANCH  18  20
ENDBRANCH   6  18
TORSDOF 6
ENDMDL
