MODEL 1
REMARK VINA RESULT:      -9.3      0.000      0.000
REMARK  Name = 
REMARK  4 active torsions:
REMARK  status: ('A' for Active; 'I' for Inactive)
REMARK    1  A    between atoms: C_4  and  C_5
REMARK    2  A    between atoms: N_7  and  C_8
REMARK    3  A    between atoms: C_20  and  C_21
REMARK    4  A    between atoms: C_21  and  C_22
REMARK                            x       y       z     vdW  Elec       q    Type
REMARK                         _______ _______ _______ _____ _____    ______ ____
ROOT
ATOM      1  C   UNL     1      -9.712  17.976  67.295  0.00  0.00    +0.243 C 
ATOM      2  C   UNL     1     -10.115  16.848  66.434  0.00  0.00    +0.274 C 
ATOM      3  O   UNL     1     -10.457  16.958  65.228  0.00  0.00    -0.270 OA
ATOM      4  N   UNL     1      -9.918  15.662  67.226  0.00  0.00    -0.225 N 
ATOM      5  C   UNL     1      -9.847  16.123  68.551  0.00  0.00    +0.307 C 
ATOM      6  C   UNL     1     -11.450  16.199  68.946  0.00  0.00    +0.149 C 
ATOM      7  N   UNL     1     -11.504  14.658  69.308  0.00  0.00    -0.273 N 
ATOM      8  C   UNL     1     -10.860  13.794  68.363  0.00  0.00    +0.244 C 
ATOM      9  O   UNL     1     -11.468  12.675  68.344  0.00  0.00    -0.273 OA
ATOM     10  C   UNL     1     -12.551  14.624  70.279  0.00  0.00    +0.094 C 
ATOM     11  C   UNL     1     -12.384  15.896  71.060  0.00  0.00    +0.023 C 
ATOM     12  C   UNL     1     -11.126  16.573  70.527  0.00  0.00    +0.029 C 
ATOM     13  O   UNL     1      -9.227  15.409  69.500  0.00  0.00    -0.172 OA
ATOM     14  C   UNL     1     -10.962  14.502  66.890  0.00  0.00    +0.160 C 
ATOM     15  O   UNL     1      -9.385  17.387  68.495  0.00  0.00    -0.294 OA
ATOM     16  C   UNL     1     -10.888  18.891  67.622  0.00  0.00    +0.063 C 
ENDROOT
BRANCH   1  18
ATOM     17  C   UNL     1      -8.014  19.726  67.533  0.00  0.00    +0.249 C 
ATOM     18  N   UNL     1      -8.609  18.729  66.704  0.00  0.00    -0.173 NA
ATOM     19  O   UNL     1      -7.831  19.393  68.713  0.00  0.00    -0.273 OA
BRANCH  17  34
ATOM     20  C   UNL     1      -4.432  20.080  66.322  0.00  0.00    +0.090 C 
ATOM     21  N   UNL     1      -4.533  19.606  66.544  0.00  0.00    -0.268 NA
ATOM     22  C   UNL     1      -5.109  18.371  65.704  0.00  0.00    +0.084 C 
ATOM     23  C   UNL     1      -5.931  19.407  64.756  0.00  0.00    -0.011 C 
ATOM     24  C   UNL     1      -5.351  19.937  63.574  0.00  0.00    -0.002 A 
ATOM     25  C   UNL     1      -3.979  20.047  63.330  0.00  0.00    +0.015 A 
ATOM     26  C   UNL     1      -3.362  21.173  62.866  0.00  0.00    +0.081 A 
ATOM     27  N   UNL     1      -2.161  21.219  63.493  0.00  0.00    -0.244 NA
ATOM     28  C   UNL     1      -2.044  20.186  64.364  0.00  0.00    +0.095 A 
ATOM     29  C   UNL     1      -4.179  22.100  62.228  0.00  0.00    +0.019 A 
ATOM     30  C   UNL     1      -5.547  21.854  62.130  0.00  0.00    +0.002 A 
ATOM     31  C   UNL     1      -3.278  19.549  64.433  0.00  0.00    +0.000 A 
ATOM     32  C   UNL     1      -6.147  20.819  62.848  0.00  0.00    -0.000 A 
ATOM     33  C   UNL     1      -6.981  19.742  65.418  0.00  0.00    -0.019 C 
ATOM     34  C   UNL     1      -6.819  20.559  66.818  0.00  0.00    +0.116 C 
ATOM     35  C   UNL     1      -3.747  18.217  64.765  0.00  0.00    +0.048 C 
ATOM     36  C   UNL     1      -5.658  19.577  67.472  0.00  0.00    +0.086 C 
ENDBRANCH  17  34
ENDBRANCH   1  18
BRANCH  14  37
ATOM     37  C   UNL     1      -9.771  13.606  66.164  0.00  0.00    +0.056 C 
BRANCH  37  38
ATOM     38  C   UNL     1     -10.255  12.951  64.981  0.00  0.00    -0.020 A 
ATOM     39  C   UNL     1      -9.949  11.593  64.853  0.00  0.00    -0.004 A 
ATOM     40  C   UNL     1     -10.530  10.816  63.869  0.00  0.00    -0.000 A 
ATOM     41  C   UNL     1     -11.514  11.408  63.088  0.00  0.00    -0.000 A 
ATOM     42  C   UNL     1     -12.247  12.414  63.700  0.00  0.00    -0.000 A 
ATOM     43  C   UNL     1     -11.593  13.166  64.646  0.00  0.00    -0.004 A 
ENDBRANCH  37  38
ENDBRANCH  14  37
TORSDOF 4
ENDMDL
MODEL 2
REMARK VINA RESULT:      -9.1      6.053     12.286
REMARK  Name = 
REMARK  4 active torsions:
REMARK  status: ('A' for Active; 'I' for Inactive)
REMARK    1  A    between atoms: C_4  and  C_5
REMARK    2  A    between atoms: N_7  and  C_8
REMARK    3  A    between atoms: C_20  and  C_21
REMARK    4  A    between atoms: C_21  and  C_22
REMARK                            x       y       z     vdW  Elec       q    Type
REMARK                         _______ _______ _______ _____ _____    ______ ____
ROOT
ATOM      1  C   UNL     1     -10.690  11.268  68.828  0.00  0.00    +0.243 C 
ATOM      2  C   UNL     1     -11.384  12.403  69.466  0.00  0.00    +0.274 C 
ATOM      3  O   UNL     1     -12.348  12.291  70.266  0.00  0.00    -0.270 OA
ATOM      4  N   UNL     1     -10.657  13.580  69.067  0.00  0.00    -0.225 N 
ATOM      5  C   UNL     1      -9.909  13.178  67.948  0.00  0.00    +0.307 C 
ATOM      6  C   UNL     1     -11.019  13.373  66.739  0.00  0.00    +0.149 C 
ATOM      7  N   UNL     1     -10.701  14.919  66.604  0.00  0.00    -0.273 N 
ATOM      8  C   UNL     1     -10.607  15.625  67.848  0.00  0.00    +0.244 C 
ATOM      9  O   UNL     1     -11.001  16.823  67.675  0.00  0.00    -0.273 OA
ATOM     10  C   UNL     1     -11.021  15.163  65.234  0.00  0.00    +0.094 C 
ATOM     11  C   UNL     1     -10.581  13.919  64.515  0.00  0.00    +0.023 C 
ATOM     12  C   UNL     1      -9.911  13.029  65.556  0.00  0.00    +0.029 C 
ATOM     13  O   UNL     1      -8.796  13.829  67.588  0.00  0.00    -0.172 OA
ATOM     14  C   UNL     1     -11.583  14.872  68.924  0.00  0.00    +0.160 C 
ATOM     15  O   UNL     1      -9.691  11.855  68.085  0.00  0.00    -0.294 OA
ATOM     16  C   UNL     1     -11.573  10.566  67.802  0.00  0.00    +0.063 C 
ENDROOT
BRANCH   1  18
ATOM     17  C   UNL     1      -9.366   9.269  69.328  0.00  0.00    +0.249 C 
ATOM     18  N   UNL     1     -10.188  10.324  69.823  0.00  0.00    -0.173 NA
ATOM     19  O   UNL     1      -8.532   9.603  68.474  0.00  0.00    -0.273 OA
BRANCH  17  34
ATOM     20  C   UNL     1      -9.880   7.311  72.542  0.00  0.00    +0.090 C 
ATOM     21  N   UNL     1     -10.303   7.606  72.405  0.00  0.00    -0.268 NA
ATOM     22  C   UNL     1     -11.448   7.061  71.429  0.00  0.00    +0.084 C 
ATOM     23  C   UNL     1     -10.338   6.182  70.627  0.00  0.00    -0.011 C 
ATOM     24  C   UNL     1     -10.038   4.850  71.013  0.00  0.00    -0.002 A 
ATOM     25  C   UNL     1     -10.243   4.318  72.290  0.00  0.00    +0.015 A 
ATOM     26  C   UNL     1      -9.314   3.601  72.989  0.00  0.00    +0.081 A 
ATOM     27  N   UNL     1      -9.476   3.958  74.287  0.00  0.00    -0.244 NA
ATOM     28  C   UNL     1     -10.439   4.906  74.398  0.00  0.00    +0.095 A 
ATOM     29  C   UNL     1      -8.286   3.037  72.241  0.00  0.00    +0.019 A 
ATOM     30  C   UNL     1      -8.241   3.253  70.865  0.00  0.00    +0.002 A 
ATOM     31  C   UNL     1     -10.791   5.306  73.114  0.00  0.00    +0.000 A 
ATOM     32  C   UNL     1      -9.065   4.201  70.257  0.00  0.00    -0.000 A 
ATOM     33  C   UNL     1      -9.736   7.000  69.838  0.00  0.00    -0.019 C 
ATOM     34  C   UNL     1      -8.865   8.226  70.466  0.00  0.00    +0.116 C 
ATOM     35  C   UNL     1     -11.962   5.888  72.486  0.00  0.00    +0.048 C 
ATOM     36  C   UNL     1     -10.019   8.742  71.535  0.00  0.00    +0.086 C 
ENDBRANCH  17  34
ENDBRANCH   1  18
BRANCH  14  37
ATOM     37  C   UNL     1     -10.912  15.535  70.288  0.00  0.00    +0.056 C 
BRANCH  37  38
ATOM     38  C   UNL     1     -11.913  15.833  71.274  0.00  0.00    -0.020 A 
ATOM     39  C   UNL     1     -13.214  15.412  70.986  0.00  0.00    -0.004 A 
ATOM     40  C   UNL     1     -14.212  15.460  71.941  0.00  0.00    -0.000 A 
ATOM     41  C   UNL     1     -13.845  15.833  73.228  0.00  0.00    -0.000 A 
ATOM     42  C   UNL     1     -12.544  15.522  73.598  0.00  0.00    -0.000 A 
ATOM     43  C   UNL     1     -11.601  15.526  72.599  0.00  0.00    -0.004 A 
ENDBRANCH  37  38
ENDBRANCH  14  37
TORSDOF 4
ENDMDL
MODEL 3
REMARK VINA RESULT:      -9.0      4.108     10.273
REMARK  Name = 
REMARK  4 active torsions:
REMARK  status: ('A' for Active; 'I' for Inactive)
REMARK    1  A    between atoms: C_4  and  C_5
REMARK    2  A    between atoms: N_7  and  C_8
REMARK    3  A    between atoms: C_20  and  C_21
REMARK    4  A    between atoms: C_21  and  C_22
REMARK                            x       y       z     vdW  Elec       q    Type
REMARK                         _______ _______ _______ _____ _____    ______ ____
ROOT
ATOM      1  C   UNL     1     -10.574  15.258  68.481  0.00  0.00    +0.243 C 
ATOM      2  C   UNL     1      -9.157  15.380  68.869  0.00  0.00    +0.274 C 
ATOM      3  O   UNL     1      -8.702  15.094  70.007  0.00  0.00    -0.270 OA
ATOM      4  N   UNL     1      -8.454  15.766  67.672  0.00  0.00    -0.225 N 
ATOM      5  C   UNL     1      -9.453  16.255  66.813  0.00  0.00    +0.307 C 
ATOM      6  C   UNL     1      -9.573  17.821  67.327  0.00  0.00    +0.149 C 
ATOM      7  N   UNL     1      -8.347  18.280  66.435  0.00  0.00    -0.273 N 
ATOM      8  C   UNL     1      -7.208  17.411  66.486  0.00  0.00    +0.244 C 
ATOM      9  O   UNL     1      -6.151  18.105  66.332  0.00  0.00    -0.273 OA
ATOM     10  C   UNL     1      -8.662  19.650  66.189  0.00  0.00    +0.094 C 
ATOM     11  C   UNL     1     -10.157  19.673  66.037  0.00  0.00    +0.023 C 
ATOM     12  C   UNL     1     -10.625  18.224  66.111  0.00  0.00    +0.029 C 
ATOM     13  O   UNL     1      -9.276  16.274  65.486  0.00  0.00    -0.172 OA
ATOM     14  C   UNL     1      -7.190  16.697  67.959  0.00  0.00    +0.160 C 
ATOM     15  O   UNL     1     -10.596  15.629  67.155  0.00  0.00    -0.294 OA
ATOM     16  C   UNL     1     -11.448  16.290  69.186  0.00  0.00    +0.063 C 
ENDROOT
BRANCH   1  18
ATOM     17  C   UNL     1     -11.145  13.061  67.558  0.00  0.00    +0.249 C 
ATOM     18  N   UNL     1     -11.073  13.904  68.706  0.00  0.00    -0.173 NA
ATOM     19  O   UNL     1     -10.172  13.125  66.793  0.00  0.00    -0.273 OA
BRANCH  17  34
ATOM     20  C   UNL     1     -10.730   9.325  68.098  0.00  0.00    +0.090 C 
ATOM     21  N   UNL     1     -10.268   9.578  68.020  0.00  0.00    -0.268 NA
ATOM     22  C   UNL     1      -9.441  10.241  69.220  0.00  0.00    +0.084 C 
ATOM     23  C   UNL     1     -10.835  10.579  69.987  0.00  0.00    -0.011 C 
ATOM     24  C   UNL     1     -11.413   9.657  70.898  0.00  0.00    -0.002 A 
ATOM     25  C   UNL     1     -11.185   8.278  70.900  0.00  0.00    +0.015 A 
ATOM     26  C   UNL     1     -12.166   7.330  70.969  0.00  0.00    +0.081 A 
ATOM     27  N   UNL     1     -11.747   6.311  70.180  0.00  0.00    -0.244 NA
ATOM     28  C   UNL     1     -10.567   6.625  69.591  0.00  0.00    +0.095 A 
ATOM     29  C   UNL     1     -13.393   7.755  71.466  0.00  0.00    +0.019 A 
ATOM     30  C   UNL     1     -13.563   9.090  71.824  0.00  0.00    +0.002 A 
ATOM     31  C   UNL     1     -10.298   7.960  69.867  0.00  0.00    +0.000 A 
ATOM     32  C   UNL     1     -12.611  10.054  71.487  0.00  0.00    -0.000 A 
ATOM     33  C   UNL     1     -11.306  11.635  69.425  0.00  0.00    -0.019 C 
ATOM     34  C   UNL     1     -11.742  11.581  67.855  0.00  0.00    +0.116 C 
ATOM     35  C   UNL     1      -9.110   8.789  69.956  0.00  0.00    +0.048 C 
ATOM     36  C   UNL     1     -10.363  10.847  67.306  0.00  0.00    +0.086 C 
ENDBRANCH  17  34
ENDBRANCH   1  18
BRANCH  14  37
ATOM     37  C   UNL     1      -6.159  15.461  67.560  0.00  0.00    +0.056 C 
BRANCH  37  38
ATOM     38  C   UNL     1      -5.384  15.039  68.692  0.00  0.00    -0.020 A 
ATOM     39  C   UNL     1      -5.325  15.924  69.771  0.00  0.00    -0.004 A 
ATOM     40  C   UNL     1      -4.786  15.543  70.986  0.00  0.00    -0.000 A 
ATOM     41  C   UNL     1      -4.411  14.213  71.126  0.00  0.00    -0.000 A 
ATOM     42  C   UNL     1      -5.130  13.299  70.369  0.00  0.00    -0.000 A 
ATOM     43  C   UNL     1      -5.608  13.742  69.159  0.00  0.00    -0.004 A 
ENDBRANCH  37  38
ENDBRANCH  14  37
TORSDOF 4
ENDMDL
MODEL 4
REMARK VINA RESULT:      -8.6      6.849     12.973
REMARK  Name = 
REMARK  4 active torsions:
REMARK  status: ('A' for Active; 'I' for Inactive)
REMARK    1  A    between atoms: C_4  and  C_5
REMARK    2  A    between atoms: N_7  and  C_8
REMARK    3  A    between atoms: C_20  and  C_21
REMARK    4  A    between atoms: C_21  and  C_22
REMARK                            x       y       z     vdW  Elec       q    Type
REMARK                         _______ _______ _______ _____ _____    ______ ____
ROOT
ATOM      1  C   UNL     1     -10.246   9.507  68.181  0.00  0.00    +0.243 C 
ATOM      2  C   UNL     1     -11.168  10.555  68.654  0.00  0.00    +0.274 C 
ATOM      3  O   UNL     1     -12.189  10.342  69.359  0.00  0.00    -0.270 OA
ATOM      4  N   UNL     1     -10.586  11.806  68.241  0.00  0.00    -0.225 N 
ATOM      5  C   UNL     1      -9.665  11.458  67.239  0.00  0.00    +0.307 C 
ATOM      6  C   UNL     1     -10.648  11.402  65.911  0.00  0.00    +0.149 C 
ATOM      7  N   UNL     1     -10.553  12.967  65.689  0.00  0.00    -0.273 N 
ATOM      8  C   UNL     1     -10.705  13.754  66.878  0.00  0.00    +0.244 C 
ATOM      9  O   UNL     1     -11.253  14.863  66.573  0.00  0.00    -0.273 OA
ATOM     10  C   UNL     1     -10.749  13.074  64.279  0.00  0.00    +0.094 C 
ATOM     11  C   UNL     1     -10.050  11.873  63.708  0.00  0.00    +0.023 C 
ATOM     12  C   UNL     1      -9.375  11.164  64.877  0.00  0.00    +0.029 C 
ATOM     13  O   UNL     1      -8.629  12.253  66.944  0.00  0.00    -0.172 OA
ATOM     14  C   UNL     1     -11.673  12.925  67.905  0.00  0.00    +0.160 C 
ATOM     15  O   UNL     1      -9.268  10.197  67.500  0.00  0.00    -0.294 OA
ATOM     16  C   UNL     1     -10.892   8.613  67.128  0.00  0.00    +0.063 C 
ENDROOT
BRANCH   1  18
ATOM     17  C   UNL     1      -8.952   7.569  68.939  0.00  0.00    +0.249 C 
ATOM     18  N   UNL     1      -9.722   8.717  69.292  0.00  0.00    -0.173 NA
ATOM     19  O   UNL     1      -8.150   7.736  68.009  0.00  0.00    -0.273 OA
BRANCH  17  34
ATOM     20  C   UNL     1      -9.256   6.351  72.523  0.00  0.00    +0.090 C 
ATOM     21  N   UNL     1      -9.657   6.669  72.375  0.00  0.00    -0.268 NA
ATOM     22  C   UNL     1     -10.975   6.110  71.659  0.00  0.00    +0.084 C 
ATOM     23  C   UNL     1     -10.087   4.951  70.942  0.00  0.00    -0.011 C 
ATOM     24  C   UNL     1      -9.891   3.689  71.560  0.00  0.00    -0.002 A 
ATOM     25  C   UNL     1      -9.985   3.443  72.933  0.00  0.00    +0.015 A 
ATOM     26  C   UNL     1      -9.059   2.752  73.662  0.00  0.00    +0.081 A 
ATOM     27  N   UNL     1      -9.007   3.369  74.868  0.00  0.00    -0.244 NA
ATOM     28  C   UNL     1      -9.833   4.444  74.884  0.00  0.00    +0.095 A 
ATOM     29  C   UNL     1      -8.209   1.920  72.941  0.00  0.00    +0.019 A 
ATOM     30  C   UNL     1      -8.322   1.861  71.553  0.00  0.00    +0.002 A 
ATOM     31  C   UNL     1     -10.303   4.636  73.590  0.00  0.00    +0.000 A 
ATOM     32  C   UNL     1      -9.106   2.780  70.854  0.00  0.00    -0.000 A 
ATOM     33  C   UNL     1      -9.506   5.512  69.941  0.00  0.00    -0.019 C 
ATOM     34  C   UNL     1      -8.427   6.704  70.207  0.00  0.00    +0.116 C 
ATOM     35  C   UNL     1     -11.474   5.242  72.984  0.00  0.00    +0.048 C 
ATOM     36  C   UNL     1      -9.363   7.568  71.264  0.00  0.00    +0.086 C 
ENDBRANCH  17  34
ENDBRANCH   1  18
BRANCH  14  37
ATOM     37  C   UNL     1     -11.267  13.767  69.274  0.00  0.00    +0.056 C 
BRANCH  37  38
ATOM     38  C   UNL     1     -12.407  13.972  70.122  0.00  0.00    -0.020 A 
ATOM     39  C   UNL     1     -12.590  13.047  71.152  0.00  0.00    -0.004 A 
ATOM     40  C   UNL     1     -13.525  13.256  72.148  0.00  0.00    -0.000 A 
ATOM     41  C   UNL     1     -14.193  14.474  72.149  0.00  0.00    -0.000 A 
ATOM     42  C   UNL     1     -13.491  15.548  71.619  0.00  0.00    -0.000 A 
ATOM     43  C   UNL     1     -12.602  15.266  70.610  0.00  0.00    -0.004 A 
ENDBRANCH  37  38
ENDBRANCH  14  37
TORSDOF 4
ENDMDL
MODEL 5
REMARK VINA RESULT:      -8.3      5.976     11.993
REMARK  Name = 
REMARK  4 active torsions:
REMARK  status: ('A' for Active; 'I' for Inactive)
REMARK    1  A    between atoms: C_4  and  C_5
REMARK    2  A    between atoms: N_7  and  C_8
REMARK    3  A    between atoms: C_20  and  C_21
REMARK    4  A    between atoms: C_21  and  C_22
REMARK                            x       y       z     vdW  Elec       q    Type
REMARK                         _______ _______ _______ _____ _____    ______ ____
ROOT
ATOM      1  C   UNL     1     -10.847  11.605  68.417  0.00  0.00    +0.243 C 
ATOM      2  C   UNL     1     -10.853  13.076  68.525  0.00  0.00    +0.274 C 
ATOM      3  O   UNL     1     -11.288  13.716  69.517  0.00  0.00    -0.270 OA
ATOM      4  N   UNL     1     -10.176  13.558  67.349  0.00  0.00    -0.225 N 
ATOM      5  C   UNL     1     -10.198  12.476  66.454  0.00  0.00    +0.307 C 
ATOM      6  C   UNL     1     -11.684  12.671  65.758  0.00  0.00    +0.149 C 
ATOM      7  N   UNL     1     -11.134  13.734  64.721  0.00  0.00    -0.273 N 
ATOM      8  C   UNL     1     -10.276  14.735  65.282  0.00  0.00    +0.244 C 
ATOM      9  O   UNL     1     -10.420  15.818  64.628  0.00  0.00    -0.273 OA
ATOM     10  C   UNL     1     -12.027  13.556  63.621  0.00  0.00    +0.094 C 
ATOM     11  C   UNL     1     -12.299  12.079  63.589  0.00  0.00    +0.023 C 
ATOM     12  C   UNL     1     -11.423  11.451  64.667  0.00  0.00    +0.029 C 
ATOM     13  O   UNL     1      -9.297  12.374  65.469  0.00  0.00    -0.172 OA
ATOM     14  C   UNL     1     -10.729  14.965  66.838  0.00  0.00    +0.160 C 
ATOM     15  O   UNL     1     -10.247  11.356  67.203  0.00  0.00    -0.294 OA
ATOM     16  C   UNL     1     -12.256  11.040  68.274  0.00  0.00    +0.063 C 
ENDROOT
BRANCH   1  18
ATOM     17  C   UNL     1     -10.404   9.606  69.761  0.00  0.00    +0.249 C 
ATOM     18  N   UNL     1     -10.146  10.991  69.541  0.00  0.00    -0.173 NA
ATOM     19  O   UNL     1     -10.441   8.906  68.739  0.00  0.00    -0.273 OA
BRANCH  17  34
ATOM     20  C   UNL     1     -10.356   7.692  73.042  0.00  0.00    +0.090 C 
ATOM     21  N   UNL     1     -10.842   7.726  72.825  0.00  0.00    -0.268 NA
ATOM     22  C   UNL     1     -11.380   6.660  71.759  0.00  0.00    +0.084 C 
ATOM     23  C   UNL     1      -9.867   6.472  71.192  0.00  0.00    -0.011 C 
ATOM     24  C   UNL     1      -8.998   5.488  71.732  0.00  0.00    -0.002 A 
ATOM     25  C   UNL     1      -9.104   4.938  73.013  0.00  0.00    +0.015 A 
ATOM     26  C   UNL     1      -8.064   4.809  73.889  0.00  0.00    +0.081 A 
ATOM     27  N   UNL     1      -8.589   5.042  75.117  0.00  0.00    -0.244 NA
ATOM     28  C   UNL     1      -9.903   5.360  75.016  0.00  0.00    +0.095 A 
ATOM     29  C   UNL     1      -6.789   4.847  73.335  0.00  0.00    +0.019 A 
ATOM     30  C   UNL     1      -6.642   5.043  71.964  0.00  0.00    +0.002 A 
ATOM     31  C   UNL     1     -10.200   5.510  73.666  0.00  0.00    +0.000 A 
ATOM     32  C   UNL     1      -7.725   5.427  71.171  0.00  0.00    -0.000 A 
ATOM     33  C   UNL     1      -9.647   7.475  70.419  0.00  0.00    -0.019 C 
ATOM     34  C   UNL     1      -9.631   8.980  71.044  0.00  0.00    +0.116 C 
ATOM     35  C   UNL     1     -11.388   5.399  72.841  0.00  0.00    +0.048 C 
ATOM     36  C   UNL     1     -11.040   8.838  71.902  0.00  0.00    +0.086 C 
ENDBRANCH  17  34
ENDBRANCH   1  18
BRANCH  14  37
ATOM     37  C   UNL     1      -9.338  15.720  67.333  0.00  0.00    +0.056 C 
BRANCH  37  38
ATOM     38  C   UNL     1      -9.611  17.025  67.866  0.00  0.00    -0.020 A 
ATOM     39  C   UNL     1      -8.509  17.752  68.323  0.00  0.00    -0.004 A 
ATOM     40  C   UNL     1      -8.620  19.088  68.663  0.00  0.00    -0.000 A 
ATOM     41  C   UNL     1      -9.840  19.707  68.423  0.00  0.00    -0.000 A 
ATOM     42  C   UNL     1     -10.577  19.197  67.364  0.00  0.00    -0.000 A 
ATOM     43  C   UNL     1     -10.439  17.854  67.106  0.00  0.00    -0.004 A 
ENDBRANCH  37  38
ENDBRANCH  14  37
TORSDOF 4
ENDMDL
MODEL 6
REMARK VINA RESULT:      -8.3      4.889     11.182
REMARK  Name = 
REMARK  4 active torsions:
REMARK  status: ('A' for Active; 'I' for Inactive)
REMARK    1  A    between atoms: C_4  and  C_5
REMARK    2  A    between atoms: N_7  and  C_8
REMARK    3  A    between atoms: C_20  and  C_21
REMARK    4  A    between atoms: C_21  and  C_22
REMARK                            x       y       z     vdW  Elec       q    Type
REMARK                         _______ _______ _______ _____ _____    ______ ____
ROOT
ATOM      1  C   UNL     1     -10.655  11.905  66.656  0.00  0.00    +0.243 C 
ATOM      2  C   UNL     1     -11.417  12.389  67.822  0.00  0.00    +0.274 C 
ATOM      3  O   UNL     1     -12.418  11.804  68.312  0.00  0.00    -0.270 OA
ATOM      4  N   UNL     1     -10.710  13.549  68.298  0.00  0.00    -0.225 N 
ATOM      5  C   UNL     1      -9.893  13.937  67.224  0.00  0.00    +0.307 C 
ATOM      6  C   UNL     1     -10.944  14.859  66.343  0.00  0.00    +0.149 C 
ATOM      7  N   UNL     1     -10.671  16.141  67.231  0.00  0.00    -0.273 N 
ATOM      8  C   UNL     1     -10.664  15.904  68.645  0.00  0.00    +0.244 C 
ATOM      9  O   UNL     1     -11.089  16.946  69.241  0.00  0.00    -0.273 OA
ATOM     10  C   UNL     1     -10.927  17.197  66.305  0.00  0.00    +0.094 C 
ATOM     11  C   UNL     1     -10.410  16.681  64.991  0.00  0.00    +0.023 C 
ATOM     12  C   UNL     1      -9.766  15.329  65.277  0.00  0.00    +0.029 C 
ATOM     13  O   UNL     1      -8.784  14.661  67.424  0.00  0.00    -0.172 OA
ATOM     14  C   UNL     1     -11.670  14.648  68.945  0.00  0.00    +0.160 C 
ATOM     15  O   UNL     1      -9.638  12.822  66.511  0.00  0.00    -0.294 OA
ATOM     16  C   UNL     1     -11.460  12.014  65.365  0.00  0.00    +0.063 C 
ENDROOT
BRANCH   1  18
ATOM     17  C   UNL     1      -9.022  10.401  67.692  0.00  0.00    +0.249 C 
ATOM     18  N   UNL     1     -10.173  10.542  66.862  0.00  0.00    -0.173 NA
ATOM     19  O   UNL     1      -9.016  11.104  68.713  0.00  0.00    -0.273 OA
BRANCH  17  34
ATOM     20  C   UNL     1      -8.527   7.231  69.726  0.00  0.00    +0.090 C 
ATOM     21  N   UNL     1      -8.777   7.617  69.995  0.00  0.00    -0.268 NA
ATOM     22  C   UNL     1     -10.366   7.805  69.946  0.00  0.00    +0.084 C 
ATOM     23  C   UNL     1     -10.375   7.269  68.409  0.00  0.00    -0.011 C 
ATOM     24  C   UNL     1     -10.533   5.890  68.115  0.00  0.00    -0.002 A 
ATOM     25  C   UNL     1     -10.230   4.841  68.989  0.00  0.00    +0.015 A 
ATOM     26  C   UNL     1      -9.497   3.739  68.653  0.00  0.00    +0.081 A 
ATOM     27  N   UNL     1      -8.763   3.437  69.753  0.00  0.00    -0.244 NA
ATOM     28  C   UNL     1      -8.987   4.347  70.732  0.00  0.00    +0.095 A 
ATOM     29  C   UNL     1      -9.400   3.459  67.294  0.00  0.00    +0.019 A 
ATOM     30  C   UNL     1     -10.010   4.310  66.374  0.00  0.00    +0.002 A 
ATOM     31  C   UNL     1      -9.754   5.372  70.192  0.00  0.00    +0.000 A 
ATOM     32  C   UNL     1     -10.517   5.550  66.765  0.00  0.00    -0.000 A 
ATOM     33  C   UNL     1     -10.006   8.262  67.681  0.00  0.00    -0.019 C 
ATOM     34  C   UNL     1      -8.505   8.871  67.859  0.00  0.00    +0.116 C 
ATOM     35  C   UNL     1     -10.683   6.362  70.704  0.00  0.00    +0.048 C 
ATOM     36  C   UNL     1      -8.542   8.973  69.511  0.00  0.00    +0.086 C 
ENDBRANCH  17  34
ENDBRANCH   1  18
BRANCH  14  37
ATOM     37  C   UNL     1     -11.093  14.298  70.459  0.00  0.00    +0.056 C 
BRANCH  37  38
ATOM     38  C   UNL     1     -12.052  14.627  71.476  0.00  0.00    -0.020 A 
ATOM     39  C   UNL     1     -11.669  15.603  72.399  0.00  0.00    -0.004 A 
ATOM     40  C   UNL     1     -12.577  16.145  73.290  0.00  0.00    -0.000 A 
ATOM     41  C   UNL     1     -13.906  15.766  73.154  0.00  0.00    -0.000 A 
ATOM     42  C   UNL     1     -14.310  15.431  71.869  0.00  0.00    -0.000 A 
ATOM     43  C   UNL     1     -13.360  14.867  71.051  0.00  0.00    -0.004 A 
ENDBRANCH  37  38
ENDBRANCH  14  37
TORSDOF 4
ENDMDL
MODEL 7
REMARK VINA RESULT:      -8.2      5.438      9.549
REMARK  Name = 
REMARK  4 active torsions:
REMARK  status: ('A' for Active; 'I' for Inactive)
REMARK    1  A    between atoms: C_4  and  C_5
REMARK    2  A    between atoms: N_7  and  C_8
REMARK    3  A    between atoms: C_20  and  C_21
REMARK    4  A    between atoms: C_21  and  C_22
REMARK                            x       y       z     vdW  Elec       q    Type
REMARK                         _______ _______ _______ _____ _____    ______ ____
ROOT
ATOM      1  C   UNL     1      -8.251   8.207  68.019  0.00  0.00    +0.243 C 
ATOM      2  C   UNL     1      -7.974   8.305  69.464  0.00  0.00    +0.274 C 
ATOM      3  O   UNL     1      -6.993   8.915  69.962  0.00  0.00    -0.270 OA
ATOM      4  N   UNL     1      -9.091   7.676  70.120  0.00  0.00    -0.225 N 
ATOM      5  C   UNL     1      -9.703   6.900  69.122  0.00  0.00    +0.307 C 
ATOM      6  C   UNL     1      -8.798   5.519  69.194  0.00  0.00    +0.149 C 
ATOM      7  N   UNL     1      -9.650   4.943  70.399  0.00  0.00    -0.273 N 
ATOM      8  C   UNL     1      -9.926   5.883  71.445  0.00  0.00    +0.244 C 
ATOM      9  O   UNL     1      -9.992   5.260  72.554  0.00  0.00    -0.273 OA
ATOM     10  C   UNL     1      -9.509   3.535  70.208  0.00  0.00    +0.094 C 
ATOM     11  C   UNL     1      -9.514   3.353  68.717  0.00  0.00    +0.023 C 
ATOM     12  C   UNL     1      -9.771   4.728  68.111  0.00  0.00    +0.029 C 
ATOM     13  O   UNL     1     -10.992   6.548  69.211  0.00  0.00    -0.172 OA
ATOM     14  C   UNL     1      -8.692   6.957  71.488  0.00  0.00    +0.160 C 
ATOM     15  O   UNL     1      -9.430   7.500  67.946  0.00  0.00    -0.294 OA
ATOM     16  C   UNL     1      -7.230   7.329  67.302  0.00  0.00    +0.063 C 
ENDROOT
BRANCH   1  18
ATOM     17  C   UNL     1      -8.751   9.558  66.038  0.00  0.00    +0.249 C 
ATOM     18  N   UNL     1      -8.335   9.527  67.401  0.00  0.00    -0.173 NA
ATOM     19  O   UNL     1      -9.692   8.802  65.754  0.00  0.00    -0.273 OA
BRANCH  17  34
ATOM     20  C   UNL     1     -10.611  12.536  64.589  0.00  0.00    +0.090 C 
ATOM     21  N   UNL     1     -10.934  12.143  64.747  0.00  0.00    -0.268 NA
ATOM     22  C   UNL     1     -11.481  12.033  66.247  0.00  0.00    +0.084 C 
ATOM     23  C   UNL     1     -10.094  12.685  66.794  0.00  0.00    -0.011 C 
ATOM     24  C   UNL     1      -9.956  14.089  66.951  0.00  0.00    -0.002 A 
ATOM     25  C   UNL     1     -10.704  15.052  66.267  0.00  0.00    +0.015 A 
ATOM     26  C   UNL     1     -10.174  16.141  65.636  0.00  0.00    +0.081 A 
ATOM     27  N   UNL     1     -10.929  16.324  64.524  0.00  0.00    -0.244 NA
ATOM     28  C   UNL     1     -11.870  15.353  64.428  0.00  0.00    +0.095 A 
ATOM     29  C   UNL     1      -8.897  16.520  66.037  0.00  0.00    +0.019 A 
ATOM     30  C   UNL     1      -8.234  15.772  67.007  0.00  0.00    +0.002 A 
ATOM     31  C   UNL     1     -11.606  14.409  65.414  0.00  0.00    +0.000 A 
ATOM     32  C   UNL     1      -8.721  14.530  67.418  0.00  0.00    -0.000 A 
ATOM     33  C   UNL     1      -9.229  11.735  66.797  0.00  0.00    -0.019 C 
ATOM     34  C   UNL     1      -8.791  11.045  65.387  0.00  0.00    +0.116 C 
ATOM     35  C   UNL     1     -12.379  13.427  66.152  0.00  0.00    +0.048 C 
ATOM     36  C   UNL     1     -10.325  10.819  64.809  0.00  0.00    +0.086 C 
ENDBRANCH  17  34
ENDBRANCH   1  18
BRANCH  14  37
ATOM     37  C   UNL     1      -9.484   8.124  72.361  0.00  0.00    +0.056 C 
BRANCH  37  38
ATOM     38  C   UNL     1     -10.747   8.459  71.765  0.00  0.00    -0.020 A 
ATOM     39  C   UNL     1     -11.884   8.219  72.541  0.00  0.00    -0.004 A 
ATOM     40  C   UNL     1     -13.126   8.688  72.159  0.00  0.00    -0.000 A 
ATOM     41  C   UNL     1     -13.182   9.503  71.035  0.00  0.00    -0.000 A 
ATOM     42  C   UNL     1     -12.046  10.260  70.782  0.00  0.00    -0.000 A 
ATOM     43  C   UNL     1     -10.844   9.714  71.162  0.00  0.00    -0.004 A 
ENDBRANCH  37  38
ENDBRANCH  14  37
TORSDOF 4
ENDMDL
MODEL 8
REMARK VINA RESULT:      -8.1      3.029      5.047
REMARK  Name = 
REMARK  4 active torsions:
REMARK  status: ('A' for Active; 'I' for Inactive)
REMARK    1  A    between atoms: C_4  and  C_5
REMARK    2  A    between atoms: N_7  and  C_8
REMARK    3  A    between atoms: C_20  and  C_21
REMARK    4  A    between atoms: C_21  and  C_22
REMARK                            x       y       z     vdW  Elec       q    Type
REMARK                         _______ _______ _______ _____ _____    ______ ____
ROOT
ATOM      1  C   UNL     1     -10.225  13.193  66.184  0.00  0.00    +0.243 C 
ATOM      2  C   UNL     1      -9.971  12.380  64.980  0.00  0.00    +0.274 C 
ATOM      3  O   UNL     1     -10.402  12.655  63.831  0.00  0.00    -0.270 OA
ATOM      4  N   UNL     1      -9.073  11.334  65.396  0.00  0.00    -0.225 N 
ATOM      5  C   UNL     1      -9.182  11.304  66.796  0.00  0.00    +0.307 C 
ATOM      6  C   UNL     1     -10.505  10.333  66.989  0.00  0.00    +0.149 C 
ATOM      7  N   UNL     1      -9.641   9.013  66.861  0.00  0.00    -0.273 N 
ATOM      8  C   UNL     1      -8.689   9.018  65.789  0.00  0.00    +0.244 C 
ATOM      9  O   UNL     1      -8.546   7.828  65.357  0.00  0.00    -0.273 OA
ATOM     10  C   UNL     1     -10.405   8.088  67.635  0.00  0.00    +0.094 C 
ATOM     11  C   UNL     1     -10.940   8.903  68.778  0.00  0.00    +0.023 C 
ATOM     12  C   UNL     1     -10.339  10.297  68.638  0.00  0.00    +0.029 C 
ATOM     13  O   UNL     1      -8.198  10.807  67.557  0.00  0.00    -0.172 OA
ATOM     14  C   UNL     1      -9.285   9.969  64.597  0.00  0.00    +0.160 C 
ATOM     15  O   UNL     1      -9.532  12.546  67.183  0.00  0.00    -0.294 OA
ATOM     16  C   UNL     1     -11.685  13.124  66.620  0.00  0.00    +0.063 C 
ENDROOT
BRANCH   1  18
ATOM     17  C   UNL     1      -9.989  15.452  67.103  0.00  0.00    +0.249 C 
ATOM     18  N   UNL     1      -9.798  14.577  65.993  0.00  0.00    -0.173 NA
ATOM     19  O   UNL     1      -9.696  14.976  68.209  0.00  0.00    -0.273 OA
BRANCH  17  34
ATOM     20  C   UNL     1      -8.392  18.723  68.186  0.00  0.00    +0.090 C 
ATOM     21  N   UNL     1      -8.374  18.346  68.562  0.00  0.00    -0.268 NA
ATOM     22  C   UNL     1      -7.183  17.281  68.652  0.00  0.00    +0.084 C 
ATOM     23  C   UNL     1      -7.041  17.311  67.032  0.00  0.00    -0.011 C 
ATOM     24  C   UNL     1      -6.168  18.227  66.389  0.00  0.00    -0.002 A 
ATOM     25  C   UNL     1      -5.732  19.439  66.934  0.00  0.00    +0.015 A 
ATOM     26  C   UNL     1      -5.750  20.636  66.276  0.00  0.00    +0.081 A 
ATOM     27  N   UNL     1      -6.061  21.565  67.213  0.00  0.00    -0.244 NA
ATOM     28  C   UNL     1      -6.283  20.970  68.411  0.00  0.00    +0.095 A 
ATOM     29  C   UNL     1      -5.819  20.570  64.888  0.00  0.00    +0.019 A 
ATOM     30  C   UNL     1      -5.898  19.327  64.264  0.00  0.00    +0.002 A 
ATOM     31  C   UNL     1      -6.290  19.595  68.206  0.00  0.00    +0.000 A 
ATOM     32  C   UNL     1      -6.136  18.165  64.998  0.00  0.00    -0.000 A 
ATOM     33  C   UNL     1      -7.981  16.562  66.576  0.00  0.00    -0.019 C 
ATOM     34  C   UNL     1      -9.535  16.986  66.826  0.00  0.00    +0.116 C 
ATOM     35  C   UNL     1      -6.029  18.419  69.015  0.00  0.00    +0.048 C 
ATOM     36  C   UNL     1      -9.382  17.298  68.445  0.00  0.00    +0.086 C 
ENDBRANCH  17  34
ENDBRANCH   1  18
BRANCH  14  37
ATOM     37  C   UNL     1      -7.853  10.188  63.792  0.00  0.00    +0.056 C 
BRANCH  37  38
ATOM     38  C   UNL     1      -7.951   9.767  62.423  0.00  0.00    -0.020 A 
ATOM     39  C   UNL     1      -7.044   8.789  62.006  0.00  0.00    -0.004 A 
ATOM     40  C   UNL     1      -7.175   8.163  60.781  0.00  0.00    -0.000 A 
ATOM     41  C   UNL     1      -8.306   8.460  60.031  0.00  0.00    -0.000 A 
ATOM     42  C   UNL     1      -9.436   8.809  60.756  0.00  0.00    -0.000 A 
ATOM     43  C   UNL     1      -9.227   9.457  61.950  0.00  0.00    -0.004 A 
ENDBRANCH  37  38
ENDBRANCH  14  37
TORSDOF 4
ENDMDL
MODEL 9
REMARK VINA RESULT:      -8.0      6.707     11.925
REMARK  Name = 
REMARK  4 active torsions:
REMARK  status: ('A' for Active; 'I' for Inactive)
REMARK    1  A    between atoms: C_4  and  C_5
REMARK    2  A    between atoms: N_7  and  C_8
REMARK    3  A    between atoms: C_20  and  C_21
REMARK    4  A    between atoms: C_21  and  C_22
REMARK                            x       y       z     vdW  Elec       q    Type
REMARK                         _______ _______ _______ _____ _____    ______ ____
ROOT
ATOM      1  C   UNL     1      -9.831   9.750  68.165  0.00  0.00    +0.243 C 
ATOM      2  C   UNL     1     -10.831  10.666  68.744  0.00  0.00    +0.274 C 
ATOM      3  O   UNL     1     -11.654  10.348  69.642  0.00  0.00    -0.270 OA
ATOM      4  N   UNL     1     -10.571  11.954  68.155  0.00  0.00    -0.225 N 
ATOM      5  C   UNL     1      -9.796  11.677  67.017  0.00  0.00    +0.307 C 
ATOM      6  C   UNL     1     -10.973  11.334  65.908  0.00  0.00    +0.149 C 
ATOM      7  N   UNL     1     -11.206  12.866  65.581  0.00  0.00    -0.273 N 
ATOM      8  C   UNL     1     -11.286  13.721  66.729  0.00  0.00    +0.244 C 
ATOM      9  O   UNL     1     -12.073  14.688  66.470  0.00  0.00    -0.273 OA
ATOM     10  C   UNL     1     -11.667  12.809  64.231  0.00  0.00    +0.094 C 
ATOM     11  C   UNL     1     -10.873  11.696  63.607  0.00  0.00    +0.023 C 
ATOM     12  C   UNL     1      -9.882  11.222  64.665  0.00  0.00    +0.029 C 
ATOM     13  O   UNL     1      -8.992  12.605  66.484  0.00  0.00    -0.172 OA
ATOM     14  C   UNL     1     -11.887  12.837  67.969  0.00  0.00    +0.160 C 
ATOM     15  O   UNL     1      -9.134  10.530  67.270  0.00  0.00    -0.294 OA
ATOM     16  C   UNL     1     -10.481   8.667  67.309  0.00  0.00    +0.063 C 
ENDROOT
BRANCH   1  18
ATOM     17  C   UNL     1      -7.954   8.287  68.744  0.00  0.00    +0.249 C 
ATOM     18  N   UNL     1      -8.983   9.164  69.199  0.00  0.00    -0.173 NA
ATOM     19  O   UNL     1      -7.341   8.668  67.737  0.00  0.00    -0.273 OA
BRANCH  17  34
ATOM     20  C   UNL     1      -6.797   8.112  72.358  0.00  0.00    +0.090 C 
ATOM     21  N   UNL     1      -7.161   8.491  72.272  0.00  0.00    -0.268 NA
ATOM     22  C   UNL     1      -8.734   8.204  72.351  0.00  0.00    +0.084 C 
ATOM     23  C   UNL     1      -8.479   6.694  71.801  0.00  0.00    -0.011 C 
ATOM     24  C   UNL     1      -8.241   5.618  72.695  0.00  0.00    -0.002 A 
ATOM     25  C   UNL     1      -7.740   5.748  73.994  0.00  0.00    +0.015 A 
ATOM     26  C   UNL     1      -6.716   5.004  74.508  0.00  0.00    +0.081 A 
ATOM     27  N   UNL     1      -6.018   5.846  75.310  0.00  0.00    -0.244 NA
ATOM     28  C   UNL     1      -6.552   7.091  75.263  0.00  0.00    +0.095 A 
ATOM     29  C   UNL     1      -6.442   3.807  73.856  0.00  0.00    +0.019 A 
ATOM     30  C   UNL     1      -7.181   3.455  72.728  0.00  0.00    +0.002 A 
ATOM     31  C   UNL     1      -7.518   7.101  74.265  0.00  0.00    +0.000 A 
ATOM     32  C   UNL     1      -8.029   4.373  72.107  0.00  0.00    -0.000 A 
ATOM     33  C   UNL     1      -8.331   6.797  70.528  0.00  0.00    -0.019 C 
ATOM     34  C   UNL     1      -7.064   7.633  69.934  0.00  0.00    +0.116 C 
ATOM     35  C   UNL     1      -8.715   7.871  73.978  0.00  0.00    +0.048 C 
ATOM     36  C   UNL     1      -7.257   8.967  70.896  0.00  0.00    +0.086 C 
ENDBRANCH  17  34
ENDBRANCH   1  18
BRANCH  14  37
ATOM     37  C   UNL     1     -11.404  13.857  69.183  0.00  0.00    +0.056 C 
BRANCH  37  38
ATOM     38  C   UNL     1     -12.465  14.097  70.120  0.00  0.00    -0.020 A 
ATOM     39  C   UNL     1     -12.648  13.131  71.113  0.00  0.00    -0.004 A 
ATOM     40  C   UNL     1     -13.494  13.351  72.183  0.00  0.00    -0.000 A 
ATOM     41  C   UNL     1     -14.066  14.612  72.294  0.00  0.00    -0.000 A 
ATOM     42  C   UNL     1     -13.323  15.660  71.770  0.00  0.00    -0.000 A 
ATOM     43  C   UNL     1     -12.528  15.372  70.686  0.00  0.00    -0.004 A 
ENDBRANCH  37  38
ENDBRANCH  14  37
TORSDOF 4
ENDMDL
