MODEL 1
REMARK VINA RESULT:      -8.0      0.000      0.000
REMARK  Name = 
REMARK  8 active torsions:
REMARK  status: ('A' for Active; 'I' for Inactive)
REMARK    1  A    between atoms: C_2  and  C_3
REMARK    2  A    between atoms: C_9  and  C_10
REMARK    3  A    between atoms: C_10  and  C_11
REMARK    4  A    between atoms: C_11  and  C_12
REMARK    5  A    between atoms: C_12  and  C_13
REMARK    6  A    between atoms: C_13  and  N_14
REMARK    7  A    between atoms: N_17  and  C_18
REMARK    8  A    between atoms: C_23  and  C_24
REMARK                            x       y       z     vdW  Elec       q    Type
REMARK                         _______ _______ _______ _____ _____    ______ ____
ROOT
ATOM      1  N   UNL     1      -8.704  15.934  67.046  0.00  0.00    -0.270 NA
ATOM      2  C   UNL     1      -8.016  16.814  66.130  0.00  0.00    +0.094 C 
ATOM      3  C   UNL     1      -8.919  18.024  65.920  0.00  0.00    +0.108 C 
ATOM      4  N   UNL     1      -9.056  18.636  67.242  0.00  0.00    -0.305 N 
ATOM      5  C   UNL     1      -9.790  17.812  68.204  0.00  0.00    +0.108 C 
ATOM      6  C   UNL     1      -8.971  16.532  68.327  0.00  0.00    +0.094 C 
ENDROOT
BRANCH   4   7
ATOM      7  C   UNL     1      -7.843  19.203  67.759  0.00  0.00    +0.048 A 
ATOM      8  C   UNL     1      -7.593  19.150  69.123  0.00  0.00    +0.018 A 
ATOM      9  C   UNL     1      -6.590  19.922  69.692  0.00  0.00    +0.039 A 
ATOM     10  C   UNL     1      -5.775  20.679  68.863  0.00  0.00    +0.146 A 
ATOM     11  O   UNL     1      -4.775  21.114  69.582  0.00  0.00    -0.449 OA
ATOM     12  C   UNL     1      -4.896  20.769  70.834  0.00  0.00    +0.202 A 
ATOM     13  C   UNL     1      -6.283  21.055  67.647  0.00  0.00    +0.039 A 
ATOM     14  C   UNL     1      -6.032  20.007  70.961  0.00  0.00    +0.045 A 
ATOM     15  C   UNL     1      -7.250  20.265  67.086  0.00  0.00    +0.018 A 
BRANCH  12  16
ATOM     16  C   UNL     1      -4.040  21.223  71.933  0.00  0.00    +0.319 C 
ATOM     17  O   UNL     1      -4.253  22.314  72.512  0.00  0.00    -0.263 OA
ATOM     18  N   UNL     1      -2.987  20.410  72.403  0.00  0.00    -0.081 NA
ENDBRANCH  12  16
ENDBRANCH   4   7
BRANCH   1  19
ATOM     19  C   UNL     1      -9.906  15.377  66.459  0.00  0.00    +0.072 C 
BRANCH  19  20
ATOM     20  C   UNL     1      -9.742  13.873  66.447  0.00  0.00    +0.018 C 
BRANCH  20  21
ATOM     21  C   UNL     1     -10.600  13.181  67.468  0.00  0.00    +0.006 C 
BRANCH  21  22
ATOM     22  C   UNL     1     -11.939  13.851  67.671  0.00  0.00    +0.028 C 
BRANCH  22  30
ATOM     23  C   UNL     1     -12.847  11.604  71.418  0.00  0.00    +0.069 A 
ATOM     24  C   UNL     1     -12.043  12.243  70.482  0.00  0.00    +0.012 A 
ATOM     25  C   UNL     1     -12.137  13.599  70.229  0.00  0.00    +0.016 A 
ATOM     26  C   UNL     1     -12.700  14.382  71.228  0.00  0.00    +0.081 A 
ATOM     27  N   UNL     1     -12.664  15.646  70.741  0.00  0.00    -0.244 NA
ATOM     28  C   UNL     1     -12.193  15.658  69.489  0.00  0.00    +0.095 A 
ATOM     29  C   UNL     1     -13.399  13.777  72.265  0.00  0.00    +0.020 A 
ATOM     30  C   UNL     1     -11.958  14.353  69.080  0.00  0.00    -0.002 A 
ATOM     31  C   UNL     1     -13.641  12.410  72.224  0.00  0.00    +0.012 A 
BRANCH  23  33
ATOM     32  N   UNL     1     -13.012   9.020  71.294  0.00  0.00    -0.191 NA
ATOM     33  C   UNL     1     -13.100  10.184  71.330  0.00  0.00    +0.100 C 
ENDBRANCH  23  33
ENDBRANCH  22  30
ENDBRANCH  21  22
ENDBRANCH  20  21
ENDBRANCH  19  20
ENDBRANCH   1  19
TORSDOF 8
ENDMDL
MODEL 2
REMARK VINA RESULT:      -7.9      1.921      4.230
REMARK  Name = 
REMARK  8 active torsions:
REMARK  status: ('A' for Active; 'I' for Inactive)
REMARK    1  A    between atoms: C_2  and  C_3
REMARK    2  A    between atoms: C_9  and  C_10
REMARK    3  A    between atoms: C_10  and  C_11
REMARK    4  A    between atoms: C_11  and  C_12
REMARK    5  A    between atoms: C_12  and  C_13
REMARK    6  A    between atoms: C_13  and  N_14
REMARK    7  A    between atoms: N_17  and  C_18
REMARK    8  A    between atoms: C_23  and  C_24
REMARK                            x       y       z     vdW  Elec       q    Type
REMARK                         _______ _______ _______ _____ _____    ______ ____
ROOT
ATOM      1  N   UNL     1     -10.332  17.315  68.738  0.00  0.00    -0.270 NA
ATOM      2  C   UNL     1      -9.029  16.735  68.965  0.00  0.00    +0.094 C 
ATOM      3  C   UNL     1      -8.443  16.421  67.593  0.00  0.00    +0.108 C 
ATOM      4  N   UNL     1      -8.337  17.712  66.914  0.00  0.00    -0.305 N 
ATOM      5  C   UNL     1      -9.630  18.330  66.611  0.00  0.00    +0.108 C 
ATOM      6  C   UNL     1     -10.296  18.530  67.968  0.00  0.00    +0.094 C 
ENDROOT
BRANCH   4   7
ATOM      7  C   UNL     1      -7.380  18.610  67.495  0.00  0.00    +0.048 A 
ATOM      8  C   UNL     1      -6.945  18.394  68.794  0.00  0.00    +0.018 A 
ATOM      9  C   UNL     1      -6.250  19.378  69.484  0.00  0.00    +0.039 A 
ATOM     10  C   UNL     1      -5.915  20.550  68.823  0.00  0.00    +0.146 A 
ATOM     11  O   UNL     1      -5.072  21.203  69.577  0.00  0.00    -0.449 OA
ATOM     12  C   UNL     1      -4.877  20.598  70.716  0.00  0.00    +0.202 A 
ATOM     13  C   UNL     1      -6.690  20.919  67.754  0.00  0.00    +0.039 A 
ATOM     14  C   UNL     1      -5.600  19.430  70.711  0.00  0.00    +0.045 A 
ATOM     15  C   UNL     1      -7.343  19.932  67.067  0.00  0.00    +0.018 A 
BRANCH  12  16
ATOM     16  C   UNL     1      -4.121  21.134  71.852  0.00  0.00    +0.319 C 
ATOM     17  O   UNL     1      -4.328  22.295  72.278  0.00  0.00    -0.263 OA
ATOM     18  N   UNL     1      -3.181  20.329  72.529  0.00  0.00    -0.081 NA
ENDBRANCH  12  16
ENDBRANCH   4   7
BRANCH   1  19
ATOM     19  C   UNL     1     -11.258  16.355  68.172  0.00  0.00    +0.072 C 
BRANCH  19  20
ATOM     20  C   UNL     1     -11.917  15.634  69.327  0.00  0.00    +0.018 C 
BRANCH  20  21
ATOM     21  C   UNL     1     -12.102  14.165  69.074  0.00  0.00    +0.006 C 
BRANCH  21  22
ATOM     22  C   UNL     1     -10.829  13.370  69.240  0.00  0.00    +0.028 C 
BRANCH  22  30
ATOM     23  C   UNL     1     -11.115  14.246  64.873  0.00  0.00    +0.069 A 
ATOM     24  C   UNL     1     -10.481  13.915  66.065  0.00  0.00    +0.012 A 
ATOM     25  C   UNL     1     -10.747  12.738  66.741  0.00  0.00    +0.016 A 
ATOM     26  C   UNL     1     -11.291  11.700  65.997  0.00  0.00    +0.081 A 
ATOM     27  N   UNL     1     -11.441  10.682  66.879  0.00  0.00    -0.244 NA
ATOM     28  C   UNL     1     -11.099  11.069  68.113  0.00  0.00    +0.095 A 
ATOM     29  C   UNL     1     -11.815  11.959  64.736  0.00  0.00    +0.020 A 
ATOM     30  C   UNL     1     -10.765  12.416  68.089  0.00  0.00    -0.002 A 
ATOM     31  C   UNL     1     -11.909  13.269  64.288  0.00  0.00    +0.012 A 
BRANCH  23  33
ATOM     32  N   UNL     1     -11.570  16.650  64.017  0.00  0.00    -0.191 NA
ATOM     33  C   UNL     1     -11.219  15.624  64.449  0.00  0.00    +0.100 C 
ENDBRANCH  23  33
ENDBRANCH  22  30
ENDBRANCH  21  22
ENDBRANCH  20  21
ENDBRANCH  19  20
ENDBRANCH   1  19
TORSDOF 8
ENDMDL
MODEL 3
REMARK VINA RESULT:      -7.9      2.013      2.938
REMARK  Name = 
REMARK  8 active torsions:
REMARK  status: ('A' for Active; 'I' for Inactive)
REMARK    1  A    between atoms: C_2  and  C_3
REMARK    2  A    between atoms: C_9  and  C_10
REMARK    3  A    between atoms: C_10  and  C_11
REMARK    4  A    between atoms: C_11  and  C_12
REMARK    5  A    between atoms: C_12  and  C_13
REMARK    6  A    between atoms: C_13  and  N_14
REMARK    7  A    between atoms: N_17  and  C_18
REMARK    8  A    between atoms: C_23  and  C_24
REMARK                            x       y       z     vdW  Elec       q    Type
REMARK                         _______ _______ _______ _____ _____    ______ ____
ROOT
ATOM      1  N   UNL     1     -10.242  15.257  67.852  0.00  0.00    -0.270 NA
ATOM      2  C   UNL     1      -8.941  15.052  67.258  0.00  0.00    +0.094 C 
ATOM      3  C   UNL     1      -8.767  16.132  66.196  0.00  0.00    +0.108 C 
ATOM      4  N   UNL     1      -8.824  17.400  66.924  0.00  0.00    -0.305 N 
ATOM      5  C   UNL     1     -10.134  17.690  67.509  0.00  0.00    +0.108 C 
ATOM      6  C   UNL     1     -10.393  16.543  68.479  0.00  0.00    +0.094 C 
ENDROOT
BRANCH   4   7
ATOM      7  C   UNL     1      -7.722  17.620  67.817  0.00  0.00    +0.048 A 
ATOM      8  C   UNL     1      -7.746  18.709  68.675  0.00  0.00    +0.018 A 
ATOM      9  C   UNL     1      -6.598  19.115  69.341  0.00  0.00    +0.039 A 
ATOM     10  C   UNL     1      -5.444  18.359  69.209  0.00  0.00    +0.146 A 
ATOM     11  O   UNL     1      -4.588  18.784  70.099  0.00  0.00    -0.449 OA
ATOM     12  C   UNL     1      -5.051  19.808  70.762  0.00  0.00    +0.202 A 
ATOM     13  C   UNL     1      -5.312  17.596  68.078  0.00  0.00    +0.039 A 
ATOM     14  C   UNL     1      -6.328  20.061  70.323  0.00  0.00    +0.045 A 
ATOM     15  C   UNL     1      -6.455  17.178  67.452  0.00  0.00    +0.018 A 
BRANCH  12  16
ATOM     16  C   UNL     1      -4.294  20.624  71.715  0.00  0.00    +0.319 C 
ATOM     17  O   UNL     1      -3.484  20.100  72.515  0.00  0.00    -0.263 OA
ATOM     18  N   UNL     1      -4.421  22.029  71.713  0.00  0.00    -0.081 NA
ENDBRANCH  12  16
ENDBRANCH   4   7
BRANCH   1  19
ATOM     19  C   UNL     1     -11.312  14.998  66.909  0.00  0.00    +0.072 C 
BRANCH  19  20
ATOM     20  C   UNL     1     -11.688  13.540  67.048  0.00  0.00    +0.018 C 
BRANCH  20  21
ATOM     21  C   UNL     1     -11.741  13.081  68.478  0.00  0.00    +0.006 C 
BRANCH  21  22
ATOM     22  C   UNL     1     -11.615  11.582  68.624  0.00  0.00    +0.028 C 
BRANCH  22  30
ATOM     23  C   UNL     1     -11.605   7.610  70.659  0.00  0.00    +0.069 A 
ATOM     24  C   UNL     1     -11.120   8.869  70.325  0.00  0.00    +0.012 A 
ATOM     25  C   UNL     1     -11.780  10.032  70.678  0.00  0.00    +0.016 A 
ATOM     26  C   UNL     1     -12.661   9.950  71.748  0.00  0.00    +0.081 A 
ATOM     27  N   UNL     1     -13.155  11.204  71.889  0.00  0.00    -0.244 NA
ATOM     28  C   UNL     1     -12.688  12.008  70.926  0.00  0.00    +0.095 A 
ATOM     29  C   UNL     1     -13.069   8.704  72.209  0.00  0.00    +0.020 A 
ATOM     30  C   UNL     1     -11.901  11.266  70.058  0.00  0.00    -0.002 A 
ATOM     31  C   UNL     1     -12.697   7.560  71.515  0.00  0.00    +0.012 A 
BRANCH  23  33
ATOM     32  N   UNL     1     -10.762   5.433  69.532  0.00  0.00    -0.191 NA
ATOM     33  C   UNL     1     -11.219   6.443  69.899  0.00  0.00    +0.100 C 
ENDBRANCH  23  33
ENDBRANCH  22  30
ENDBRANCH  21  22
ENDBRANCH  20  21
ENDBRANCH  19  20
ENDBRANCH   1  19
TORSDOF 8
ENDMDL
MODEL 4
REMARK VINA RESULT:      -7.8      2.443      4.212
REMARK  Name = 
REMARK  8 active torsions:
REMARK  status: ('A' for Active; 'I' for Inactive)
REMARK    1  A    between atoms: C_2  and  C_3
REMARK    2  A    between atoms: C_9  and  C_10
REMARK    3  A    between atoms: C_10  and  C_11
REMARK    4  A    between atoms: C_11  and  C_12
REMARK    5  A    between atoms: C_12  and  C_13
REMARK    6  A    between atoms: C_13  and  N_14
REMARK    7  A    between atoms: N_17  and  C_18
REMARK    8  A    between atoms: C_23  and  C_24
REMARK                            x       y       z     vdW  Elec       q    Type
REMARK                         _______ _______ _______ _____ _____    ______ ____
ROOT
ATOM      1  N   UNL     1     -10.453  17.419  68.664  0.00  0.00    -0.270 NA
ATOM      2  C   UNL     1      -9.177  16.819  68.978  0.00  0.00    +0.094 C 
ATOM      3  C   UNL     1      -8.544  16.415  67.651  0.00  0.00    +0.108 C 
ATOM      4  N   UNL     1      -8.374  17.664  66.909  0.00  0.00    -0.305 N 
ATOM      5  C   UNL     1      -9.635  18.298  66.518  0.00  0.00    +0.108 C 
ATOM      6  C   UNL     1     -10.351  18.588  67.833  0.00  0.00    +0.094 C 
ENDROOT
BRANCH   4   7
ATOM      7  C   UNL     1      -7.417  18.567  67.482  0.00  0.00    +0.048 A 
ATOM      8  C   UNL     1      -6.981  18.364  68.783  0.00  0.00    +0.018 A 
ATOM      9  C   UNL     1      -6.287  19.354  69.463  0.00  0.00    +0.039 A 
ATOM     10  C   UNL     1      -5.952  20.520  68.791  0.00  0.00    +0.146 A 
ATOM     11  O   UNL     1      -5.109  21.180  69.540  0.00  0.00    -0.449 OA
ATOM     12  C   UNL     1      -4.914  20.585  70.684  0.00  0.00    +0.202 A 
ATOM     13  C   UNL     1      -6.728  20.879  67.720  0.00  0.00    +0.039 A 
ATOM     14  C   UNL     1      -5.636  19.417  70.689  0.00  0.00    +0.045 A 
ATOM     15  C   UNL     1      -7.380  19.885  67.041  0.00  0.00    +0.018 A 
BRANCH  12  16
ATOM     16  C   UNL     1      -4.158  21.132  71.814  0.00  0.00    +0.319 C 
ATOM     17  O   UNL     1      -4.437  22.254  72.299  0.00  0.00    -0.263 OA
ATOM     18  N   UNL     1      -3.132  20.377  72.421  0.00  0.00    -0.081 NA
ENDBRANCH  12  16
ENDBRANCH   4   7
BRANCH   1  19
ATOM     19  C   UNL     1     -11.382  16.454  68.112  0.00  0.00    +0.072 C 
BRANCH  19  20
ATOM     20  C   UNL     1     -11.732  15.484  69.219  0.00  0.00    +0.018 C 
BRANCH  20  21
ATOM     21  C   UNL     1     -12.102  14.120  68.710  0.00  0.00    +0.006 C 
BRANCH  21  22
ATOM     22  C   UNL     1     -11.065  13.533  67.780  0.00  0.00    +0.028 C 
BRANCH  22  30
ATOM     23  C   UNL     1      -9.925  10.365  64.850  0.00  0.00    +0.069 A 
ATOM     24  C   UNL     1     -10.643  10.929  65.898  0.00  0.00    +0.012 A 
ATOM     25  C   UNL     1     -11.463  12.029  65.724  0.00  0.00    +0.016 A 
ATOM     26  C   UNL     1     -11.918  12.270  64.434  0.00  0.00    +0.081 A 
ATOM     27  N   UNL     1     -12.694  13.377  64.540  0.00  0.00    -0.244 NA
ATOM     28  C   UNL     1     -12.667  13.856  65.789  0.00  0.00    +0.095 A 
ATOM     29  C   UNL     1     -11.320  11.621  63.361  0.00  0.00    +0.020 A 
ATOM     30  C   UNL     1     -11.792  13.093  66.550  0.00  0.00    -0.002 A 
ATOM     31  C   UNL     1     -10.191  10.841  63.574  0.00  0.00    +0.012 A 
BRANCH  23  33
ATOM     32  N   UNL     1      -7.645   9.204  65.269  0.00  0.00    -0.191 NA
ATOM     33  C   UNL     1      -8.739   9.580  65.106  0.00  0.00    +0.100 C 
ENDBRANCH  23  33
ENDBRANCH  22  30
ENDBRANCH  21  22
ENDBRANCH  20  21
ENDBRANCH  19  20
ENDBRANCH   1  19
TORSDOF 8
ENDMDL
MODEL 5
REMARK VINA RESULT:      -7.7      5.592      7.900
REMARK  Name = 
REMARK  8 active torsions:
REMARK  status: ('A' for Active; 'I' for Inactive)
REMARK    1  A    between atoms: C_2  and  C_3
REMARK    2  A    between atoms: C_9  and  C_10
REMARK    3  A    between atoms: C_10  and  C_11
REMARK    4  A    between atoms: C_11  and  C_12
REMARK    5  A    between atoms: C_12  and  C_13
REMARK    6  A    between atoms: C_13  and  N_14
REMARK    7  A    between atoms: N_17  and  C_18
REMARK    8  A    between atoms: C_23  and  C_24
REMARK                            x       y       z     vdW  Elec       q    Type
REMARK                         _______ _______ _______ _____ _____    ______ ____
ROOT
ATOM      1  N   UNL     1      -8.983  10.254  68.141  0.00  0.00    -0.270 NA
ATOM      2  C   UNL     1      -8.908  11.542  67.492  0.00  0.00    +0.094 C 
ATOM      3  C   UNL     1     -10.167  11.681  66.643  0.00  0.00    +0.108 C 
ATOM      4  N   UNL     1     -11.279  11.629  67.592  0.00  0.00    -0.305 N 
ATOM      5  C   UNL     1     -11.438  10.330  68.249  0.00  0.00    +0.108 C 
ATOM      6  C   UNL     1     -10.129  10.106  68.997  0.00  0.00    +0.094 C 
ENDROOT
BRANCH   4   7
ATOM      7  C   UNL     1     -11.346  12.750  68.486  0.00  0.00    +0.048 A 
ATOM      8  C   UNL     1     -12.009  12.618  69.697  0.00  0.00    +0.018 A 
ATOM      9  C   UNL     1     -12.339  13.734  70.453  0.00  0.00    +0.039 A 
ATOM     10  C   UNL     1     -11.913  14.983  70.025  0.00  0.00    +0.146 A 
ATOM     11  O   UNL     1     -12.123  15.828  70.998  0.00  0.00    -0.449 OA
ATOM     12  C   UNL     1     -12.720  15.259  72.009  0.00  0.00    +0.202 A 
ATOM     13  C   UNL     1     -11.669  15.144  68.685  0.00  0.00    +0.039 A 
ATOM     14  C   UNL     1     -12.880  13.926  71.718  0.00  0.00    +0.045 A 
ATOM     15  C   UNL     1     -11.314  14.037  67.963  0.00  0.00    +0.018 A 
BRANCH  12  16
ATOM     16  C   UNL     1     -13.242  15.948  73.192  0.00  0.00    +0.319 C 
ATOM     17  O   UNL     1     -14.365  16.504  73.175  0.00  0.00    -0.263 OA
ATOM     18  N   UNL     1     -12.513  15.948  74.400  0.00  0.00    -0.081 NA
ENDBRANCH  12  16
ENDBRANCH   4   7
BRANCH   1  19
ATOM     19  C   UNL     1      -8.887   9.164  67.190  0.00  0.00    +0.072 C 
BRANCH  19  20
ATOM     20  C   UNL     1      -8.823   7.880  67.986  0.00  0.00    +0.018 C 
BRANCH  20  21
ATOM     21  C   UNL     1      -9.503   6.729  67.299  0.00  0.00    +0.006 C 
BRANCH  21  22
ATOM     22  C   UNL     1     -10.913   6.496  67.789  0.00  0.00    +0.028 C 
BRANCH  22  30
ATOM     23  C   UNL     1     -12.035   7.827  71.899  0.00  0.00    +0.069 A 
ATOM     24  C   UNL     1     -12.170   7.119  70.711  0.00  0.00    +0.012 A 
ATOM     25  C   UNL     1     -11.262   6.151  70.321  0.00  0.00    +0.016 A 
ATOM     26  C   UNL     1     -10.494   5.576  71.324  0.00  0.00    +0.081 A 
ATOM     27  N   UNL     1      -9.712   4.670  70.687  0.00  0.00    -0.244 NA
ATOM     28  C   UNL     1      -9.905   4.725  69.364  0.00  0.00    +0.095 A 
ATOM     29  C   UNL     1     -10.439   6.174  72.577  0.00  0.00    +0.020 A 
ATOM     30  C   UNL     1     -10.801   5.745  69.078  0.00  0.00    -0.002 A 
ATOM     31  C   UNL     1     -11.043   7.409  72.775  0.00  0.00    +0.012 A 
BRANCH  23  33
ATOM     32  N   UNL     1     -13.219  10.134  71.908  0.00  0.00    -0.191 NA
ATOM     33  C   UNL     1     -12.656   9.122  72.062  0.00  0.00    +0.100 C 
ENDBRANCH  23  33
ENDBRANCH  22  30
ENDBRANCH  21  22
ENDBRANCH  20  21
ENDBRANCH  19  20
ENDBRANCH   1  19
TORSDOF 8
ENDMDL
MODEL 6
REMARK VINA RESULT:      -7.5      2.040      3.452
REMARK  Name = 
REMARK  8 active torsions:
REMARK  status: ('A' for Active; 'I' for Inactive)
REMARK    1  A    between atoms: C_2  and  C_3
REMARK    2  A    between atoms: C_9  and  C_10
REMARK    3  A    between atoms: C_10  and  C_11
REMARK    4  A    between atoms: C_11  and  C_12
REMARK    5  A    between atoms: C_12  and  C_13
REMARK    6  A    between atoms: C_13  and  N_14
REMARK    7  A    between atoms: N_17  and  C_18
REMARK    8  A    between atoms: C_23  and  C_24
REMARK                            x       y       z     vdW  Elec       q    Type
REMARK                         _______ _______ _______ _____ _____    ______ ____
ROOT
ATOM      1  N   UNL     1      -9.435  15.964  66.836  0.00  0.00    -0.270 NA
ATOM      2  C   UNL     1      -9.128  17.072  65.961  0.00  0.00    +0.094 C 
ATOM      3  C   UNL     1     -10.086  18.200  66.327  0.00  0.00    +0.108 C 
ATOM      4  N   UNL     1      -9.783  18.525  67.721  0.00  0.00    -0.305 N 
ATOM      5  C   UNL     1     -10.119  17.459  68.665  0.00  0.00    +0.108 C 
ATOM      6  C   UNL     1      -9.268  16.269  68.232  0.00  0.00    +0.094 C 
ENDROOT
BRANCH   4   7
ATOM      7  C   UNL     1      -8.484  19.102  67.924  0.00  0.00    +0.048 A 
ATOM      8  C   UNL     1      -7.976  19.199  69.211  0.00  0.00    +0.018 A 
ATOM      9  C   UNL     1      -6.869  19.993  69.480  0.00  0.00    +0.039 A 
ATOM     10  C   UNL     1      -6.219  20.617  68.426  0.00  0.00    +0.146 A 
ATOM     11  O   UNL     1      -5.092  21.093  68.882  0.00  0.00    -0.449 OA
ATOM     12  C   UNL     1      -4.974  20.902  70.167  0.00  0.00    +0.202 A 
ATOM     13  C   UNL     1      -6.948  20.867  67.292  0.00  0.00    +0.039 A 
ATOM     14  C   UNL     1      -6.075  20.205  70.600  0.00  0.00    +0.045 A 
ATOM     15  C   UNL     1      -8.016  20.054  67.026  0.00  0.00    +0.018 A 
BRANCH  12  16
ATOM     16  C   UNL     1      -3.914  21.449  71.019  0.00  0.00    +0.319 C 
ATOM     17  O   UNL     1      -4.172  21.922  72.151  0.00  0.00    -0.263 OA
ATOM     18  N   UNL     1      -2.567  21.400  70.604  0.00  0.00    -0.081 NA
ENDBRANCH  12  16
ENDBRANCH   4   7
BRANCH   1  19
ATOM     19  C   UNL     1     -10.747  15.412  66.566  0.00  0.00    +0.072 C 
BRANCH  19  20
ATOM     20  C   UNL     1     -10.793  15.063  65.095  0.00  0.00    +0.018 C 
BRANCH  20  21
ATOM     21  C   UNL     1     -10.121  13.757  64.780  0.00  0.00    +0.006 C 
BRANCH  21  22
ATOM     22  C   UNL     1     -11.054  12.747  64.153  0.00  0.00    +0.028 C 
BRANCH  22  30
ATOM     23  C   UNL     1     -11.358  12.021  68.547  0.00  0.00    +0.069 A 
ATOM     24  C   UNL     1     -11.767  11.975  67.219  0.00  0.00    +0.012 A 
ATOM     25  C   UNL     1     -11.078  11.257  66.258  0.00  0.00    +0.016 A 
ATOM     26  C   UNL     1     -10.266  10.227  66.712  0.00  0.00    +0.081 A 
ATOM     27  N   UNL     1      -9.727   9.689  65.591  0.00  0.00    -0.244 NA
ATOM     28  C   UNL     1     -10.100  10.380  64.507  0.00  0.00    +0.095 A 
ATOM     29  C   UNL     1      -9.941  10.150  68.061  0.00  0.00    +0.020 A 
ATOM     30  C   UNL     1     -10.867  11.466  64.904  0.00  0.00    -0.002 A 
ATOM     31  C   UNL     1     -10.321  11.175  68.918  0.00  0.00    +0.012 A 
BRANCH  23  33
ATOM     32  N   UNL     1     -11.964  14.164  69.874  0.00  0.00    -0.191 NA
ATOM     33  C   UNL     1     -11.750  13.116  69.404  0.00  0.00    +0.100 C 
ENDBRANCH  23  33
ENDBRANCH  22  30
ENDBRANCH  21  22
ENDBRANCH  20  21
ENDBRANCH  19  20
ENDBRANCH   1  19
TORSDOF 8
ENDMDL
MODEL 7
REMARK VINA RESULT:      -7.4      3.671      6.629
REMARK  Name = 
REMARK  8 active torsions:
REMARK  status: ('A' for Active; 'I' for Inactive)
REMARK    1  A    between atoms: C_2  and  C_3
REMARK    2  A    between atoms: C_9  and  C_10
REMARK    3  A    between atoms: C_10  and  C_11
REMARK    4  A    between atoms: C_11  and  C_12
REMARK    5  A    between atoms: C_12  and  C_13
REMARK    6  A    between atoms: C_13  and  N_14
REMARK    7  A    between atoms: N_17  and  C_18
REMARK    8  A    between atoms: C_23  and  C_24
REMARK                            x       y       z     vdW  Elec       q    Type
REMARK                         _______ _______ _______ _____ _____    ______ ____
ROOT
ATOM      1  N   UNL     1     -10.064  10.942  67.491  0.00  0.00    -0.270 NA
ATOM      2  C   UNL     1     -10.240  11.418  66.139  0.00  0.00    +0.094 C 
ATOM      3  C   UNL     1     -11.699  11.845  66.010  0.00  0.00    +0.108 C 
ATOM      4  N   UNL     1     -11.870  12.927  66.980  0.00  0.00    -0.305 N 
ATOM      5  C   UNL     1     -11.751  12.497  68.375  0.00  0.00    +0.108 C 
ATOM      6  C   UNL     1     -10.338  11.937  68.493  0.00  0.00    +0.094 C 
ENDROOT
BRANCH   4   7
ATOM      7  C   UNL     1     -11.137  14.121  66.670  0.00  0.00    +0.048 A 
ATOM      8  C   UNL     1     -10.963  15.088  67.649  0.00  0.00    +0.018 A 
ATOM      9  C   UNL     1     -10.516  16.360  67.320  0.00  0.00    +0.039 A 
ATOM     10  C   UNL     1     -10.155  16.625  66.008  0.00  0.00    +0.146 A 
ATOM     11  O   UNL     1      -9.548  17.782  65.990  0.00  0.00    -0.449 OA
ATOM     12  C   UNL     1      -9.542  18.340  67.169  0.00  0.00    +0.202 A 
ATOM     13  C   UNL     1     -10.722  15.854  65.027  0.00  0.00    +0.039 A 
ATOM     14  C   UNL     1     -10.142  17.479  68.055  0.00  0.00    +0.045 A 
ATOM     15  C   UNL     1     -11.127  14.590  65.362  0.00  0.00    +0.018 A 
BRANCH  12  16
ATOM     16  C   UNL     1      -9.088  19.701  67.469  0.00  0.00    +0.319 C 
ATOM     17  O   UNL     1      -9.847  20.686  67.313  0.00  0.00    -0.263 OA
ATOM     18  N   UNL     1      -7.800  19.925  67.999  0.00  0.00    -0.081 NA
ENDBRANCH  12  16
ENDBRANCH   4   7
BRANCH   1  19
ATOM     19  C   UNL     1     -10.810   9.723  67.735  0.00  0.00    +0.072 C 
BRANCH  19  20
ATOM     20  C   UNL     1     -10.143   8.623  66.940  0.00  0.00    +0.018 C 
BRANCH  20  21
ATOM     21  C   UNL     1      -9.825   7.410  67.767  0.00  0.00    +0.006 C 
BRANCH  21  22
ATOM     22  C   UNL     1     -10.976   6.436  67.858  0.00  0.00    +0.028 C 
BRANCH  22  30
ATOM     23  C   UNL     1     -11.997   8.290  71.787  0.00  0.00    +0.069 A 
ATOM     24  C   UNL     1     -12.183   7.466  70.684  0.00  0.00    +0.012 A 
ATOM     25  C   UNL     1     -11.346   6.399  70.410  0.00  0.00    +0.016 A 
ATOM     26  C   UNL     1     -10.620   5.886  71.476  0.00  0.00    +0.081 A 
ATOM     27  N   UNL     1      -9.904   4.863  70.949  0.00  0.00    -0.244 NA
ATOM     28  C   UNL     1     -10.094   4.784  69.627  0.00  0.00    +0.095 A 
ATOM     29  C   UNL     1     -10.521   6.614  72.655  0.00  0.00    +0.020 A 
ATOM     30  C   UNL     1     -10.915   5.827  69.223  0.00  0.00    -0.002 A 
ATOM     31  C   UNL     1     -11.036   7.903  72.711  0.00  0.00    +0.012 A 
BRANCH  23  33
ATOM     32  N   UNL     1     -13.009  10.663  71.531  0.00  0.00    -0.191 NA
ATOM     33  C   UNL     1     -12.525   9.636  71.802  0.00  0.00    +0.100 C 
ENDBRANCH  23  33
ENDBRANCH  22  30
ENDBRANCH  21  22
ENDBRANCH  20  21
ENDBRANCH  19  20
ENDBRANCH   1  19
TORSDOF 8
ENDMDL
MODEL 8
REMARK VINA RESULT:      -7.3      1.850      2.977
REMARK  Name = 
REMARK  8 active torsions:
REMARK  status: ('A' for Active; 'I' for Inactive)
REMARK    1  A    between atoms: C_2  and  C_3
REMARK    2  A    between atoms: C_9  and  C_10
REMARK    3  A    between atoms: C_10  and  C_11
REMARK    4  A    between atoms: C_11  and  C_12
REMARK    5  A    between atoms: C_12  and  C_13
REMARK    6  A    between atoms: C_13  and  N_14
REMARK    7  A    between atoms: N_17  and  C_18
REMARK    8  A    between atoms: C_23  and  C_24
REMARK                            x       y       z     vdW  Elec       q    Type
REMARK                         _______ _______ _______ _____ _____    ______ ____
ROOT
ATOM      1  N   UNL     1      -9.597  15.286  67.067  0.00  0.00    -0.270 NA
ATOM      2  C   UNL     1      -9.306  16.219  66.004  0.00  0.00    +0.094 C 
ATOM      3  C   UNL     1     -10.343  17.333  66.101  0.00  0.00    +0.108 C 
ATOM      4  N   UNL     1     -10.131  17.942  67.414  0.00  0.00    -0.305 N 
ATOM      5  C   UNL     1     -10.456  17.061  68.537  0.00  0.00    +0.108 C 
ATOM      6  C   UNL     1      -9.520  15.867  68.381  0.00  0.00    +0.094 C 
ENDROOT
BRANCH   4   7
ATOM      7  C   UNL     1      -8.879  18.630  67.552  0.00  0.00    +0.048 A 
ATOM      8  C   UNL     1      -8.286  18.724  68.803  0.00  0.00    +0.018 A 
ATOM      9  C   UNL     1      -7.240  19.607  69.030  0.00  0.00    +0.039 A 
ATOM     10  C   UNL     1      -6.731  20.330  67.962  0.00  0.00    +0.146 A 
ATOM     11  O   UNL     1      -5.621  20.893  68.359  0.00  0.00    -0.449 OA
ATOM     12  C   UNL     1      -5.389  20.663  69.622  0.00  0.00    +0.202 A 
ATOM     13  C   UNL     1      -7.562  20.556  66.895  0.00  0.00    +0.039 A 
ATOM     14  C   UNL     1      -6.386  19.848  70.099  0.00  0.00    +0.045 A 
ATOM     15  C   UNL     1      -8.569  19.657  66.669  0.00  0.00    +0.018 A 
BRANCH  12  16
ATOM     16  C   UNL     1      -4.323  21.272  70.421  0.00  0.00    +0.319 C 
ATOM     17  O   UNL     1      -4.585  21.957  71.437  0.00  0.00    -0.263 OA
ATOM     18  N   UNL     1      -2.968  21.050  70.094  0.00  0.00    -0.081 NA
ENDBRANCH  12  16
ENDBRANCH   4   7
BRANCH   1  19
ATOM     19  C   UNL     1     -10.861  14.608  66.860  0.00  0.00    +0.072 C 
BRANCH  19  20
ATOM     20  C   UNL     1     -10.681  13.677  65.682  0.00  0.00    +0.018 C 
BRANCH  20  21
ATOM     21  C   UNL     1     -10.635  12.228  66.080  0.00  0.00    +0.006 C 
BRANCH  21  22
ATOM     22  C   UNL     1      -9.950  12.000  67.407  0.00  0.00    +0.028 C 
BRANCH  22  30
ATOM     23  C   UNL     1     -12.421  10.734  70.902  0.00  0.00    +0.069 A 
ATOM     24  C   UNL     1     -12.142  10.972  69.562  0.00  0.00    +0.012 A 
ATOM     25  C   UNL     1     -11.173  10.265  68.872  0.00  0.00    +0.016 A 
ATOM     26  C   UNL     1     -10.817   9.027  69.389  0.00  0.00    +0.081 A 
ATOM     27  N   UNL     1      -9.878   8.551  68.535  0.00  0.00    -0.244 NA
ATOM     28  C   UNL     1      -9.592   9.456  67.592  0.00  0.00    +0.095 A 
ATOM     29  C   UNL     1     -11.194   8.687  70.682  0.00  0.00    +0.020 A 
ATOM     30  C   UNL     1     -10.311  10.616  67.844  0.00  0.00    -0.002 A 
ATOM     31  C   UNL     1     -11.807   9.636  71.490  0.00  0.00    +0.012 A 
BRANCH  23  33
ATOM     32  N   UNL     1     -13.494  12.741  72.143  0.00  0.00    -0.191 NA
ATOM     33  C   UNL     1     -13.035  11.753  71.722  0.00  0.00    +0.100 C 
ENDBRANCH  23  33
ENDBRANCH  22  30
ENDBRANCH  21  22
ENDBRANCH  20  21
ENDBRANCH  19  20
ENDBRANCH   1  19
TORSDOF 8
ENDMDL
MODEL 9
REMARK VINA RESULT:      -7.3      4.207      6.666
REMARK  Name = 
REMARK  8 active torsions:
REMARK  status: ('A' for Active; 'I' for Inactive)
REMARK    1  A    between atoms: C_2  and  C_3
REMARK    2  A    between atoms: C_9  and  C_10
REMARK    3  A    between atoms: C_10  and  C_11
REMARK    4  A    between atoms: C_11  and  C_12
REMARK    5  A    between atoms: C_12  and  C_13
REMARK    6  A    between atoms: C_13  and  N_14
REMARK    7  A    between atoms: N_17  and  C_18
REMARK    8  A    between atoms: C_23  and  C_24
REMARK                            x       y       z     vdW  Elec       q    Type
REMARK                         _______ _______ _______ _____ _____    ______ ____
ROOT
ATOM      1  N   UNL     1      -8.165  10.877  67.564  0.00  0.00    -0.270 NA
ATOM      2  C   UNL     1      -8.600  11.041  66.197  0.00  0.00    +0.094 C 
ATOM      3  C   UNL     1     -10.116  10.875  66.195  0.00  0.00    +0.108 C 
ATOM      4  N   UNL     1     -10.622  11.952  67.046  0.00  0.00    -0.305 N 
ATOM      5  C   UNL     1     -10.256  11.815  68.456  0.00  0.00    +0.108 C 
ATOM      6  C   UNL     1      -8.731  11.841  68.469  0.00  0.00    +0.094 C 
ENDROOT
BRANCH   4   7
ATOM      7  C   UNL     1     -10.423  13.270  66.513  0.00  0.00    +0.048 A 
ATOM      8  C   UNL     1     -10.414  14.358  67.372  0.00  0.00    +0.018 A 
ATOM      9  C   UNL     1     -10.508  15.653  66.881  0.00  0.00    +0.039 A 
ATOM     10  C   UNL     1     -10.520  15.850  65.508  0.00  0.00    +0.146 A 
ATOM     11  O   UNL     1     -10.368  17.129  65.290  0.00  0.00    -0.449 OA
ATOM     12  C   UNL     1     -10.331  17.805  66.405  0.00  0.00    +0.202 A 
ATOM     13  C   UNL     1     -10.959  14.815  64.723  0.00  0.00    +0.039 A 
ATOM     14  C   UNL     1     -10.414  16.917  67.449  0.00  0.00    +0.045 A 
ATOM     15  C   UNL     1     -10.828  13.543  65.211  0.00  0.00    +0.018 A 
BRANCH  12  16
ATOM     16  C   UNL     1     -10.330  19.266  66.519  0.00  0.00    +0.319 C 
ATOM     17  O   UNL     1     -10.708  19.991  65.568  0.00  0.00    -0.263 OA
ATOM     18  N   UNL     1      -9.957  19.889  67.728  0.00  0.00    -0.081 NA
ENDBRANCH  12  16
ENDBRANCH   4   7
BRANCH   1  19
ATOM     19  C   UNL     1      -8.370   9.522  68.036  0.00  0.00    +0.072 C 
BRANCH  19  20
ATOM     20  C   UNL     1      -7.816   9.449  69.442  0.00  0.00    +0.018 C 
BRANCH  20  21
ATOM     21  C   UNL     1      -8.152   8.161  70.139  0.00  0.00    +0.006 C 
BRANCH  21  22
ATOM     22  C   UNL     1      -8.971   8.362  71.393  0.00  0.00    +0.028 C 
BRANCH  22  30
ATOM     23  C   UNL     1     -13.018  10.241  71.543  0.00  0.00    +0.069 A 
ATOM     24  C   UNL     1     -11.887   9.703  70.940  0.00  0.00    +0.012 A 
ATOM     25  C   UNL     1     -11.532   8.374  71.087  0.00  0.00    +0.016 A 
ATOM     26  C   UNL     1     -12.544   7.495  71.447  0.00  0.00    +0.081 A 
ATOM     27  N   UNL     1     -11.943   6.282  71.512  0.00  0.00    -0.244 NA
ATOM     28  C   UNL     1     -10.628   6.392  71.294  0.00  0.00    +0.095 A 
ATOM     29  C   UNL     1     -13.749   7.992  71.928  0.00  0.00    +0.020 A 
ATOM     30  C   UNL     1     -10.305   7.733  71.139  0.00  0.00    -0.002 A 
ATOM     31  C   UNL     1     -13.883   9.353  72.168  0.00  0.00    +0.012 A 
BRANCH  23  33
ATOM     32  N   UNL     1     -13.454  12.730  72.121  0.00  0.00    -0.191 NA
ATOM     33  C   UNL     1     -13.113  11.660  71.803  0.00  0.00    +0.100 C 
ENDBRANCH  23  33
ENDBRANCH  22  30
ENDBRANCH  21  22
ENDBRANCH  20  21
ENDBRANCH  19  20
ENDBRANCH   1  19
TORSDOF 8
ENDMDL
