MODEL 1
REMARK VINA RESULT:      -6.7      0.000      0.000
REMARK  Name = 
REMARK  4 active torsions:
REMARK  status: ('A' for Active; 'I' for Inactive)
REMARK    1  A    between atoms: C_2  and  C_3
REMARK    2  A    between atoms: C_10  and  C_11
REMARK    3  A    between atoms: C_11  and  C_13
REMARK    4  A    between atoms: C_20  and  O_21
REMARK                            x       y       z     vdW  Elec       q    Type
REMARK                         _______ _______ _______ _____ _____    ______ ____
ROOT
ATOM      1  C   UNL     1      -9.249  14.956  68.014  0.00  0.00    +0.189 C 
ATOM      2  O   UNL     1      -8.415  14.378  66.890  0.00  0.00    -0.217 OA
ENDROOT
BRANCH   1   3
ATOM      3  C   UNL     1     -10.493  13.952  67.878  0.00  0.00    +0.012 A 
ATOM      4  C   UNL     1     -11.336  13.735  68.892  0.00  0.00    +0.019 A 
ATOM      5  C   UNL     1     -11.982  12.502  68.966  0.00  0.00    +0.081 A 
ATOM      6  C   UNL     1     -12.235  12.060  70.260  0.00  0.00    +0.022 A 
ATOM      7  C   UNL     1     -12.530  13.066  71.180  0.00  0.00    +0.038 A 
ATOM      8  C   UNL     1     -12.433  14.413  70.836  0.00  0.00    +0.139 A 
ATOM      9  N   UNL     1     -11.929  11.730  67.888  0.00  0.00    -0.244 NA
ATOM     10  C   UNL     1     -11.659  12.340  66.703  0.00  0.00    +0.099 A 
ATOM     11  C   UNL     1     -11.505  14.731  69.847  0.00  0.00    +0.038 A 
ATOM     12  C   UNL     1     -10.711  13.362  66.672  0.00  0.00    +0.019 A 
BRANCH   8  13
ATOM     13  O   UNL     1     -13.440  15.302  71.240  0.00  0.00    -0.471 OA
ATOM     14  C   UNL     1     -14.686  14.818  71.740  0.00  0.00    +0.252 C 
ENDBRANCH   8  13
ENDBRANCH   1   3
BRANCH   1  18
ATOM     15  C   UNL     1      -7.713  17.802  68.067  0.00  0.00    +0.038 C 
ATOM     16  C   UNL     1      -9.099  17.558  67.132  0.00  0.00    +0.008 C 
ATOM     17  C   UNL     1      -8.596  16.467  66.111  0.00  0.00    +0.019 C 
ATOM     18  C   UNL     1     -10.000  16.055  66.939  0.00  0.00    +0.092 C 
ATOM     19  N   UNL     1     -10.132  17.154  68.061  0.00  0.00    -0.271 NA
ATOM     20  C   UNL     1     -10.412  18.460  67.396  0.00  0.00    +0.072 C 
ATOM     21  C   UNL     1      -9.273  18.930  66.371  0.00  0.00    +0.018 C 
ATOM     22  C   UNL     1      -8.956  17.151  68.969  0.00  0.00    +0.076 C 
BRANCH  15  24
ATOM     23  C   UNL     1      -7.052  19.787  69.118  0.00  0.00    -0.005 C 
ATOM     24  C   UNL     1      -8.104  19.316  68.462  0.00  0.00    -0.025 C 
ENDBRANCH  15  24
ENDBRANCH   1  18
TORSDOF 4
ENDMDL
MODEL 2
REMARK VINA RESULT:      -6.5      2.461      4.230
REMARK  Name = 
REMARK  4 active torsions:
REMARK  status: ('A' for Active; 'I' for Inactive)
REMARK    1  A    between atoms: C_2  and  C_3
REMARK    2  A    between atoms: C_10  and  C_11
REMARK    3  A    between atoms: C_11  and  C_13
REMARK    4  A    between atoms: C_20  and  O_21
REMARK                            x       y       z     vdW  Elec       q    Type
REMARK                         _______ _______ _______ _____ _____    ______ ____
ROOT
ATOM      1  C   UNL     1      -9.453  16.593  66.159  0.00  0.00    +0.189 C 
ATOM      2  O   UNL     1     -10.429  16.803  65.020  0.00  0.00    -0.217 OA
ENDROOT
BRANCH   1   3
ATOM      3  C   UNL     1     -10.196  15.340  66.831  0.00  0.00    +0.012 A 
ATOM      4  C   UNL     1     -10.732  14.362  66.096  0.00  0.00    +0.019 A 
ATOM      5  C   UNL     1     -11.823  13.664  66.611  0.00  0.00    +0.081 A 
ATOM      6  C   UNL     1     -12.730  13.224  65.654  0.00  0.00    +0.022 A 
ATOM      7  C   UNL     1     -12.167  12.848  64.435  0.00  0.00    +0.038 A 
ATOM      8  C   UNL     1     -10.812  13.042  64.173  0.00  0.00    +0.139 A 
ATOM      9  N   UNL     1     -12.087  13.830  67.902  0.00  0.00    -0.244 NA
ATOM     10  C   UNL     1     -11.073  14.279  68.688  0.00  0.00    +0.099 A 
ATOM     11  C   UNL     1     -10.203  14.105  64.836  0.00  0.00    +0.038 A 
ATOM     12  C   UNL     1     -10.218  15.263  68.190  0.00  0.00    +0.019 A 
BRANCH   8  13
ATOM     13  O   UNL     1     -10.079  12.026  63.544  0.00  0.00    -0.471 OA
ATOM     14  C   UNL     1     -10.102  10.690  64.044  0.00  0.00    +0.252 C 
ENDBRANCH   8  13
ENDBRANCH   1   3
BRANCH   1  18
ATOM     15  C   UNL     1      -8.086  19.524  66.128  0.00  0.00    +0.038 C 
ATOM     16  C   UNL     1      -9.435  19.184  67.087  0.00  0.00    +0.008 C 
ATOM     17  C   UNL     1     -10.522  18.865  65.990  0.00  0.00    +0.019 C 
ATOM     18  C   UNL     1     -10.334  17.669  67.157  0.00  0.00    +0.092 C 
ATOM     19  N   UNL     1      -9.037  18.091  67.948  0.00  0.00    -0.271 NA
ATOM     20  C   UNL     1      -9.340  19.349  68.690  0.00  0.00    +0.072 C 
ATOM     21  C   UNL     1      -9.771  20.575  67.752  0.00  0.00    +0.018 C 
ATOM     22  C   UNL     1      -7.851  18.158  67.055  0.00  0.00    +0.076 C 
BRANCH  15  24
ATOM     23  C   UNL     1      -6.265  20.890  66.676  0.00  0.00    -0.005 C 
ATOM     24  C   UNL     1      -7.404  20.490  67.224  0.00  0.00    -0.025 C 
ENDBRANCH  15  24
ENDBRANCH   1  18
TORSDOF 4
ENDMDL
MODEL 3
REMARK VINA RESULT:      -6.4      2.929      7.179
REMARK  Name = 
REMARK  4 active torsions:
REMARK  status: ('A' for Active; 'I' for Inactive)
REMARK    1  A    between atoms: C_2  and  C_3
REMARK    2  A    between atoms: C_10  and  C_11
REMARK    3  A    between atoms: C_11  and  C_13
REMARK    4  A    between atoms: C_20  and  O_21
REMARK                            x       y       z     vdW  Elec       q    Type
REMARK                         _______ _______ _______ _____ _____    ______ ____
ROOT
ATOM      1  C   UNL     1      -8.868  19.164  68.092  0.00  0.00    +0.189 C 
ATOM      2  O   UNL     1      -9.708  20.299  67.545  0.00  0.00    -0.217 OA
ENDROOT
BRANCH   1   3
ATOM      3  C   UNL     1      -7.432  19.820  67.804  0.00  0.00    +0.012 A 
ATOM      4  C   UNL     1      -6.437  19.755  68.694  0.00  0.00    +0.019 A 
ATOM      5  C   UNL     1      -5.486  20.773  68.703  0.00  0.00    +0.081 A 
ATOM      6  C   UNL     1      -4.960  21.061  69.958  0.00  0.00    +0.022 A 
ATOM      7  C   UNL     1      -4.823  19.963  70.806  0.00  0.00    +0.038 A 
ATOM      8  C   UNL     1      -5.314  18.707  70.451  0.00  0.00    +0.139 A 
ATOM      9  N   UNL     1      -5.474  21.593  67.659  0.00  0.00    -0.244 NA
ATOM     10  C   UNL     1      -6.046  21.142  66.511  0.00  0.00    +0.099 A 
ATOM     11  C   UNL     1      -6.413  18.696  69.595  0.00  0.00    +0.038 A 
ATOM     12  C   UNL     1      -7.226  20.402  66.592  0.00  0.00    +0.019 A 
BRANCH   8  13
ATOM     13  O   UNL     1      -4.533  17.568  70.691  0.00  0.00    -0.471 OA
ATOM     14  C   UNL     1      -5.114  16.265  70.675  0.00  0.00    +0.252 C 
ENDBRANCH   8  13
ENDBRANCH   1   3
BRANCH   1  18
ATOM     15  C   UNL     1     -10.895  16.645  68.063  0.00  0.00    +0.038 C 
ATOM     16  C   UNL     1      -9.932  17.025  66.728  0.00  0.00    +0.008 C 
ATOM     17  C   UNL     1     -10.506  18.438  66.325  0.00  0.00    +0.019 C 
ATOM     18  C   UNL     1      -8.841  18.400  66.562  0.00  0.00    +0.092 C 
ATOM     19  N   UNL     1      -8.567  16.987  67.206  0.00  0.00    -0.271 NA
ATOM     20  C   UNL     1      -8.864  15.947  66.179  0.00  0.00    +0.072 C 
ATOM     21  C   UNL     1     -10.375  15.966  65.644  0.00  0.00    +0.018 C 
ATOM     22  C   UNL     1      -9.293  16.824  68.492  0.00  0.00    +0.076 C 
BRANCH  15  24
ATOM     23  C   UNL     1     -11.593  14.512  68.732  0.00  0.00    -0.005 C 
ATOM     24  C   UNL     1     -10.751  15.051  67.861  0.00  0.00    -0.025 C 
ENDBRANCH  15  24
ENDBRANCH   1  18
TORSDOF 4
ENDMDL
MODEL 4
REMARK VINA RESULT:      -6.4      1.332      1.553
REMARK  Name = 
REMARK  4 active torsions:
REMARK  status: ('A' for Active; 'I' for Inactive)
REMARK    1  A    between atoms: C_2  and  C_3
REMARK    2  A    between atoms: C_10  and  C_11
REMARK    3  A    between atoms: C_11  and  C_13
REMARK    4  A    between atoms: C_20  and  O_21
REMARK                            x       y       z     vdW  Elec       q    Type
REMARK                         _______ _______ _______ _____ _____    ______ ____
ROOT
ATOM      1  C   UNL     1      -8.633  15.952  67.872  0.00  0.00    +0.189 C 
ATOM      2  O   UNL     1      -7.906  15.010  66.936  0.00  0.00    -0.217 OA
ENDROOT
BRANCH   1   3
ATOM      3  C   UNL     1     -10.100  15.330  67.684  0.00  0.00    +0.012 A 
ATOM      4  C   UNL     1     -10.873  15.019  68.729  0.00  0.00    +0.019 A 
ATOM      5  C   UNL     1     -11.803  13.991  68.586  0.00  0.00    +0.081 A 
ATOM      6  C   UNL     1     -12.039  13.260  69.745  0.00  0.00    +0.022 A 
ATOM      7  C   UNL     1     -11.979  13.996  70.928  0.00  0.00    +0.038 A 
ATOM      8  C   UNL     1     -11.573  15.329  70.933  0.00  0.00    +0.139 A 
ATOM      9  N   UNL     1     -12.050  13.573  67.350  0.00  0.00    -0.244 NA
ATOM     10  C   UNL     1     -11.745  14.425  66.336  0.00  0.00    +0.099 A 
ATOM     11  C   UNL     1     -10.691  15.708  69.923  0.00  0.00    +0.038 A 
ATOM     12  C   UNL     1     -10.573  15.178  66.417  0.00  0.00    +0.019 A 
BRANCH   8  13
ATOM     13  O   UNL     1     -12.277  16.261  71.709  0.00  0.00    -0.471 OA
ATOM     14  C   UNL     1     -12.911  15.871  72.926  0.00  0.00    +0.252 C 
ENDBRANCH   8  13
ENDBRANCH   1   3
BRANCH   1  18
ATOM     15  C   UNL     1      -6.641  18.488  68.110  0.00  0.00    +0.038 C 
ATOM     16  C   UNL     1      -7.818  18.394  66.902  0.00  0.00    +0.008 C 
ATOM     17  C   UNL     1      -7.322  17.140  66.083  0.00  0.00    +0.019 C 
ATOM     18  C   UNL     1      -8.922  17.054  66.595  0.00  0.00    +0.092 C 
ATOM     19  N   UNL     1      -9.081  18.262  67.595  0.00  0.00    -0.271 NA
ATOM     20  C   UNL     1      -8.965  19.526  66.812  0.00  0.00    +0.072 C 
ATOM     21  C   UNL     1      -7.567  19.696  66.045  0.00  0.00    +0.018 C 
ATOM     22  C   UNL     1      -8.145  18.147  68.743  0.00  0.00    +0.076 C 
BRANCH  15  24
ATOM     23  C   UNL     1      -6.015  20.385  69.332  0.00  0.00    -0.005 C 
ATOM     24  C   UNL     1      -6.816  20.077  68.322  0.00  0.00    -0.025 C 
ENDBRANCH  15  24
ENDBRANCH   1  18
TORSDOF 4
ENDMDL
MODEL 5
REMARK VINA RESULT:      -6.4      3.378      5.096
REMARK  Name = 
REMARK  4 active torsions:
REMARK  status: ('A' for Active; 'I' for Inactive)
REMARK    1  A    between atoms: C_2  and  C_3
REMARK    2  A    between atoms: C_10  and  C_11
REMARK    3  A    between atoms: C_11  and  C_13
REMARK    4  A    between atoms: C_20  and  O_21
REMARK                            x       y       z     vdW  Elec       q    Type
REMARK                         _______ _______ _______ _____ _____    ______ ____
ROOT
ATOM      1  C   UNL     1      -9.756  10.951  66.841  0.00  0.00    +0.189 C 
ATOM      2  O   UNL     1      -8.661  10.375  65.969  0.00  0.00    -0.217 OA
ENDROOT
BRANCH   1   3
ATOM      3  C   UNL     1     -10.280   9.562  67.449  0.00  0.00    +0.012 A 
ATOM      4  C   UNL     1     -10.726   9.467  68.705  0.00  0.00    +0.019 A 
ATOM      5  C   UNL     1     -10.600   8.247  69.365  0.00  0.00    +0.081 A 
ATOM      6  C   UNL     1     -10.395   8.350  70.736  0.00  0.00    +0.022 A 
ATOM      7  C   UNL     1     -11.047   9.418  71.351  0.00  0.00    +0.038 A 
ATOM      8  C   UNL     1     -11.731  10.376  70.605  0.00  0.00    +0.139 A 
ATOM      9  N   UNL     1     -10.297   7.190  68.620  0.00  0.00    -0.244 NA
ATOM     10  C   UNL     1     -10.562   7.274  67.290  0.00  0.00    +0.099 A 
ATOM     11  C   UNL     1     -11.264  10.598  69.312  0.00  0.00    +0.038 A 
ATOM     12  C   UNL     1     -10.318   8.478  66.628  0.00  0.00    +0.019 A 
BRANCH   8  13
ATOM     13  O   UNL     1     -12.987  10.821  71.040  0.00  0.00    -0.471 OA
ATOM     14  C   UNL     1     -13.115  12.015  71.810  0.00  0.00    +0.252 C 
ENDBRANCH   8  13
ENDBRANCH   1   3
BRANCH   1  18
ATOM     15  C   UNL     1     -10.050  13.801  65.342  0.00  0.00    +0.038 C 
ATOM     16  C   UNL     1     -10.982  12.464  64.897  0.00  0.00    +0.008 C 
ATOM     17  C   UNL     1      -9.870  11.471  64.382  0.00  0.00    +0.019 C 
ATOM     18  C   UNL     1     -10.886  10.834  65.562  0.00  0.00    +0.092 C 
ATOM     19  N   UNL     1     -11.702  12.074  66.089  0.00  0.00    -0.271 NA
ATOM     20  C   UNL     1     -12.591  12.543  64.987  0.00  0.00    +0.072 C 
ATOM     21  C   UNL     1     -11.810  12.990  63.661  0.00  0.00    +0.018 C 
ATOM     22  C   UNL     1     -10.807  13.114  66.659  0.00  0.00    +0.076 C 
BRANCH  15  24
ATOM     23  C   UNL     1     -10.705  16.050  65.328  0.00  0.00    -0.005 C 
ATOM     24  C   UNL     1     -11.243  14.860  65.100  0.00  0.00    -0.025 C 
ENDBRANCH  15  24
ENDBRANCH   1  18
TORSDOF 4
ENDMDL
MODEL 6
REMARK VINA RESULT:      -6.4      2.241      4.436
REMARK  Name = 
REMARK  4 active torsions:
REMARK  status: ('A' for Active; 'I' for Inactive)
REMARK    1  A    between atoms: C_2  and  C_3
REMARK    2  A    between atoms: C_10  and  C_11
REMARK    3  A    between atoms: C_11  and  C_13
REMARK    4  A    between atoms: C_20  and  O_21
REMARK                            x       y       z     vdW  Elec       q    Type
REMARK                         _______ _______ _______ _____ _____    ______ ____
ROOT
ATOM      1  C   UNL     1      -9.952  17.503  67.086  0.00  0.00    +0.189 C 
ATOM      2  O   UNL     1     -10.915  18.384  67.853  0.00  0.00    -0.217 OA
ENDROOT
BRANCH   1   3
ATOM      3  C   UNL     1     -10.480  16.094  67.644  0.00  0.00    +0.012 A 
ATOM      4  C   UNL     1     -10.862  15.111  66.823  0.00  0.00    +0.019 A 
ATOM      5  C   UNL     1     -11.823  14.207  67.272  0.00  0.00    +0.081 A 
ATOM      6  C   UNL     1     -12.659  13.713  66.277  0.00  0.00    +0.022 A 
ATOM      7  C   UNL     1     -12.056  13.539  65.032  0.00  0.00    +0.038 A 
ATOM      8  C   UNL     1     -10.751  13.967  64.793  0.00  0.00    +0.139 A 
ATOM      9  N   UNL     1     -12.098  14.217  68.571  0.00  0.00    -0.244 NA
ATOM     10  C   UNL     1     -11.160  14.751  69.397  0.00  0.00    +0.099 A 
ATOM     11  C   UNL     1     -10.311  15.051  65.548  0.00  0.00    +0.038 A 
ATOM     12  C   UNL     1     -10.476  15.897  68.990  0.00  0.00    +0.019 A 
BRANCH   8  13
ATOM     13  O   UNL     1      -9.873  13.138  64.081  0.00  0.00    -0.471 OA
ATOM     14  C   UNL     1     -10.346  11.963  63.424  0.00  0.00    +0.252 C 
ENDBRANCH   8  13
ENDBRANCH   1   3
BRANCH   1  18
ATOM     15  C   UNL     1      -7.420  19.302  66.185  0.00  0.00    +0.038 C 
ATOM     16  C   UNL     1      -7.474  18.537  67.690  0.00  0.00    +0.008 C 
ATOM     17  C   UNL     1      -8.697  19.269  68.365  0.00  0.00    +0.019 C 
ATOM     18  C   UNL     1      -8.806  17.591  68.354  0.00  0.00    +0.092 C 
ATOM     19  N   UNL     1      -7.634  17.127  67.407  0.00  0.00    -0.271 NA
ATOM     20  C   UNL     1      -6.343  17.454  68.078  0.00  0.00    +0.072 C 
ATOM     21  C   UNL     1      -6.143  19.013  68.391  0.00  0.00    +0.018 C 
ATOM     22  C   UNL     1      -7.787  17.682  66.037  0.00  0.00    +0.076 C 
BRANCH  15  24
ATOM     23  C   UNL     1      -5.680  18.866  64.679  0.00  0.00    -0.005 C 
ATOM     24  C   UNL     1      -5.840  19.051  65.983  0.00  0.00    -0.025 C 
ENDBRANCH  15  24
ENDBRANCH   1  18
TORSDOF 4
ENDMDL
MODEL 7
REMARK VINA RESULT:      -6.3      4.697      8.439
REMARK  Name = 
REMARK  4 active torsions:
REMARK  status: ('A' for Active; 'I' for Inactive)
REMARK    1  A    between atoms: C_2  and  C_3
REMARK    2  A    between atoms: C_10  and  C_11
REMARK    3  A    between atoms: C_11  and  C_13
REMARK    4  A    between atoms: C_20  and  O_21
REMARK                            x       y       z     vdW  Elec       q    Type
REMARK                         _______ _______ _______ _____ _____    ______ ____
ROOT
ATOM      1  C   UNL     1      -9.964   9.047  70.553  0.00  0.00    +0.189 C 
ATOM      2  O   UNL     1      -9.677   8.786  72.016  0.00  0.00    -0.217 OA
ENDROOT
BRANCH   1   3
ATOM      3  C   UNL     1     -11.314   9.889  70.760  0.00  0.00    +0.012 A 
ATOM      4  C   UNL     1     -11.620  10.933  69.984  0.00  0.00    +0.019 A 
ATOM      5  C   UNL     1     -12.407  11.950  70.518  0.00  0.00    +0.081 A 
ATOM      6  C   UNL     1     -12.124  13.219  70.025  0.00  0.00    +0.022 A 
ATOM      7  C   UNL     1     -11.736  13.258  68.686  0.00  0.00    +0.038 A 
ATOM      8  C   UNL     1     -11.521  12.088  67.959  0.00  0.00    +0.139 A 
ATOM      9  N   UNL     1     -13.026  11.693  71.664  0.00  0.00    -0.244 NA
ATOM     10  C   UNL     1     -13.208  10.385  71.988  0.00  0.00    +0.099 A 
ATOM     11  C   UNL     1     -11.110  10.976  68.691  0.00  0.00    +0.038 A 
ATOM     12  C   UNL     1     -12.185   9.475  71.720  0.00  0.00    +0.019 A 
BRANCH   8  13
ATOM     13  O   UNL     1     -12.010  11.991  66.649  0.00  0.00    -0.471 OA
ATOM     14  C   UNL     1     -12.092  13.142  65.810  0.00  0.00    +0.252 C 
ENDBRANCH   8  13
ENDBRANCH   1   3
BRANCH   1  18
ATOM     15  C   UNL     1      -8.220   6.752  69.086  0.00  0.00    +0.038 C 
ATOM     16  C   UNL     1      -9.818   6.483  69.565  0.00  0.00    +0.008 C 
ATOM     17  C   UNL     1      -9.697   6.613  71.133  0.00  0.00    +0.019 C 
ATOM     18  C   UNL     1     -10.869   7.599  70.436  0.00  0.00    +0.092 C 
ATOM     19  N   UNL     1     -10.605   7.489  68.886  0.00  0.00    -0.271 NA
ATOM     20  C   UNL     1     -10.930   6.097  68.462  0.00  0.00    +0.072 C 
ATOM     21  C   UNL     1     -10.060   4.968  69.195  0.00  0.00    +0.018 C 
ATOM     22  C   UNL     1      -9.238   7.951  68.531  0.00  0.00    +0.076 C 
BRANCH  15  24
ATOM     23  C   UNL     1      -7.541   6.470  66.863  0.00  0.00    -0.005 C 
ATOM     24  C   UNL     1      -8.357   5.888  67.731  0.00  0.00    -0.025 C 
ENDBRANCH  15  24
ENDBRANCH   1  18
TORSDOF 4
ENDMDL
MODEL 8
REMARK VINA RESULT:      -6.3      2.439      3.735
REMARK  Name = 
REMARK  4 active torsions:
REMARK  status: ('A' for Active; 'I' for Inactive)
REMARK    1  A    between atoms: C_2  and  C_3
REMARK    2  A    between atoms: C_10  and  C_11
REMARK    3  A    between atoms: C_11  and  C_13
REMARK    4  A    between atoms: C_20  and  O_21
REMARK                            x       y       z     vdW  Elec       q    Type
REMARK                         _______ _______ _______ _____ _____    ______ ____
ROOT
ATOM      1  C   UNL     1     -10.605  12.840  68.669  0.00  0.00    +0.189 C 
ATOM      2  O   UNL     1      -9.664  11.656  68.588  0.00  0.00    -0.217 OA
ENDROOT
BRANCH   1   3
ATOM      3  C   UNL     1     -11.728  12.142  69.578  0.00  0.00    +0.012 A 
ATOM      4  C   UNL     1     -12.438  12.834  70.474  0.00  0.00    +0.019 A 
ATOM      5  C   UNL     1     -12.923  12.166  71.596  0.00  0.00    +0.081 A 
ATOM      6  C   UNL     1     -12.996  12.945  72.746  0.00  0.00    +0.022 A 
ATOM      7  C   UNL     1     -13.319  14.284  72.530  0.00  0.00    +0.038 A 
ATOM      8  C   UNL     1     -13.416  14.808  71.243  0.00  0.00    +0.139 A 
ATOM      9  N   UNL     1     -12.883  10.838  71.570  0.00  0.00    -0.244 NA
ATOM     10  C   UNL     1     -12.803  10.247  70.348  0.00  0.00    +0.099 A 
ATOM     11  C   UNL     1     -12.632  14.195  70.268  0.00  0.00    +0.038 A 
ATOM     12  C   UNL     1     -11.990  10.823  69.372  0.00  0.00    +0.019 A 
BRANCH   8  13
ATOM     13  O   UNL     1     -14.478  15.668  70.927  0.00  0.00    -0.471 OA
ATOM     14  C   UNL     1     -15.826  15.304  71.219  0.00  0.00    +0.252 C 
ENDBRANCH   8  13
ENDBRANCH   1   3
BRANCH   1  18
ATOM     15  C   UNL     1      -9.772  14.717  66.171  0.00  0.00    +0.038 C 
ATOM     16  C   UNL     1     -10.916  13.484  66.012  0.00  0.00    +0.008 C 
ATOM     17  C   UNL     1     -10.037  12.207  66.301  0.00  0.00    +0.019 C 
ATOM     18  C   UNL     1     -11.419  12.335  67.251  0.00  0.00    +0.092 C 
ATOM     19  N   UNL     1     -11.956  13.790  66.969  0.00  0.00    -0.271 NA
ATOM     20  C   UNL     1     -12.421  13.843  65.553  0.00  0.00    +0.072 C 
ATOM     21  C   UNL     1     -11.279  13.518  64.477  0.00  0.00    +0.018 C 
ATOM     22  C   UNL     1     -10.955  14.823  67.341  0.00  0.00    +0.076 C 
BRANCH  15  24
ATOM     23  C   UNL     1     -10.393  16.927  65.710  0.00  0.00    -0.005 C 
ATOM     24  C   UNL     1     -10.545  15.723  65.175  0.00  0.00    -0.025 C 
ENDBRANCH  15  24
ENDBRANCH   1  18
TORSDOF 4
ENDMDL
MODEL 9
REMARK VINA RESULT:      -6.2      4.190      7.961
REMARK  Name = 
REMARK  4 active torsions:
REMARK  status: ('A' for Active; 'I' for Inactive)
REMARK    1  A    between atoms: C_2  and  C_3
REMARK    2  A    between atoms: C_10  and  C_11
REMARK    3  A    between atoms: C_11  and  C_13
REMARK    4  A    between atoms: C_20  and  O_21
REMARK                            x       y       z     vdW  Elec       q    Type
REMARK                         _______ _______ _______ _____ _____    ______ ____
ROOT
ATOM      1  C   UNL     1      -9.542  10.045  68.092  0.00  0.00    +0.189 C 
ATOM      2  O   UNL     1      -8.724  10.024  69.366  0.00  0.00    -0.217 OA
ENDROOT
BRANCH   1   3
ATOM      3  C   UNL     1     -10.753  10.940  68.645  0.00  0.00    +0.012 A 
ATOM      4  C   UNL     1     -11.345  11.869  67.889  0.00  0.00    +0.019 A 
ATOM      5  C   UNL     1     -11.919  12.972  68.518  0.00  0.00    +0.081 A 
ATOM      6  C   UNL     1     -11.866  14.150  67.780  0.00  0.00    +0.022 A 
ATOM      7  C   UNL     1     -11.983  13.987  66.400  0.00  0.00    +0.038 A 
ATOM      8  C   UNL     1     -12.007  12.720  65.820  0.00  0.00    +0.139 A 
ATOM      9  N   UNL     1     -12.081  12.896  69.834  0.00  0.00    -0.244 NA
ATOM     10  C   UNL     1     -12.098  11.654  70.384  0.00  0.00    +0.099 A 
ATOM     11  C   UNL     1     -11.331  11.715  66.507  0.00  0.00    +0.038 A 
ATOM     12  C   UNL     1     -11.213  10.690  69.901  0.00  0.00    +0.019 A 
BRANCH   8  13
ATOM     13  O   UNL     1     -12.928  12.448  64.798  0.00  0.00    -0.471 OA
ATOM     14  C   UNL     1     -12.486  12.054  63.500  0.00  0.00    +0.252 C 
ENDBRANCH   8  13
ENDBRANCH   1   3
BRANCH   1  18
ATOM     15  C   UNL     1      -8.215   7.468  66.659  0.00  0.00    +0.038 C 
ATOM     16  C   UNL     1      -9.576   7.329  67.650  0.00  0.00    +0.008 C 
ATOM     17  C   UNL     1      -8.991   7.781  69.043  0.00  0.00    +0.019 C 
ATOM     18  C   UNL     1     -10.366   8.619  68.556  0.00  0.00    +0.092 C 
ATOM     19  N   UNL     1     -10.581   8.184  67.057  0.00  0.00    -0.271 NA
ATOM     20  C   UNL     1     -10.951   6.739  67.045  0.00  0.00    +0.072 C 
ATOM     21  C   UNL     1      -9.844   5.774  67.688  0.00  0.00    +0.018 C 
ATOM     22  C   UNL     1      -9.412   8.540  66.212  0.00  0.00    +0.076 C 
BRANCH  15  24
ATOM     23  C   UNL     1      -8.061   6.595  64.491  0.00  0.00    -0.005 C 
ATOM     24  C   UNL     1      -8.715   6.342  65.616  0.00  0.00    -0.025 C 
ENDBRANCH  15  24
ENDBRANCH   1  18
TORSDOF 4
ENDMDL
