MODEL 1
REMARK VINA RESULT:      -7.4      0.000      0.000
REMARK  Name = 
REMARK  6 active torsions:
REMARK  status: ('A' for Active; 'I' for Inactive)
REMARK    1  A    between atoms: C_5  and  C_6
REMARK    2  A    between atoms: C_6  and  C_14
REMARK    3  A    between atoms: C_7  and  C_8
REMARK    4  A    between atoms: C_8  and  N_9
REMARK    5  A    between atoms: C_18  and  C_19
REMARK    6  A    between atoms: C_20  and  C_21
REMARK                            x       y       z     vdW  Elec       q    Type
REMARK                         _______ _______ _______ _____ _____    ______ ____
ROOT
ATOM      1  C   UNL     1     -10.523  16.649  66.268  0.00  0.00    +0.015 C 
ATOM      2  C   UNL     1     -10.778  16.043  65.117  0.00  0.00    -0.007 C 
ENDROOT
BRANCH   1   7
ATOM      3  C   UNL     1      -7.095  19.642  69.057  0.00  0.00    +0.031 C 
ATOM      4  C   UNL     1      -7.948  19.450  67.853  0.00  0.00    -0.022 A 
ATOM      5  C   UNL     1      -9.314  19.709  67.886  0.00  0.00    -0.004 A 
ATOM      6  C   UNL     1     -10.212  18.924  67.175  0.00  0.00    -0.000 A 
ATOM      7  C   UNL     1      -9.761  17.903  66.348  0.00  0.00    +0.001 A 
ATOM      8  C   UNL     1      -8.402  17.883  66.101  0.00  0.00    -0.000 A 
ATOM      9  C   UNL     1      -7.515  18.744  66.738  0.00  0.00    -0.004 A 
ENDBRANCH   1   7
BRANCH   1  10
ATOM     10  C   UNL     1     -10.563  15.803  67.462  0.00  0.00    +0.081 A 
ATOM     11  N   UNL     1     -11.517  16.072  68.386  0.00  0.00    -0.245 NA
ATOM     12  C   UNL     1     -11.397  15.708  69.675  0.00  0.00    +0.082 A 
ATOM     13  C   UNL     1     -10.128  15.438  70.165  0.00  0.00    +0.019 A 
ATOM     14  C   UNL     1      -9.166  15.006  69.281  0.00  0.00    +0.003 A 
ATOM     15  C   UNL     1      -9.334  15.382  67.954  0.00  0.00    +0.019 A 
BRANCH  12  16
ATOM     16  C   UNL     1     -12.563  15.593  70.553  0.00  0.00    +0.026 C 
ATOM     17  C   UNL     1     -12.382  15.483  71.853  0.00  0.00    +0.088 C 
BRANCH  17  18
ATOM     18  C   UNL     1     -13.428  15.703  72.841  0.00  0.00    +0.388 C 
ATOM     19  O   UNL     1     -13.047  16.284  74.053  0.00  0.00    -0.241 OA
ATOM     20  O   UNL     1     -14.579  16.027  72.425  0.00  0.00    -0.241 OA
ENDBRANCH  17  18
ENDBRANCH  12  16
ENDBRANCH   1  10
BRANCH   2  21
ATOM     21  C   UNL     1     -10.550  14.606  64.869  0.00  0.00    +0.099 C 
BRANCH  21  22
ATOM     22  N   UNL     1     -11.705  13.934  64.332  0.00  0.00    -0.269 NA
ATOM     23  C   UNL     1     -11.398  12.614  63.836  0.00  0.00    +0.072 C 
ATOM     24  C   UNL     1     -11.018  11.868  65.099  0.00  0.00    +0.019 C 
ATOM     25  C   UNL     1     -11.897  12.533  66.151  0.00  0.00    +0.019 C 
ATOM     26  C   UNL     1     -12.601  13.673  65.450  0.00  0.00    +0.072 C 
ENDBRANCH  21  22
ENDBRANCH   2  21
TORSDOF 6
ENDMDL
MODEL 2
REMARK VINA RESULT:      -7.1      2.813      5.074
REMARK  Name = 
REMARK  6 active torsions:
REMARK  status: ('A' for Active; 'I' for Inactive)
REMARK    1  A    between atoms: C_5  and  C_6
REMARK    2  A    between atoms: C_6  and  C_14
REMARK    3  A    between atoms: C_7  and  C_8
REMARK    4  A    between atoms: C_8  and  N_9
REMARK    5  A    between atoms: C_18  and  C_19
REMARK    6  A    between atoms: C_20  and  C_21
REMARK                            x       y       z     vdW  Elec       q    Type
REMARK                         _______ _______ _______ _____ _____    ______ ____
ROOT
ATOM      1  C   UNL     1     -10.678  15.681  68.596  0.00  0.00    +0.015 C 
ATOM      2  C   UNL     1     -10.858  16.050  69.856  0.00  0.00    -0.007 C 
ENDROOT
BRANCH   1   7
ATOM      3  C   UNL     1      -7.396  19.735  67.462  0.00  0.00    +0.031 C 
ATOM      4  C   UNL     1      -8.407  18.737  67.018  0.00  0.00    -0.022 A 
ATOM      5  C   UNL     1      -9.767  18.951  67.211  0.00  0.00    -0.004 A 
ATOM      6  C   UNL     1     -10.623  17.903  67.522  0.00  0.00    -0.000 A 
ATOM      7  C   UNL     1     -10.155  16.597  67.572  0.00  0.00    +0.001 A 
ATOM      8  C   UNL     1      -8.883  16.392  67.071  0.00  0.00    -0.000 A 
ATOM      9  C   UNL     1      -8.066  17.438  66.661  0.00  0.00    -0.004 A 
ENDBRANCH   1   7
BRANCH   1  10
ATOM     10  C   UNL     1     -11.472  14.538  68.140  0.00  0.00    +0.081 A 
ATOM     11  N   UNL     1     -11.208  13.332  68.698  0.00  0.00    -0.245 NA
ATOM     12  C   UNL     1     -11.510  12.172  68.087  0.00  0.00    +0.082 A 
ATOM     13  C   UNL     1     -11.700  12.185  66.713  0.00  0.00    +0.019 A 
ATOM     14  C   UNL     1     -12.126  13.353  66.125  0.00  0.00    +0.003 A 
ATOM     15  C   UNL     1     -11.816  14.530  66.794  0.00  0.00    +0.019 A 
BRANCH  12  16
ATOM     16  C   UNL     1     -11.639  10.921  68.835  0.00  0.00    +0.026 C 
ATOM     17  C   UNL     1     -11.552  10.944  70.149  0.00  0.00    +0.088 C 
BRANCH  17  18
ATOM     18  C   UNL     1     -11.994   9.857  71.012  0.00  0.00    +0.388 C 
ATOM     19  O   UNL     1     -11.002   9.127  71.673  0.00  0.00    -0.241 OA
ATOM     20  O   UNL     1     -13.072  10.012  71.657  0.00  0.00    -0.241 OA
ENDBRANCH  17  18
ENDBRANCH  12  16
ENDBRANCH   1  10
BRANCH   2  21
ATOM     21  C   UNL     1     -12.098  15.812  70.620  0.00  0.00    +0.099 C 
BRANCH  21  22
ATOM     22  N   UNL     1     -11.908  14.940  71.750  0.00  0.00    -0.269 NA
ATOM     23  C   UNL     1     -12.169  15.599  73.007  0.00  0.00    +0.072 C 
ATOM     24  C   UNL     1     -13.656  15.879  72.930  0.00  0.00    +0.019 C 
ATOM     25  C   UNL     1     -14.171  14.702  72.112  0.00  0.00    +0.019 C 
ATOM     26  C   UNL     1     -12.949  13.923  71.681  0.00  0.00    +0.072 C 
ENDBRANCH  21  22
ENDBRANCH   2  21
TORSDOF 6
ENDMDL
MODEL 3
REMARK VINA RESULT:      -7.0      1.343      5.270
REMARK  Name = 
REMARK  6 active torsions:
REMARK  status: ('A' for Active; 'I' for Inactive)
REMARK    1  A    between atoms: C_5  and  C_6
REMARK    2  A    between atoms: C_6  and  C_14
REMARK    3  A    between atoms: C_7  and  C_8
REMARK    4  A    between atoms: C_8  and  N_9
REMARK    5  A    between atoms: C_18  and  C_19
REMARK    6  A    between atoms: C_20  and  C_21
REMARK                            x       y       z     vdW  Elec       q    Type
REMARK                         _______ _______ _______ _____ _____    ______ ____
ROOT
ATOM      1  C   UNL     1     -10.253  14.300  66.166  0.00  0.00    +0.015 C 
ATOM      2  C   UNL     1     -10.167  15.477  65.562  0.00  0.00    -0.007 C 
ENDROOT
BRANCH   1   7
ATOM      3  C   UNL     1      -9.542  10.228  62.790  0.00  0.00    +0.031 C 
ATOM      4  C   UNL     1     -10.418  10.982  63.726  0.00  0.00    -0.022 A 
ATOM      5  C   UNL     1     -11.082  12.136  63.325  0.00  0.00    -0.004 A 
ATOM      6  C   UNL     1     -11.256  13.205  64.194  0.00  0.00    -0.000 A 
ATOM      7  C   UNL     1     -10.838  13.119  65.516  0.00  0.00    +0.001 A 
ATOM      8  C   UNL     1     -10.474  11.860  65.953  0.00  0.00    -0.000 A 
ATOM      9  C   UNL     1     -10.402  10.766  65.099  0.00  0.00    -0.004 A 
ENDBRANCH   1   7
BRANCH   1  10
ATOM     10  C   UNL     1     -10.230  14.326  67.630  0.00  0.00    +0.081 A 
ATOM     11  N   UNL     1     -11.385  14.636  68.267  0.00  0.00    -0.245 NA
ATOM     12  C   UNL     1     -11.409  15.130  69.518  0.00  0.00    +0.082 A 
ATOM     13  C   UNL     1     -10.257  15.727  70.010  0.00  0.00    +0.019 A 
ATOM     14  C   UNL     1      -9.045  15.322  69.500  0.00  0.00    +0.003 A 
ATOM     15  C   UNL     1      -9.060  14.797  68.214  0.00  0.00    +0.019 A 
BRANCH  12  16
ATOM     16  C   UNL     1     -12.608  15.049  70.353  0.00  0.00    +0.026 C 
ATOM     17  C   UNL     1     -12.506  15.260  71.650  0.00  0.00    +0.088 C 
BRANCH  17  18
ATOM     18  C   UNL     1     -13.639  15.543  72.519  0.00  0.00    +0.388 C 
ATOM     19  O   UNL     1     -13.380  16.266  73.686  0.00  0.00    -0.241 OA
ATOM     20  O   UNL     1     -14.759  15.775  71.977  0.00  0.00    -0.241 OA
ENDBRANCH  17  18
ENDBRANCH  12  16
ENDBRANCH   1  10
BRANCH   2  21
ATOM     21  C   UNL     1     -10.597  16.752  66.167  0.00  0.00    +0.099 C 
BRANCH  21  22
ATOM     22  N   UNL     1      -9.845  17.885  65.693  0.00  0.00    -0.269 NA
ATOM     23  C   UNL     1     -10.529  19.136  65.914  0.00  0.00    +0.072 C 
ATOM     24  C   UNL     1     -10.550  19.239  67.425  0.00  0.00    +0.019 C 
ATOM     25  C   UNL     1      -9.252  18.546  67.820  0.00  0.00    +0.019 C 
ATOM     26  C   UNL     1      -8.664  17.994  66.541  0.00  0.00    +0.072 C 
ENDBRANCH  21  22
ENDBRANCH   2  21
TORSDOF 6
ENDMDL
MODEL 4
REMARK VINA RESULT:      -6.9      5.284      9.110
REMARK  Name = 
REMARK  6 active torsions:
REMARK  status: ('A' for Active; 'I' for Inactive)
REMARK    1  A    between atoms: C_5  and  C_6
REMARK    2  A    between atoms: C_6  and  C_14
REMARK    3  A    between atoms: C_7  and  C_8
REMARK    4  A    between atoms: C_8  and  N_9
REMARK    5  A    between atoms: C_18  and  C_19
REMARK    6  A    between atoms: C_20  and  C_21
REMARK                            x       y       z     vdW  Elec       q    Type
REMARK                         _______ _______ _______ _____ _____    ______ ____
ROOT
ATOM      1  C   UNL     1     -12.517  10.515  71.050  0.00  0.00    +0.015 C 
ATOM      2  C   UNL     1     -13.169  11.477  71.687  0.00  0.00    -0.007 C 
ENDROOT
BRANCH   1   7
ATOM      3  C   UNL     1     -10.483   5.619  70.435  0.00  0.00    +0.031 C 
ATOM      4  C   UNL     1     -11.186   6.621  71.281  0.00  0.00    -0.022 A 
ATOM      5  C   UNL     1     -12.550   6.850  71.148  0.00  0.00    -0.004 A 
ATOM      6  C   UNL     1     -13.084   8.124  71.291  0.00  0.00    -0.000 A 
ATOM      7  C   UNL     1     -12.274   9.195  71.649  0.00  0.00    +0.001 A 
ATOM      8  C   UNL     1     -11.000   8.872  72.075  0.00  0.00    -0.000 A 
ATOM      9  C   UNL     1     -10.505   7.574  72.028  0.00  0.00    -0.004 A 
ENDBRANCH   1   7
BRANCH   1  10
ATOM     10  C   UNL     1     -11.618  10.949  69.978  0.00  0.00    +0.081 A 
ATOM     11  N   UNL     1     -12.182  11.480  68.867  0.00  0.00    -0.245 NA
ATOM     12  C   UNL     1     -11.556  11.492  67.676  0.00  0.00    +0.082 A 
ATOM     13  C   UNL     1     -10.521  10.592  67.468  0.00  0.00    +0.019 A 
ATOM     14  C   UNL     1      -9.815  10.149  68.563  0.00  0.00    +0.003 A 
ATOM     15  C   UNL     1     -10.484  10.170  69.780  0.00  0.00    +0.019 A 
BRANCH  12  16
ATOM     16  C   UNL     1     -11.943  12.423  66.615  0.00  0.00    +0.026 C 
ATOM     17  C   UNL     1     -11.567  12.180  65.376  0.00  0.00    +0.088 C 
BRANCH  17  18
ATOM     18  C   UNL     1     -12.157  12.818  64.207  0.00  0.00    +0.388 C 
ATOM     19  O   UNL     1     -13.030  12.047  63.434  0.00  0.00    -0.241 OA
ATOM     20  O   UNL     1     -12.447  14.047  64.285  0.00  0.00    -0.241 OA
ENDBRANCH  17  18
ENDBRANCH  12  16
ENDBRANCH   1  10
BRANCH   2  21
ATOM     21  C   UNL     1     -12.688  12.867  71.804  0.00  0.00    +0.099 C 
BRANCH  21  22
ATOM     22  N   UNL     1     -13.526  13.687  72.640  0.00  0.00    -0.269 NA
ATOM     23  C   UNL     1     -12.779  14.695  73.353  0.00  0.00    +0.072 C 
ATOM     24  C   UNL     1     -12.283  15.591  72.237  0.00  0.00    +0.019 C 
ATOM     25  C   UNL     1     -13.407  15.492  71.212  0.00  0.00    +0.019 C 
ATOM     26  C   UNL     1     -14.378  14.467  71.752  0.00  0.00    +0.072 C 
ENDBRANCH  21  22
ENDBRANCH   2  21
TORSDOF 6
ENDMDL
MODEL 5
REMARK VINA RESULT:      -6.8      3.412      6.683
REMARK  Name = 
REMARK  6 active torsions:
REMARK  status: ('A' for Active; 'I' for Inactive)
REMARK    1  A    between atoms: C_5  and  C_6
REMARK    2  A    between atoms: C_6  and  C_14
REMARK    3  A    between atoms: C_7  and  C_8
REMARK    4  A    between atoms: C_8  and  N_9
REMARK    5  A    between atoms: C_18  and  C_19
REMARK    6  A    between atoms: C_20  and  C_21
REMARK                            x       y       z     vdW  Elec       q    Type
REMARK                         _______ _______ _______ _____ _____    ______ ____
ROOT
ATOM      1  C   UNL     1     -10.731  14.790  68.150  0.00  0.00    +0.015 C 
ATOM      2  C   UNL     1     -11.832  14.662  68.877  0.00  0.00    -0.007 C 
ENDROOT
BRANCH   1   7
ATOM      3  C   UNL     1     -12.433  12.311  63.740  0.00  0.00    +0.031 C 
ATOM      4  C   UNL     1     -11.347  12.592  64.718  0.00  0.00    -0.022 A 
ATOM      5  C   UNL     1     -11.277  11.921  65.933  0.00  0.00    -0.004 A 
ATOM      6  C   UNL     1     -10.850  12.565  67.088  0.00  0.00    -0.000 A 
ATOM      7  C   UNL     1     -10.407  13.880  67.042  0.00  0.00    +0.001 A 
ATOM      8  C   UNL     1     -10.197  14.403  65.780  0.00  0.00    -0.000 A 
ATOM      9  C   UNL     1     -10.529  13.711  64.622  0.00  0.00    -0.004 A 
ENDBRANCH   1   7
BRANCH   1  10
ATOM     10  C   UNL     1      -9.624  15.512  68.780  0.00  0.00    +0.081 A 
ATOM     11  N   UNL     1      -9.372  16.771  68.347  0.00  0.00    -0.245 NA
ATOM     12  C   UNL     1      -8.170  17.356  68.489  0.00  0.00    +0.082 A 
ATOM     13  C   UNL     1      -7.063  16.543  68.687  0.00  0.00    +0.019 A 
ATOM     14  C   UNL     1      -7.256  15.314  69.275  0.00  0.00    +0.003 A 
ATOM     15  C   UNL     1      -8.516  14.749  69.128  0.00  0.00    +0.019 A 
BRANCH  12  16
ATOM     16  C   UNL     1      -8.012  18.810  68.438  0.00  0.00    +0.026 C 
ATOM     17  C   UNL     1      -6.823  19.337  68.650  0.00  0.00    +0.088 C 
BRANCH  17  18
ATOM     18  C   UNL     1      -6.466  20.704  68.298  0.00  0.00    +0.388 C 
ATOM     19  O   UNL     1      -5.123  21.067  68.440  0.00  0.00    -0.241 OA
ATOM     20  O   UNL     1      -7.073  21.245  67.329  0.00  0.00    -0.241 OA
ENDBRANCH  17  18
ENDBRANCH  12  16
ENDBRANCH   1  10
BRANCH   2  21
ATOM     21  C   UNL     1     -11.855  14.670  70.353  0.00  0.00    +0.099 C 
BRANCH  21  22
ATOM     22  N   UNL     1     -12.693  15.705  70.901  0.00  0.00    -0.269 NA
ATOM     23  C   UNL     1     -13.935  15.192  71.426  0.00  0.00    +0.072 C 
ATOM     24  C   UNL     1     -13.475  14.350  72.599  0.00  0.00    +0.019 C 
ATOM     25  C   UNL     1     -12.239  15.101  73.078  0.00  0.00    +0.019 C 
ATOM     26  C   UNL     1     -12.014  16.218  72.083  0.00  0.00    +0.072 C 
ENDBRANCH  21  22
ENDBRANCH   2  21
TORSDOF 6
ENDMDL
MODEL 6
REMARK VINA RESULT:      -6.7      3.327      5.815
REMARK  Name = 
REMARK  6 active torsions:
REMARK  status: ('A' for Active; 'I' for Inactive)
REMARK    1  A    between atoms: C_5  and  C_6
REMARK    2  A    between atoms: C_6  and  C_14
REMARK    3  A    between atoms: C_7  and  C_8
REMARK    4  A    between atoms: C_8  and  N_9
REMARK    5  A    between atoms: C_18  and  C_19
REMARK    6  A    between atoms: C_20  and  C_21
REMARK                            x       y       z     vdW  Elec       q    Type
REMARK                         _______ _______ _______ _____ _____    ______ ____
ROOT
ATOM      1  C   UNL     1     -10.597  15.001  68.335  0.00  0.00    +0.015 C 
ATOM      2  C   UNL     1     -10.761  15.085  69.648  0.00  0.00    -0.007 C 
ENDROOT
BRANCH   1   7
ATOM      3  C   UNL     1      -7.384  19.227  67.780  0.00  0.00    +0.031 C 
ATOM      4  C   UNL     1      -8.487  18.374  67.259  0.00  0.00    -0.022 A 
ATOM      5  C   UNL     1      -9.792  18.523  67.713  0.00  0.00    -0.004 A 
ATOM      6  C   UNL     1     -10.628  17.426  67.875  0.00  0.00    -0.000 A 
ATOM      7  C   UNL     1     -10.205  16.154  67.512  0.00  0.00    +0.001 A 
ATOM      8  C   UNL     1      -9.033  16.092  66.782  0.00  0.00    -0.000 A 
ATOM      9  C   UNL     1      -8.251  17.214  66.531  0.00  0.00    -0.004 A 
ENDBRANCH   1   7
BRANCH   1  10
ATOM     10  C   UNL     1     -11.295  13.899  67.670  0.00  0.00    +0.081 A 
ATOM     11  N   UNL     1     -10.619  12.735  67.513  0.00  0.00    -0.245 NA
ATOM     12  C   UNL     1     -10.938  11.837  66.563  0.00  0.00    +0.082 A 
ATOM     13  C   UNL     1     -11.674  12.272  65.470  0.00  0.00    +0.019 A 
ATOM     14  C   UNL     1     -12.499  13.361  65.632  0.00  0.00    +0.003 A 
ATOM     15  C   UNL     1     -12.153  14.255  66.637  0.00  0.00    +0.019 A 
BRANCH  12  16
ATOM     16  C   UNL     1     -10.529  10.436  66.662  0.00  0.00    +0.026 C 
ATOM     17  C   UNL     1     -10.429   9.876  67.851  0.00  0.00    +0.088 C 
BRANCH  17  18
ATOM     18  C   UNL     1     -10.370   8.438  68.070  0.00  0.00    +0.388 C 
ATOM     19  O   UNL     1     -10.701   7.974  69.346  0.00  0.00    -0.241 OA
ATOM     20  O   UNL     1     -10.706   7.678  67.115  0.00  0.00    -0.241 OA
ENDBRANCH  17  18
ENDBRANCH  12  16
ENDBRANCH   1  10
BRANCH   2  21
ATOM     21  C   UNL     1     -11.941  14.572  70.370  0.00  0.00    +0.099 C 
BRANCH  21  22
ATOM     22  N   UNL     1     -12.774  15.616  70.909  0.00  0.00    -0.269 NA
ATOM     23  C   UNL     1     -14.000  15.110  71.475  0.00  0.00    +0.072 C 
ATOM     24  C   UNL     1     -13.510  14.301  72.658  0.00  0.00    +0.019 C 
ATOM     25  C   UNL     1     -12.268  15.071  73.090  0.00  0.00    +0.019 C 
ATOM     26  C   UNL     1     -12.072  16.163  72.063  0.00  0.00    +0.072 C 
ENDBRANCH  21  22
ENDBRANCH   2  21
TORSDOF 6
ENDMDL
MODEL 7
REMARK VINA RESULT:      -6.7      3.034      5.733
REMARK  Name = 
REMARK  6 active torsions:
REMARK  status: ('A' for Active; 'I' for Inactive)
REMARK    1  A    between atoms: C_5  and  C_6
REMARK    2  A    between atoms: C_6  and  C_14
REMARK    3  A    between atoms: C_7  and  C_8
REMARK    4  A    between atoms: C_8  and  N_9
REMARK    5  A    between atoms: C_18  and  C_19
REMARK    6  A    between atoms: C_20  and  C_21
REMARK                            x       y       z     vdW  Elec       q    Type
REMARK                         _______ _______ _______ _____ _____    ______ ____
ROOT
ATOM      1  C   UNL     1     -10.534  14.772  69.024  0.00  0.00    +0.015 C 
ATOM      2  C   UNL     1     -10.417  13.551  68.522  0.00  0.00    -0.007 C 
ENDROOT
BRANCH   1   7
ATOM      3  C   UNL     1     -12.275  14.902  74.068  0.00  0.00    +0.031 C 
ATOM      4  C   UNL     1     -12.493  15.196  72.625  0.00  0.00    -0.022 A 
ATOM      5  C   UNL     1     -12.927  14.212  71.745  0.00  0.00    -0.004 A 
ATOM      6  C   UNL     1     -12.465  14.163  70.436  0.00  0.00    -0.000 A 
ATOM      7  C   UNL     1     -11.614  15.146  69.948  0.00  0.00    +0.001 A 
ATOM      8  C   UNL     1     -11.460  16.263  70.747  0.00  0.00    -0.000 A 
ATOM      9  C   UNL     1     -12.014  16.351  72.019  0.00  0.00    -0.004 A 
ENDBRANCH   1   7
BRANCH   1  10
ATOM     10  C   UNL     1      -9.892  15.845  68.261  0.00  0.00    +0.081 A 
ATOM     11  N   UNL     1      -8.879  16.517  68.859  0.00  0.00    -0.245 NA
ATOM     12  C   UNL     1      -8.521  17.760  68.492  0.00  0.00    +0.082 A 
ATOM     13  C   UNL     1      -9.445  18.532  67.801  0.00  0.00    +0.019 A 
ATOM     14  C   UNL     1     -10.399  17.886  67.048  0.00  0.00    +0.003 A 
ATOM     15  C   UNL     1     -10.727  16.595  67.442  0.00  0.00    +0.019 A 
BRANCH  12  16
ATOM     16  C   UNL     1      -7.199  18.303  68.805  0.00  0.00    +0.026 C 
ATOM     17  C   UNL     1      -7.065  19.599  69.006  0.00  0.00    +0.088 C 
BRANCH  17  18
ATOM     18  C   UNL     1      -5.907  20.206  69.646  0.00  0.00    +0.388 C 
ATOM     19  O   UNL     1      -5.086  21.007  68.847  0.00  0.00    -0.241 OA
ATOM     20  O   UNL     1      -6.022  20.582  70.849  0.00  0.00    -0.241 OA
ENDBRANCH  17  18
ENDBRANCH  12  16
ENDBRANCH   1  10
BRANCH   2  21
ATOM     21  C   UNL     1     -10.216  13.261  67.089  0.00  0.00    +0.099 C 
BRANCH  21  22
ATOM     22  N   UNL     1     -11.357  12.633  66.474  0.00  0.00    -0.269 NA
ATOM     23  C   UNL     1     -12.263  13.588  65.883  0.00  0.00    +0.072 C 
ATOM     24  C   UNL     1     -11.438  14.173  64.756  0.00  0.00    +0.019 C 
ATOM     25  C   UNL     1     -10.567  12.994  64.339  0.00  0.00    +0.019 C 
ATOM     26  C   UNL     1     -10.861  11.886  65.325  0.00  0.00    +0.072 C 
ENDBRANCH  21  22
ENDBRANCH   2  21
TORSDOF 6
ENDMDL
MODEL 8
REMARK VINA RESULT:      -6.7      3.327      6.769
REMARK  Name = 
REMARK  6 active torsions:
REMARK  status: ('A' for Active; 'I' for Inactive)
REMARK    1  A    between atoms: C_5  and  C_6
REMARK    2  A    between atoms: C_6  and  C_14
REMARK    3  A    between atoms: C_7  and  C_8
REMARK    4  A    between atoms: C_8  and  N_9
REMARK    5  A    between atoms: C_18  and  C_19
REMARK    6  A    between atoms: C_20  and  C_21
REMARK                            x       y       z     vdW  Elec       q    Type
REMARK                         _______ _______ _______ _____ _____    ______ ____
ROOT
ATOM      1  C   UNL     1     -10.529  15.959  68.911  0.00  0.00    +0.015 C 
ATOM      2  C   UNL     1     -10.335  17.263  68.779  0.00  0.00    -0.007 C 
ENDROOT
BRANCH   1   7
ATOM      3  C   UNL     1     -14.883  14.797  71.771  0.00  0.00    +0.031 C 
ATOM      4  C   UNL     1     -13.404  14.767  71.613  0.00  0.00    -0.022 A 
ATOM      5  C   UNL     1     -12.622  15.874  71.920  0.00  0.00    -0.004 A 
ATOM      6  C   UNL     1     -11.497  16.191  71.170  0.00  0.00    -0.000 A 
ATOM      7  C   UNL     1     -11.078  15.363  70.137  0.00  0.00    +0.001 A 
ATOM      8  C   UNL     1     -11.690  14.126  70.069  0.00  0.00    -0.000 A 
ATOM      9  C   UNL     1     -12.751  13.773  70.895  0.00  0.00    -0.004 A 
ENDBRANCH   1   7
BRANCH   1  10
ATOM     10  C   UNL     1      -9.729  15.098  68.038  0.00  0.00    +0.081 A 
ATOM     11  N   UNL     1     -10.393  14.319  67.150  0.00  0.00    -0.245 NA
ATOM     12  C   UNL     1      -9.859  13.197  66.634  0.00  0.00    +0.082 A 
ATOM     13  C   UNL     1      -8.811  12.595  67.316  0.00  0.00    +0.019 A 
ATOM     14  C   UNL     1      -8.010  13.385  68.107  0.00  0.00    +0.003 A 
ATOM     15  C   UNL     1      -8.586  14.547  68.605  0.00  0.00    +0.019 A 
BRANCH  12  16
ATOM     16  C   UNL     1     -10.357  12.612  65.389  0.00  0.00    +0.026 C 
ATOM     17  C   UNL     1     -11.651  12.628  65.141  0.00  0.00    +0.088 C 
BRANCH  17  18
ATOM     18  C   UNL     1     -12.230  12.399  63.825  0.00  0.00    +0.388 C 
ATOM     19  O   UNL     1     -12.608  13.527  63.091  0.00  0.00    -0.241 OA
ATOM     20  O   UNL     1     -11.783  11.434  63.140  0.00  0.00    -0.241 OA
ENDBRANCH  17  18
ENDBRANCH  12  16
ENDBRANCH   1  10
BRANCH   2  21
ATOM     21  C   UNL     1      -9.081  17.869  68.289  0.00  0.00    +0.099 C 
BRANCH  21  22
ATOM     22  N   UNL     1      -9.042  19.299  68.451  0.00  0.00    -0.269 NA
ATOM     23  C   UNL     1      -7.973  19.912  67.702  0.00  0.00    +0.072 C 
ATOM     24  C   UNL     1      -8.386  19.657  66.267  0.00  0.00    +0.019 C 
ATOM     25  C   UNL     1      -9.907  19.691  66.351  0.00  0.00    +0.019 C 
ATOM     26  C   UNL     1     -10.243  19.830  67.819  0.00  0.00    +0.072 C 
ENDBRANCH  21  22
ENDBRANCH   2  21
TORSDOF 6
ENDMDL
MODEL 9
REMARK VINA RESULT:      -6.7      4.825      8.560
REMARK  Name = 
REMARK  6 active torsions:
REMARK  status: ('A' for Active; 'I' for Inactive)
REMARK    1  A    between atoms: C_5  and  C_6
REMARK    2  A    between atoms: C_6  and  C_14
REMARK    3  A    between atoms: C_7  and  C_8
REMARK    4  A    between atoms: C_8  and  N_9
REMARK    5  A    between atoms: C_18  and  C_19
REMARK    6  A    between atoms: C_20  and  C_21
REMARK                            x       y       z     vdW  Elec       q    Type
REMARK                         _______ _______ _______ _____ _____    ______ ____
ROOT
ATOM      1  C   UNL     1     -12.487  10.563  71.068  0.00  0.00    +0.015 C 
ATOM      2  C   UNL     1     -13.140  11.502  71.736  0.00  0.00    -0.007 C 
ENDROOT
BRANCH   1   7
ATOM      3  C   UNL     1     -10.646   5.614  70.288  0.00  0.00    +0.031 C 
ATOM      4  C   UNL     1     -11.153   6.666  71.211  0.00  0.00    -0.022 A 
ATOM      5  C   UNL     1     -12.514   6.908  71.353  0.00  0.00    -0.004 A 
ATOM      6  C   UNL     1     -13.001   8.195  71.540  0.00  0.00    -0.000 A 
ATOM      7  C   UNL     1     -12.130   9.270  71.668  0.00  0.00    +0.001 A 
ATOM      8  C   UNL     1     -10.796   8.949  71.835  0.00  0.00    -0.000 A 
ATOM      9  C   UNL     1     -10.327   7.644  71.751  0.00  0.00    -0.004 A 
ENDBRANCH   1   7
BRANCH   1  10
ATOM     10  C   UNL     1     -11.694  11.021  69.924  0.00  0.00    +0.081 A 
ATOM     11  N   UNL     1     -12.029  12.210  69.368  0.00  0.00    -0.245 NA
ATOM     12  C   UNL     1     -11.717  12.527  68.099  0.00  0.00    +0.082 A 
ATOM     13  C   UNL     1     -11.433  11.495  67.216  0.00  0.00    +0.019 A 
ATOM     14  C   UNL     1     -10.936  10.318  67.728  0.00  0.00    +0.003 A 
ATOM     15  C   UNL     1     -11.259  10.034  69.048  0.00  0.00    +0.019 A 
BRANCH  12  16
ATOM     16  C   UNL     1     -11.674  13.916  67.642  0.00  0.00    +0.026 C 
ATOM     17  C   UNL     1     -11.174  14.841  68.437  0.00  0.00    +0.088 C 
BRANCH  17  18
ATOM     18  C   UNL     1     -10.766  16.164  67.988  0.00  0.00    +0.388 C 
ATOM     19  O   UNL     1     -10.589  16.343  66.614  0.00  0.00    -0.241 OA
ATOM     20  O   UNL     1     -11.220  17.168  68.610  0.00  0.00    -0.241 OA
ENDBRANCH  17  18
ENDBRANCH  12  16
ENDBRANCH   1  10
BRANCH   2  21
ATOM     21  C   UNL     1     -12.727  12.918  71.794  0.00  0.00    +0.099 C 
BRANCH  21  22
ATOM     22  N   UNL     1     -13.571  13.720  72.641  0.00  0.00    -0.269 NA
ATOM     23  C   UNL     1     -12.837  14.742  73.346  0.00  0.00    +0.072 C 
ATOM     24  C   UNL     1     -12.373  15.649  72.224  0.00  0.00    +0.019 C 
ATOM     25  C   UNL     1     -13.506  15.528  71.214  0.00  0.00    +0.019 C 
ATOM     26  C   UNL     1     -14.450  14.482  71.764  0.00  0.00    +0.072 C 
ENDBRANCH  21  22
ENDBRANCH   2  21
TORSDOF 6
ENDMDL
