MODEL 1
REMARK VINA RESULT:      -7.7      0.000      0.000
REMARK  Name = 
REMARK  6 active torsions:
REMARK  status: ('A' for Active; 'I' for Inactive)
REMARK    1  A    between atoms: C_3  and  C_4
REMARK    2  A    between atoms: C_4  and  C_5
REMARK    3  A    between atoms: C_5  and  C_6
REMARK    4  A    between atoms: C_6  and  C_8
REMARK    5  A    between atoms: C_15  and  C_16
REMARK    6  A    between atoms: N_23  and  C_24
REMARK                            x       y       z     vdW  Elec       q    Type
REMARK                         _______ _______ _______ _____ _____    ______ ____
ROOT
ATOM      1  O   UNL     1      -9.609  13.249  68.158  0.00  0.00    -0.274 OA
ATOM      2  C   UNL     1     -10.339  13.954  68.026  0.00  0.00    +0.231 C 
ATOM      3  N   UNL     1     -10.490  15.320  68.231  0.00  0.00    -0.256 N 
ATOM      4  C   UNL     1     -12.032  15.299  68.515  0.00  0.00    +0.111 C 
ATOM      5  C   UNL     1     -11.909  13.694  67.929  0.00  0.00    +0.100 C 
ENDROOT
BRANCH   3   6
ATOM      6  C   UNL     1      -9.706  16.455  68.391  0.00  0.00    +0.054 A 
ATOM      7  C   UNL     1     -10.288  17.669  68.070  0.00  0.00    +0.017 A 
ATOM      8  C   UNL     1      -9.561  18.823  68.192  0.00  0.00    +0.031 A 
ATOM      9  C   UNL     1      -8.212  18.690  68.448  0.00  0.00    +0.140 A 
ATOM     10  F   UNL     1      -7.416  19.758  68.230  0.00  0.00    -0.204 F 
ATOM     11  C   UNL     1      -7.629  17.508  68.862  0.00  0.00    +0.031 A 
ATOM     12  C   UNL     1      -8.375  16.340  68.735  0.00  0.00    +0.017 A 
ENDBRANCH   3   6
BRANCH   4  13
ATOM     13  C   UNL     1     -11.857  14.960  70.087  0.00  0.00    -0.003 A 
ATOM     14  C   UNL     1     -11.323  16.031  70.800  0.00  0.00    +0.001 A 
ATOM     15  C   UNL     1     -11.849  16.361  72.044  0.00  0.00    +0.042 A 
ATOM     16  C   UNL     1     -12.853  15.550  72.558  0.00  0.00    +0.196 A 
ATOM     17  O   UNL     1     -13.899  16.053  73.336  0.00  0.00    -0.287 OA
ATOM     18  C   UNL     1     -12.813  14.237  72.105  0.00  0.00    +0.042 A 
ATOM     19  C   UNL     1     -12.644  14.112  70.725  0.00  0.00    +0.001 A 
ENDBRANCH   4  13
BRANCH   5  20
ATOM     20  C   UNL     1     -12.004  14.210  66.386  0.00  0.00    +0.014 C 
BRANCH  20  21
ATOM     21  C   UNL     1     -12.195  12.975  65.617  0.00  0.00    +0.038 C 
BRANCH  21  22
ATOM     22  C   UNL     1     -11.250  13.073  64.253  0.00  0.00    +0.174 C 
ATOM     23  O   UNL     1     -12.429  12.980  63.272  0.00  0.00    -0.218 OA
BRANCH  22  24
ATOM     24  C   UNL     1     -10.982  11.455  64.232  0.00  0.00    +0.008 A 
ATOM     25  C   UNL     1     -10.559  11.015  65.484  0.00  0.00    +0.000 A 
ATOM     26  C   UNL     1      -9.350  10.358  65.680  0.00  0.00    +0.029 A 
ATOM     27  C   UNL     1      -8.502  10.125  64.604  0.00  0.00    +0.140 A 
ATOM     28  F   UNL     1      -7.145  10.130  64.730  0.00  0.00    -0.204 F 
ATOM     29  C   UNL     1      -9.134  10.124  63.372  0.00  0.00    +0.029 A 
ATOM     30  C   UNL     1     -10.171  11.030  63.203  0.00  0.00    +0.000 A 
ENDBRANCH  22  24
ENDBRANCH  21  22
ENDBRANCH  20  21
ENDBRANCH   5  20
TORSDOF 6
ENDMDL
MODEL 2
REMARK VINA RESULT:      -7.7      3.190      7.644
REMARK  Name = 
REMARK  6 active torsions:
REMARK  status: ('A' for Active; 'I' for Inactive)
REMARK    1  A    between atoms: C_3  and  C_4
REMARK    2  A    between atoms: C_4  and  C_5
REMARK    3  A    between atoms: C_5  and  C_6
REMARK    4  A    between atoms: C_6  and  C_8
REMARK    5  A    between atoms: C_15  and  C_16
REMARK    6  A    between atoms: N_23  and  C_24
REMARK                            x       y       z     vdW  Elec       q    Type
REMARK                         _______ _______ _______ _____ _____    ______ ____
ROOT
ATOM      1  O   UNL     1      -8.569  15.304  69.279  0.00  0.00    -0.274 OA
ATOM      2  C   UNL     1      -9.420  15.801  69.002  0.00  0.00    +0.231 C 
ATOM      3  N   UNL     1     -10.793  15.628  69.125  0.00  0.00    -0.256 N 
ATOM      4  C   UNL     1     -11.195  16.356  67.796  0.00  0.00    +0.111 C 
ATOM      5  C   UNL     1      -9.559  16.864  67.821  0.00  0.00    +0.100 C 
ENDROOT
BRANCH   3   6
ATOM      6  C   UNL     1     -11.701  14.932  69.913  0.00  0.00    +0.054 A 
ATOM      7  C   UNL     1     -12.638  15.683  70.601  0.00  0.00    +0.017 A 
ATOM      8  C   UNL     1     -13.551  15.056  71.406  0.00  0.00    +0.031 A 
ATOM      9  C   UNL     1     -13.360  13.710  71.640  0.00  0.00    +0.140 A 
ATOM     10  F   UNL     1     -14.011  13.148  72.680  0.00  0.00    -0.204 F 
ATOM     11  C   UNL     1     -12.499  12.924  70.900  0.00  0.00    +0.031 A 
ATOM     12  C   UNL     1     -11.575  13.569  70.084  0.00  0.00    +0.017 A 
ENDBRANCH   3   6
BRANCH   4  13
ATOM     13  C   UNL     1     -10.991  15.041  66.877  0.00  0.00    -0.003 A 
ATOM     14  C   UNL     1     -12.079  14.174  66.947  0.00  0.00    +0.001 A 
ATOM     15  C   UNL     1     -12.561  13.577  65.787  0.00  0.00    +0.042 A 
ATOM     16  C   UNL     1     -11.879  13.823  64.602  0.00  0.00    +0.196 A 
ATOM     17  O   UNL     1     -12.530  13.922  63.369  0.00  0.00    -0.287 OA
ATOM     18  C   UNL     1     -10.531  14.114  64.769  0.00  0.00    +0.042 A 
ATOM     19  C   UNL     1     -10.267  15.050  65.771  0.00  0.00    +0.001 A 
ENDBRANCH   4  13
BRANCH   5  20
ATOM     20  C   UNL     1      -9.918  18.093  68.829  0.00  0.00    +0.014 C 
BRANCH  20  21
ATOM     21  C   UNL     1      -9.242  19.247  68.226  0.00  0.00    +0.038 C 
BRANCH  21  22
ATOM     22  C   UNL     1      -7.656  18.825  67.957  0.00  0.00    +0.174 C 
ATOM     23  O   UNL     1      -7.137  19.433  69.269  0.00  0.00    -0.218 OA
BRANCH  22  24
ATOM     24  C   UNL     1      -7.361  20.190  67.098  0.00  0.00    +0.008 A 
ATOM     25  C   UNL     1      -7.216  19.892  65.745  0.00  0.00    +0.000 A 
ATOM     26  C   UNL     1      -6.068  20.204  65.026  0.00  0.00    +0.029 A 
ATOM     27  C   UNL     1      -5.000  20.830  65.658  0.00  0.00    +0.140 A 
ATOM     28  F   UNL     1      -3.704  20.590  65.310  0.00  0.00    -0.204 F 
ATOM     29  C   UNL     1      -5.345  21.524  66.804  0.00  0.00    +0.029 A 
ATOM     30  C   UNL     1      -6.336  20.963  67.598  0.00  0.00    +0.000 A 
ENDBRANCH  22  24
ENDBRANCH  21  22
ENDBRANCH  20  21
ENDBRANCH   5  20
TORSDOF 6
ENDMDL
MODEL 3
REMARK VINA RESULT:      -7.5      2.567      6.870
REMARK  Name = 
REMARK  6 active torsions:
REMARK  status: ('A' for Active; 'I' for Inactive)
REMARK    1  A    between atoms: C_3  and  C_4
REMARK    2  A    between atoms: C_4  and  C_5
REMARK    3  A    between atoms: C_5  and  C_6
REMARK    4  A    between atoms: C_6  and  C_8
REMARK    5  A    between atoms: C_15  and  C_16
REMARK    6  A    between atoms: N_23  and  C_24
REMARK                            x       y       z     vdW  Elec       q    Type
REMARK                         _______ _______ _______ _____ _____    ______ ____
ROOT
ATOM      1  O   UNL     1     -10.386  17.278  65.703  0.00  0.00    -0.274 OA
ATOM      2  C   UNL     1      -9.920  16.437  66.055  0.00  0.00    +0.231 C 
ATOM      3  N   UNL     1     -10.059  15.061  65.927  0.00  0.00    -0.256 N 
ATOM      4  C   UNL     1      -9.511  14.683  67.346  0.00  0.00    +0.111 C 
ATOM      5  C   UNL     1      -9.023  16.325  67.369  0.00  0.00    +0.100 C 
ENDROOT
BRANCH   3   6
ATOM      6  C   UNL     1     -10.631  14.135  65.064  0.00  0.00    +0.054 A 
ATOM      7  C   UNL     1     -11.856  14.467  64.512  0.00  0.00    +0.017 A 
ATOM      8  C   UNL     1     -12.478  13.589  63.665  0.00  0.00    +0.031 A 
ATOM      9  C   UNL     1     -11.934  12.325  63.561  0.00  0.00    +0.140 A 
ATOM     10  F   UNL     1     -12.695  11.348  63.028  0.00  0.00    -0.204 F 
ATOM     11  C   UNL     1     -10.673  12.000  64.022  0.00  0.00    +0.031 A 
ATOM     12  C   UNL     1     -10.048  12.898  64.882  0.00  0.00    +0.017 A 
ENDBRANCH   3   6
BRANCH   4  13
ATOM     13  C   UNL     1     -10.940  14.880  68.079  0.00  0.00    -0.003 A 
ATOM     14  C   UNL     1     -11.569  13.665  68.342  0.00  0.00    +0.001 A 
ATOM     15  C   UNL     1     -12.195  13.465  69.568  0.00  0.00    +0.042 A 
ATOM     16  C   UNL     1     -12.225  14.528  70.460  0.00  0.00    +0.196 A 
ATOM     17  O   UNL     1     -12.149  14.349  71.844  0.00  0.00    -0.287 OA
ATOM     18  C   UNL     1     -12.179  15.780  69.858  0.00  0.00    +0.042 A 
ATOM     19  C   UNL     1     -11.199  15.905  68.872  0.00  0.00    +0.001 A 
ENDBRANCH   4  13
BRANCH   5  20
ATOM     20  C   UNL     1      -7.666  15.972  66.539  0.00  0.00    +0.014 C 
BRANCH  20  21
ATOM     21  C   UNL     1      -6.709  16.989  66.988  0.00  0.00    +0.038 C 
BRANCH  21  22
ATOM     22  C   UNL     1      -6.350  17.961  65.688  0.00  0.00    +0.174 C 
ATOM     23  O   UNL     1      -4.864  18.110  66.045  0.00  0.00    -0.218 OA
BRANCH  22  24
ATOM     24  C   UNL     1      -6.778  19.324  66.493  0.00  0.00    +0.008 A 
ATOM     25  C   UNL     1      -6.497  19.196  67.852  0.00  0.00    +0.000 A 
ATOM     26  C   UNL     1      -7.472  19.324  68.835  0.00  0.00    +0.029 A 
ATOM     27  C   UNL     1      -8.791  19.581  68.478  0.00  0.00    +0.140 A 
ATOM     28  F   UNL     1      -9.847  19.091  69.187  0.00  0.00    -0.204 F 
ATOM     29  C   UNL     1      -8.939  20.167  67.233  0.00  0.00    +0.029 A 
ATOM     30  C   UNL     1      -8.063  19.751  66.240  0.00  0.00    +0.000 A 
ENDBRANCH  22  24
ENDBRANCH  21  22
ENDBRANCH  20  21
ENDBRANCH   5  20
TORSDOF 6
ENDMDL
MODEL 4
REMARK VINA RESULT:      -7.5      3.126      8.062
REMARK  Name = 
REMARK  6 active torsions:
REMARK  status: ('A' for Active; 'I' for Inactive)
REMARK    1  A    between atoms: C_3  and  C_4
REMARK    2  A    between atoms: C_4  and  C_5
REMARK    3  A    between atoms: C_5  and  C_6
REMARK    4  A    between atoms: C_6  and  C_8
REMARK    5  A    between atoms: C_15  and  C_16
REMARK    6  A    between atoms: N_23  and  C_24
REMARK                            x       y       z     vdW  Elec       q    Type
REMARK                         _______ _______ _______ _____ _____    ______ ____
ROOT
ATOM      1  O   UNL     1      -8.303  14.448  68.881  0.00  0.00    -0.274 OA
ATOM      2  C   UNL     1      -9.044  15.096  68.599  0.00  0.00    +0.231 C 
ATOM      3  N   UNL     1     -10.415  15.224  68.782  0.00  0.00    -0.256 N 
ATOM      4  C   UNL     1     -10.721  15.939  67.420  0.00  0.00    +0.111 C 
ATOM      5  C   UNL     1      -9.016  16.091  67.353  0.00  0.00    +0.100 C 
ENDROOT
BRANCH   3   6
ATOM      6  C   UNL     1     -11.409  14.785  69.648  0.00  0.00    +0.054 A 
ATOM      7  C   UNL     1     -12.163  15.758  70.281  0.00  0.00    +0.017 A 
ATOM      8  C   UNL     1     -13.148  15.388  71.157  0.00  0.00    +0.031 A 
ATOM      9  C   UNL     1     -13.205  14.055  71.511  0.00  0.00    +0.140 A 
ATOM     10  F   UNL     1     -13.913  13.720  72.609  0.00  0.00    -0.204 F 
ATOM     11  C   UNL     1     -12.534  13.059  70.830  0.00  0.00    +0.031 A 
ATOM     12  C   UNL     1     -11.534  13.443  69.941  0.00  0.00    +0.017 A 
ENDBRANCH   3   6
BRANCH   4  13
ATOM     13  C   UNL     1     -10.840  14.557  66.588  0.00  0.00    -0.003 A 
ATOM     14  C   UNL     1     -12.114  14.001  66.670  0.00  0.00    +0.001 A 
ATOM     15  C   UNL     1     -12.709  13.470  65.530  0.00  0.00    +0.042 A 
ATOM     16  C   UNL     1     -11.963  13.456  64.358  0.00  0.00    +0.196 A 
ATOM     17  O   UNL     1     -12.541  13.635  63.098  0.00  0.00    -0.287 OA
ATOM     18  C   UNL     1     -10.589  13.406  64.557  0.00  0.00    +0.042 A 
ATOM     19  C   UNL     1     -10.115  14.309  65.511  0.00  0.00    +0.001 A 
ENDBRANCH   4  13
BRANCH   5  20
ATOM     20  C   UNL     1      -9.061  17.427  68.285  0.00  0.00    +0.014 C 
BRANCH  20  21
ATOM     21  C   UNL     1      -7.778  18.084  68.014  0.00  0.00    +0.038 C 
BRANCH  21  22
ATOM     22  C   UNL     1      -7.762  19.530  68.834  0.00  0.00    +0.174 C 
ATOM     23  O   UNL     1      -7.652  20.395  67.569  0.00  0.00    -0.218 OA
BRANCH  22  24
ATOM     24  C   UNL     1      -6.138  19.475  69.052  0.00  0.00    +0.008 A 
ATOM     25  C   UNL     1      -5.825  18.760  70.207  0.00  0.00    +0.000 A 
ATOM     26  C   UNL     1      -5.096  19.310  71.255  0.00  0.00    +0.029 A 
ATOM     27  C   UNL     1      -4.655  20.626  71.181  0.00  0.00    +0.140 A 
ATOM     28  F   UNL     1      -4.558  21.426  72.281  0.00  0.00    -0.204 F 
ATOM     29  C   UNL     1      -4.552  21.120  69.892  0.00  0.00    +0.029 A 
ATOM     30  C   UNL     1      -5.516  20.701  68.986  0.00  0.00    +0.000 A 
ENDBRANCH  22  24
ENDBRANCH  21  22
ENDBRANCH  20  21
ENDBRANCH   5  20
TORSDOF 6
ENDMDL
MODEL 5
REMARK VINA RESULT:      -7.4      2.801      7.335
REMARK  Name = 
REMARK  6 active torsions:
REMARK  status: ('A' for Active; 'I' for Inactive)
REMARK    1  A    between atoms: C_3  and  C_4
REMARK    2  A    between atoms: C_4  and  C_5
REMARK    3  A    between atoms: C_5  and  C_6
REMARK    4  A    between atoms: C_6  and  C_8
REMARK    5  A    between atoms: C_15  and  C_16
REMARK    6  A    between atoms: N_23  and  C_24
REMARK                            x       y       z     vdW  Elec       q    Type
REMARK                         _______ _______ _______ _____ _____    ______ ____
ROOT
ATOM      1  O   UNL     1     -10.630  17.578  65.532  0.00  0.00    -0.274 OA
ATOM      2  C   UNL     1     -10.088  16.789  65.895  0.00  0.00    +0.231 C 
ATOM      3  N   UNL     1     -10.118  15.402  65.813  0.00  0.00    -0.256 N 
ATOM      4  C   UNL     1      -9.502  15.116  67.226  0.00  0.00    +0.111 C 
ATOM      5  C   UNL     1      -9.148  16.792  67.184  0.00  0.00    +0.100 C 
ENDROOT
BRANCH   3   6
ATOM      6  C   UNL     1     -10.639  14.405  64.998  0.00  0.00    +0.054 A 
ATOM      7  C   UNL     1     -11.918  14.602  64.507  0.00  0.00    +0.017 A 
ATOM      8  C   UNL     1     -12.491  13.648  63.709  0.00  0.00    +0.031 A 
ATOM      9  C   UNL     1     -11.828  12.443  63.596  0.00  0.00    +0.140 A 
ATOM     10  F   UNL     1     -12.514  11.383  63.120  0.00  0.00    -0.204 F 
ATOM     11  C   UNL     1     -10.519  12.256  63.994  0.00  0.00    +0.031 A 
ATOM     12  C   UNL     1      -9.943  13.230  64.804  0.00  0.00    +0.017 A 
ENDBRANCH   3   6
BRANCH   4  13
ATOM     13  C   UNL     1     -10.921  15.223  67.996  0.00  0.00    -0.003 A 
ATOM     14  C   UNL     1     -11.562  13.990  68.093  0.00  0.00    +0.001 A 
ATOM     15  C   UNL     1     -12.177  13.625  69.285  0.00  0.00    +0.042 A 
ATOM     16  C   UNL     1     -12.186  14.552  70.319  0.00  0.00    +0.196 A 
ATOM     17  O   UNL     1     -12.097  14.179  71.663  0.00  0.00    -0.287 OA
ATOM     18  C   UNL     1     -12.131  15.875  69.899  0.00  0.00    +0.042 A 
ATOM     19  C   UNL     1     -11.160  16.128  68.929  0.00  0.00    +0.001 A 
ENDBRANCH   4  13
BRANCH   5  20
ATOM     20  C   UNL     1      -7.790  16.521  66.323  0.00  0.00    +0.014 C 
BRANCH  20  21
ATOM     21  C   UNL     1      -7.144  17.837  66.270  0.00  0.00    +0.038 C 
BRANCH  21  22
ATOM     22  C   UNL     1      -7.757  18.757  67.511  0.00  0.00    +0.174 C 
ATOM     23  O   UNL     1      -7.851  20.046  66.682  0.00  0.00    -0.218 OA
BRANCH  22  24
ATOM     24  C   UNL     1      -6.262  19.120  68.080  0.00  0.00    +0.008 A 
ATOM     25  C   UNL     1      -5.875  18.200  69.052  0.00  0.00    +0.000 A 
ATOM     26  C   UNL     1      -5.534  18.576  70.347  0.00  0.00    +0.029 A 
ATOM     27  C   UNL     1      -5.580  19.915  70.718  0.00  0.00    +0.140 A 
ATOM     28  F   UNL     1      -5.919  20.310  71.978  0.00  0.00    -0.204 F 
ATOM     29  C   UNL     1      -5.487  20.802  69.660  0.00  0.00    +0.029 A 
ATOM     30  C   UNL     1      -6.111  20.429  68.478  0.00  0.00    +0.000 A 
ENDBRANCH  22  24
ENDBRANCH  21  22
ENDBRANCH  20  21
ENDBRANCH   5  20
TORSDOF 6
ENDMDL
MODEL 6
REMARK VINA RESULT:      -7.2      2.390      7.171
REMARK  Name = 
REMARK  6 active torsions:
REMARK  status: ('A' for Active; 'I' for Inactive)
REMARK    1  A    between atoms: C_3  and  C_4
REMARK    2  A    between atoms: C_4  and  C_5
REMARK    3  A    between atoms: C_5  and  C_6
REMARK    4  A    between atoms: C_6  and  C_8
REMARK    5  A    between atoms: C_15  and  C_16
REMARK    6  A    between atoms: N_23  and  C_24
REMARK                            x       y       z     vdW  Elec       q    Type
REMARK                         _______ _______ _______ _____ _____    ______ ____
ROOT
ATOM      1  O   UNL     1     -10.858  17.094  67.172  0.00  0.00    -0.274 OA
ATOM      2  C   UNL     1     -10.380  16.284  67.576  0.00  0.00    +0.231 C 
ATOM      3  N   UNL     1     -10.449  14.900  67.475  0.00  0.00    -0.256 N 
ATOM      4  C   UNL     1      -9.985  14.580  68.937  0.00  0.00    +0.111 C 
ATOM      5  C   UNL     1      -9.573  16.242  68.951  0.00  0.00    +0.100 C 
ENDROOT
BRANCH   3   6
ATOM      6  C   UNL     1     -10.920  13.930  66.599  0.00  0.00    +0.054 A 
ATOM      7  C   UNL     1     -10.039  12.922  66.249  0.00  0.00    +0.017 A 
ATOM      8  C   UNL     1     -10.439  11.944  65.378  0.00  0.00    +0.031 A 
ATOM      9  C   UNL     1     -11.650  12.129  64.741  0.00  0.00    +0.140 A 
ATOM     10  F   UNL     1     -11.909  11.388  63.643  0.00  0.00    -0.204 F 
ATOM     11  C   UNL     1     -12.582  13.066  65.138  0.00  0.00    +0.031 A 
ATOM     12  C   UNL     1     -12.167  14.056  66.023  0.00  0.00    +0.017 A 
ENDBRANCH   3   6
BRANCH   4  13
ATOM     13  C   UNL     1     -11.468  14.728  69.566  0.00  0.00    -0.003 A 
ATOM     14  C   UNL     1     -12.028  13.494  69.889  0.00  0.00    +0.001 A 
ATOM     15  C   UNL     1     -12.717  13.344  71.088  0.00  0.00    +0.042 A 
ATOM     16  C   UNL     1     -12.877  14.468  71.888  0.00  0.00    +0.196 A 
ATOM     17  O   UNL     1     -12.878  14.401  73.284  0.00  0.00    -0.287 OA
ATOM     18  C   UNL     1     -12.877  15.669  71.190  0.00  0.00    +0.042 A 
ATOM     19  C   UNL     1     -11.847  15.789  70.257  0.00  0.00    +0.001 A 
ENDBRANCH   4  13
BRANCH   5  20
ATOM     20  C   UNL     1      -8.147  15.934  68.224  0.00  0.00    +0.014 C 
BRANCH  20  21
ATOM     21  C   UNL     1      -7.338  17.120  68.525  0.00  0.00    +0.038 C 
BRANCH  21  22
ATOM     22  C   UNL     1      -7.306  18.074  67.164  0.00  0.00    +0.174 C 
ATOM     23  O   UNL     1      -5.774  18.089  67.054  0.00  0.00    -0.218 OA
BRANCH  22  24
ATOM     24  C   UNL     1      -7.352  19.458  68.042  0.00  0.00    +0.008 A 
ATOM     25  C   UNL     1      -6.796  20.511  67.319  0.00  0.00    +0.000 A 
ATOM     26  C   UNL     1      -5.714  21.252  67.783  0.00  0.00    +0.029 A 
ATOM     27  C   UNL     1      -5.137  20.946  69.011  0.00  0.00    +0.140 A 
ATOM     28  F   UNL     1      -3.803  21.096  69.247  0.00  0.00    -0.204 F 
ATOM     29  C   UNL     1      -5.974  20.266  69.879  0.00  0.00    +0.029 A 
ATOM     30  C   UNL     1      -6.838  19.339  69.313  0.00  0.00    +0.000 A 
ENDBRANCH  22  24
ENDBRANCH  21  22
ENDBRANCH  20  21
ENDBRANCH   5  20
TORSDOF 6
ENDMDL
MODEL 7
REMARK VINA RESULT:      -7.1      2.884      6.995
REMARK  Name = 
REMARK  6 active torsions:
REMARK  status: ('A' for Active; 'I' for Inactive)
REMARK    1  A    between atoms: C_3  and  C_4
REMARK    2  A    between atoms: C_4  and  C_5
REMARK    3  A    between atoms: C_5  and  C_6
REMARK    4  A    between atoms: C_6  and  C_8
REMARK    5  A    between atoms: C_15  and  C_16
REMARK    6  A    between atoms: N_23  and  C_24
REMARK                            x       y       z     vdW  Elec       q    Type
REMARK                         _______ _______ _______ _____ _____    ______ ____
ROOT
ATOM      1  O   UNL     1      -8.218  12.945  68.567  0.00  0.00    -0.274 OA
ATOM      2  C   UNL     1      -8.654  13.829  68.292  0.00  0.00    +0.231 C 
ATOM      3  N   UNL     1      -9.848  14.499  68.531  0.00  0.00    -0.256 N 
ATOM      4  C   UNL     1      -9.922  15.248  67.155  0.00  0.00    +0.111 C 
ATOM      5  C   UNL     1      -8.305  14.704  67.005  0.00  0.00    +0.100 C 
ENDROOT
BRANCH   3   6
ATOM      6  C   UNL     1     -10.883  14.513  69.458  0.00  0.00    +0.054 A 
ATOM      7  C   UNL     1     -11.210  15.737  70.014  0.00  0.00    +0.017 A 
ATOM      8  C   UNL     1     -12.212  15.812  70.945  0.00  0.00    +0.031 A 
ATOM      9  C   UNL     1     -12.713  14.620  71.424  0.00  0.00    +0.140 A 
ATOM     10  F   UNL     1     -13.431  14.646  72.566  0.00  0.00    -0.204 F 
ATOM     11  C   UNL     1     -12.475  13.399  70.824  0.00  0.00    +0.031 A 
ATOM     12  C   UNL     1     -11.456  13.331  69.879  0.00  0.00    +0.017 A 
ENDBRANCH   3   6
BRANCH   4  13
ATOM     13  C   UNL     1     -10.630  14.012  66.388  0.00  0.00    -0.003 A 
ATOM     14  C   UNL     1     -12.018  14.051  66.495  0.00  0.00    +0.001 A 
ATOM     15  C   UNL     1     -12.803  13.774  65.380  0.00  0.00    +0.042 A 
ATOM     16  C   UNL     1     -12.155  13.396  64.211  0.00  0.00    +0.196 A 
ATOM     17  O   UNL     1     -12.627  13.749  62.944  0.00  0.00    -0.287 OA
ATOM     18  C   UNL     1     -10.927  12.778  64.413  0.00  0.00    +0.042 A 
ATOM     19  C   UNL     1     -10.099  13.436  65.323  0.00  0.00    +0.001 A 
ENDBRANCH   4  13
BRANCH   5  20
ATOM     20  C   UNL     1      -7.760  15.965  67.882  0.00  0.00    +0.014 C 
BRANCH  20  21
ATOM     21  C   UNL     1      -7.066  16.801  66.895  0.00  0.00    +0.038 C 
BRANCH  21  22
ATOM     22  C   UNL     1      -6.094  17.866  67.722  0.00  0.00    +0.174 C 
ATOM     23  O   UNL     1      -6.700  17.552  69.098  0.00  0.00    -0.218 OA
BRANCH  22  24
ATOM     24  C   UNL     1      -7.114  19.122  67.454  0.00  0.00    +0.008 A 
ATOM     25  C   UNL     1      -7.849  19.406  68.603  0.00  0.00    +0.000 A 
ATOM     26  C   UNL     1      -9.239  19.384  68.630  0.00  0.00    +0.029 A 
ATOM     27  C   UNL     1      -9.952  19.060  67.482  0.00  0.00    +0.140 A 
ATOM     28  F   UNL     1     -11.138  18.388  67.525  0.00  0.00    -0.204 F 
ATOM     29  C   UNL     1      -9.255  19.262  66.303  0.00  0.00    +0.029 A 
ATOM     30  C   UNL     1      -7.895  18.986  66.328  0.00  0.00    +0.000 A 
ENDBRANCH  22  24
ENDBRANCH  21  22
ENDBRANCH  20  21
ENDBRANCH   5  20
TORSDOF 6
ENDMDL
MODEL 8
REMARK VINA RESULT:      -7.0      3.988      5.954
REMARK  Name = 
REMARK  6 active torsions:
REMARK  status: ('A' for Active; 'I' for Inactive)
REMARK    1  A    between atoms: C_3  and  C_4
REMARK    2  A    between atoms: C_4  and  C_5
REMARK    3  A    between atoms: C_5  and  C_6
REMARK    4  A    between atoms: C_6  and  C_8
REMARK    5  A    between atoms: C_15  and  C_16
REMARK    6  A    between atoms: N_23  and  C_24
REMARK                            x       y       z     vdW  Elec       q    Type
REMARK                         _______ _______ _______ _____ _____    ______ ____
ROOT
ATOM      1  O   UNL     1      -6.792  16.225  66.404  0.00  0.00    -0.274 OA
ATOM      2  C   UNL     1      -7.224  17.153  66.430  0.00  0.00    +0.231 C 
ATOM      3  N   UNL     1      -6.921  18.435  65.989  0.00  0.00    -0.256 N 
ATOM      4  C   UNL     1      -7.675  19.209  67.125  0.00  0.00    +0.111 C 
ATOM      5  C   UNL     1      -8.328  17.661  67.463  0.00  0.00    +0.100 C 
ENDROOT
BRANCH   3   6
ATOM      6  C   UNL     1      -6.108  19.064  65.054  0.00  0.00    +0.054 A 
ATOM      7  C   UNL     1      -6.571  20.253  64.520  0.00  0.00    +0.017 A 
ATOM      8  C   UNL     1      -5.821  20.913  63.583  0.00  0.00    +0.031 A 
ATOM      9  C   UNL     1      -4.723  20.248  63.077  0.00  0.00    +0.140 A 
ATOM     10  F   UNL     1      -4.178  20.704  61.930  0.00  0.00    -0.204 F 
ATOM     11  C   UNL     1      -4.190  19.113  63.654  0.00  0.00    +0.031 A 
ATOM     12  C   UNL     1      -4.958  18.448  64.605  0.00  0.00    +0.017 A 
ENDBRANCH   3   6
BRANCH   4  13
ATOM     13  C   UNL     1      -6.432  19.141  68.157  0.00  0.00    -0.003 A 
ATOM     14  C   UNL     1      -5.700  20.326  68.180  0.00  0.00    +0.001 A 
ATOM     15  C   UNL     1      -5.271  20.848  69.396  0.00  0.00    +0.042 A 
ATOM     16  C   UNL     1      -5.536  20.114  70.544  0.00  0.00    +0.196 A 
ATOM     17  O   UNL     1      -5.823  20.717  71.772  0.00  0.00    -0.287 OA
ATOM     18  C   UNL     1      -5.646  18.745  70.334  0.00  0.00    +0.042 A 
ATOM     19  C   UNL     1      -6.451  18.395  69.248  0.00  0.00    +0.001 A 
ENDBRANCH   4  13
BRANCH   5  20
ATOM     20  C   UNL     1      -9.468  17.849  66.314  0.00  0.00    +0.014 C 
BRANCH  20  21
ATOM     21  C   UNL     1     -10.365  16.708  66.523  0.00  0.00    +0.038 C 
BRANCH  21  22
ATOM     22  C   UNL     1     -10.370  15.802  65.129  0.00  0.00    +0.174 C 
ATOM     23  O   UNL     1     -11.246  16.786  64.339  0.00  0.00    -0.218 OA
BRANCH  22  24
ATOM     24  C   UNL     1     -11.654  14.910  65.625  0.00  0.00    +0.008 A 
ATOM     25  C   UNL     1     -11.451  14.443  66.921  0.00  0.00    +0.000 A 
ATOM     26  C   UNL     1     -11.465  13.090  67.243  0.00  0.00    +0.029 A 
ATOM     27  C   UNL     1     -11.678  12.141  66.249  0.00  0.00    +0.140 A 
ATOM     28  F   UNL     1     -11.089  10.912  66.277  0.00  0.00    -0.204 F 
ATOM     29  C   UNL     1     -12.336  12.625  65.132  0.00  0.00    +0.029 A 
ATOM     30  C   UNL     1     -12.031  13.922  64.743  0.00  0.00    +0.000 A 
ENDBRANCH  22  24
ENDBRANCH  21  22
ENDBRANCH  20  21
ENDBRANCH   5  20
TORSDOF 6
ENDMDL
MODEL 9
REMARK VINA RESULT:      -6.9      2.454      6.451
REMARK  Name = 
REMARK  6 active torsions:
REMARK  status: ('A' for Active; 'I' for Inactive)
REMARK    1  A    between atoms: C_3  and  C_4
REMARK    2  A    between atoms: C_4  and  C_5
REMARK    3  A    between atoms: C_5  and  C_6
REMARK    4  A    between atoms: C_6  and  C_8
REMARK    5  A    between atoms: C_15  and  C_16
REMARK    6  A    between atoms: N_23  and  C_24
REMARK                            x       y       z     vdW  Elec       q    Type
REMARK                         _______ _______ _______ _____ _____    ______ ____
ROOT
ATOM      1  O   UNL     1     -11.760  14.730  66.154  0.00  0.00    -0.274 OA
ATOM      2  C   UNL     1     -11.072  14.727  66.912  0.00  0.00    +0.231 C 
ATOM      3  N   UNL     1     -10.492  13.795  67.764  0.00  0.00    -0.256 N 
ATOM      4  C   UNL     1     -10.263  14.763  68.976  0.00  0.00    +0.111 C 
ATOM      5  C   UNL     1     -10.650  15.968  67.821  0.00  0.00    +0.100 C 
ENDROOT
BRANCH   3   6
ATOM      6  C   UNL     1     -10.278  12.424  67.838  0.00  0.00    +0.054 A 
ATOM      7  C   UNL     1     -11.286  11.606  67.360  0.00  0.00    +0.017 A 
ATOM      8  C   UNL     1     -11.140  10.245  67.419  0.00  0.00    +0.031 A 
ATOM      9  C   UNL     1     -10.066   9.761  68.137  0.00  0.00    +0.140 A 
ATOM     10  F   UNL     1     -10.084   8.463  68.508  0.00  0.00    -0.204 F 
ATOM     11  C   UNL     1      -9.005  10.546  68.541  0.00  0.00    +0.031 A 
ATOM     12  C   UNL     1      -9.161  11.927  68.477  0.00  0.00    +0.017 A 
ENDBRANCH   3   6
BRANCH   4  13
ATOM     13  C   UNL     1     -11.753  14.559  69.571  0.00  0.00    -0.003 A 
ATOM     14  C   UNL     1     -11.947  13.277  70.079  0.00  0.00    +0.001 A 
ATOM     15  C   UNL     1     -12.618  13.107  71.285  0.00  0.00    +0.042 A 
ATOM     16  C   UNL     1     -13.134  14.239  71.903  0.00  0.00    +0.196 A 
ATOM     17  O   UNL     1     -13.182  14.380  73.292  0.00  0.00    -0.287 OA
ATOM     18  C   UNL     1     -13.450  15.272  71.029  0.00  0.00    +0.042 A 
ATOM     19  C   UNL     1     -12.456  15.551  70.090  0.00  0.00    +0.001 A 
ENDBRANCH   4  13
BRANCH   5  20
ATOM     20  C   UNL     1      -9.117  15.985  67.269  0.00  0.00    +0.014 C 
BRANCH  20  21
ATOM     21  C   UNL     1      -9.041  17.223  66.487  0.00  0.00    +0.038 C 
BRANCH  21  22
ATOM     22  C   UNL     1     -10.298  18.203  66.961  0.00  0.00    +0.174 C 
ATOM     23  O   UNL     1     -10.577  18.746  65.552  0.00  0.00    -0.218 OA
BRANCH  22  24
ATOM     24  C   UNL     1      -9.290  19.439  67.342  0.00  0.00    +0.008 A 
ATOM     25  C   UNL     1      -8.382  19.662  66.309  0.00  0.00    +0.000 A 
ATOM     26  C   UNL     1      -7.005  19.602  66.494  0.00  0.00    +0.029 A 
ATOM     27  C   UNL     1      -6.484  19.299  67.747  0.00  0.00    +0.140 A 
ATOM     28  F   UNL     1      -5.328  18.595  67.906  0.00  0.00    -0.204 F 
ATOM     29  C   UNL     1      -7.344  19.563  68.800  0.00  0.00    +0.029 A 
ATOM     30  C   UNL     1      -8.693  19.323  68.577  0.00  0.00    +0.000 A 
ENDBRANCH  22  24
ENDBRANCH  21  22
ENDBRANCH  20  21
ENDBRANCH   5  20
TORSDOF 6
ENDMDL
