MODEL 1
REMARK VINA RESULT:      -7.1      0.000      0.000
REMARK  Name = 
REMARK  1 active torsions:
REMARK  status: ('A' for Active; 'I' for Inactive)
REMARK    1  A    between atoms: C_2  and  C_3
REMARK                            x       y       z     vdW  Elec       q    Type
REMARK                         _______ _______ _______ _____ _____    ______ ____
ROOT
ATOM      1  C   UNL     1      -8.890   8.381  68.584  0.00  0.00    +0.180 C 
ATOM      2  C   UNL     1      -9.508   9.698  68.303  0.00  0.00    +0.037 C 
ATOM      3  C   UNL     1      -9.274   9.620  66.681  0.00  0.00    +0.003 C 
ATOM      4  C   UNL     1     -10.503  10.766  66.377  0.00  0.00    +0.001 C 
ATOM      5  C   UNL     1      -9.359  12.028  66.494  0.00  0.00    +0.004 C 
ATOM      6  C   UNL     1      -9.575  12.117  68.124  0.00  0.00    +0.000 C 
ATOM      7  C   UNL     1     -10.473  13.189  66.182  0.00  0.00    +0.019 C 
ATOM      8  C   UNL     1     -10.874  12.992  64.770  0.00  0.00    -0.041 C 
ATOM      9  C   UNL     1     -11.573  14.010  64.267  0.00  0.00    +0.031 C 
ATOM     10  C   UNL     1     -11.116  15.389  64.467  0.00  0.00    +0.172 A 
ATOM     11  C   UNL     1     -10.290  15.587  65.569  0.00  0.00    +0.038 A 
ATOM     12  C   UNL     1     -10.182  16.961  65.670  0.00  0.00    +0.139 A 
ATOM     13  N   UNL     1     -11.104  17.450  64.843  0.00  0.00    -0.076 NA
ATOM     14  O   UNL     1     -11.603  16.540  64.071  0.00  0.00    -0.354 OA
ATOM     15  C   UNL     1     -11.254  11.652  64.231  0.00  0.00    +0.022 C 
ATOM     16  C   UNL     1     -11.638  12.989  67.050  0.00  0.00    +0.004 C 
ATOM     17  C   UNL     1      -9.724  14.474  66.362  0.00  0.00    +0.035 C 
ATOM     18  C   UNL     1     -10.298  10.643  64.783  0.00  0.00    +0.004 C 
ATOM     19  C   UNL     1     -10.316   8.353  66.607  0.00  0.00    +0.004 C 
ATOM     20  C   UNL     1     -10.957   9.590  68.553  0.00  0.00    +0.003 C 
ATOM     21  C   UNL     1      -8.810  10.919  68.684  0.00  0.00    +0.003 C 
ATOM     22  C   UNL     1      -9.484   7.458  67.522  0.00  0.00    +0.043 C 
ATOM     23  O   UNL     1      -9.312   7.833  69.808  0.00  0.00    -0.212 OA
ENDROOT
BRANCH   1  25
ATOM     24  C   UNL     1      -6.256   8.249  68.455  0.00  0.00    -0.012 C 
ATOM     25  C   UNL     1      -7.441   8.360  68.521  0.00  0.00    -0.049 C 
ENDBRANCH   1  25
TORSDOF 1
ENDMDL
MODEL 2
REMARK VINA RESULT:      -7.0      3.424      5.494
REMARK  Name = 
REMARK  1 active torsions:
REMARK  status: ('A' for Active; 'I' for Inactive)
REMARK    1  A    between atoms: C_2  and  C_3
REMARK                            x       y       z     vdW  Elec       q    Type
REMARK                         _______ _______ _______ _____ _____    ______ ____
ROOT
ATOM      1  C   UNL     1     -11.291  12.309  66.229  0.00  0.00    +0.180 C 
ATOM      2  C   UNL     1     -10.665  13.448  66.941  0.00  0.00    +0.037 C 
ATOM      3  C   UNL     1     -10.655  14.441  65.635  0.00  0.00    +0.003 C 
ATOM      4  C   UNL     1     -10.546  15.838  66.611  0.00  0.00    +0.001 C 
ATOM      5  C   UNL     1      -8.842  15.740  66.564  0.00  0.00    +0.004 C 
ATOM      6  C   UNL     1      -8.831  14.737  67.869  0.00  0.00    +0.000 C 
ATOM      7  C   UNL     1      -8.649  17.091  67.474  0.00  0.00    +0.019 C 
ATOM      8  C   UNL     1      -9.119  18.214  66.631  0.00  0.00    -0.041 C 
ATOM      9  C   UNL     1      -8.786  19.414  67.108  0.00  0.00    +0.031 C 
ATOM     10  C   UNL     1      -7.418  19.672  67.564  0.00  0.00    +0.172 A 
ATOM     11  C   UNL     1      -6.695  18.547  67.945  0.00  0.00    +0.038 A 
ATOM     12  C   UNL     1      -5.552  19.057  68.531  0.00  0.00    +0.139 A 
ATOM     13  N   UNL     1      -5.787  20.359  68.687  0.00  0.00    -0.076 NA
ATOM     14  O   UNL     1      -6.844  20.747  68.050  0.00  0.00    -0.354 OA
ATOM     15  C   UNL     1     -10.426  18.173  65.909  0.00  0.00    +0.022 C 
ATOM     16  C   UNL     1      -9.492  16.994  68.670  0.00  0.00    +0.004 C 
ATOM     17  C   UNL     1      -7.171  17.166  67.708  0.00  0.00    +0.035 C 
ATOM     18  C   UNL     1     -10.588  16.807  65.322  0.00  0.00    +0.004 C 
ATOM     19  C   UNL     1     -12.298  14.453  65.652  0.00  0.00    +0.004 C 
ATOM     20  C   UNL     1     -11.644  13.983  67.905  0.00  0.00    +0.003 C 
ATOM     21  C   UNL     1      -9.260  13.379  67.319  0.00  0.00    +0.003 C 
ATOM     22  C   UNL     1     -12.431  12.947  65.439  0.00  0.00    +0.043 C 
ATOM     23  O   UNL     1     -11.925  11.406  67.101  0.00  0.00    -0.212 OA
ENDROOT
BRANCH   1  25
ATOM     24  C   UNL     1      -9.752  10.941  64.576  0.00  0.00    -0.012 C 
ATOM     25  C   UNL     1     -10.404  11.581  65.342  0.00  0.00    -0.049 C 
ENDBRANCH   1  25
TORSDOF 1
ENDMDL
MODEL 3
REMARK VINA RESULT:      -6.9      3.778      7.832
REMARK  Name = 
REMARK  1 active torsions:
REMARK  status: ('A' for Active; 'I' for Inactive)
REMARK    1  A    between atoms: C_2  and  C_3
REMARK                            x       y       z     vdW  Elec       q    Type
REMARK                         _______ _______ _______ _____ _____    ______ ____
ROOT
ATOM      1  C   UNL     1      -6.422  19.959  67.458  0.00  0.00    +0.180 C 
ATOM      2  C   UNL     1      -7.614  19.085  67.352  0.00  0.00    +0.037 C 
ATOM      3  C   UNL     1      -6.756  17.691  67.245  0.00  0.00    +0.003 C 
ATOM      4  C   UNL     1      -8.087  16.750  67.754  0.00  0.00    +0.001 C 
ATOM      5  C   UNL     1      -8.591  16.580  66.132  0.00  0.00    +0.004 C 
ATOM      6  C   UNL     1      -9.452  17.980  66.217  0.00  0.00    +0.000 C 
ATOM      7  C   UNL     1      -9.877  15.646  66.534  0.00  0.00    +0.019 C 
ATOM      8  C   UNL     1      -9.310  14.371  67.030  0.00  0.00    -0.041 C 
ATOM      9  C   UNL     1     -10.211  13.397  67.149  0.00  0.00    +0.031 C 
ATOM     10  C   UNL     1     -11.158  13.131  66.062  0.00  0.00    +0.172 A 
ATOM     11  C   UNL     1     -11.399  14.201  65.208  0.00  0.00    +0.038 A 
ATOM     12  C   UNL     1     -12.461  13.784  64.429  0.00  0.00    +0.139 A 
ATOM     13  N   UNL     1     -12.917  12.679  65.016  0.00  0.00    -0.076 NA
ATOM     14  O   UNL     1     -12.111  12.240  65.928  0.00  0.00    -0.354 OA
ATOM     15  C   UNL     1      -8.212  14.330  68.043  0.00  0.00    +0.022 C 
ATOM     16  C   UNL     1     -10.628  16.296  67.613  0.00  0.00    +0.004 C 
ATOM     17  C   UNL     1     -10.607  15.451  65.240  0.00  0.00    +0.035 C 
ATOM     18  C   UNL     1      -7.220  15.393  67.694  0.00  0.00    +0.004 C 
ATOM     19  C   UNL     1      -6.221  17.921  68.780  0.00  0.00    +0.004 C 
ATOM     20  C   UNL     1      -8.306  19.088  68.654  0.00  0.00    +0.003 C 
ATOM     21  C   UNL     1      -8.404  19.087  66.127  0.00  0.00    +0.003 C 
ATOM     22  C   UNL     1      -5.528  19.246  68.469  0.00  0.00    +0.043 C 
ATOM     23  O   UNL     1      -6.711  21.200  68.053  0.00  0.00    -0.212 OA
ENDROOT
BRANCH   1  25
ATOM     24  C   UNL     1      -5.077  20.423  65.234  0.00  0.00    -0.012 C 
ATOM     25  C   UNL     1      -5.710  20.175  66.214  0.00  0.00    -0.049 C 
ENDBRANCH   1  25
TORSDOF 1
ENDMDL
MODEL 4
REMARK VINA RESULT:      -6.9      1.930      3.387
REMARK  Name = 
REMARK  1 active torsions:
REMARK  status: ('A' for Active; 'I' for Inactive)
REMARK    1  A    between atoms: C_2  and  C_3
REMARK                            x       y       z     vdW  Elec       q    Type
REMARK                         _______ _______ _______ _____ _____    ______ ____
ROOT
ATOM      1  C   UNL     1      -8.439   7.256  69.803  0.00  0.00    +0.180 C 
ATOM      2  C   UNL     1      -8.658   8.389  68.874  0.00  0.00    +0.037 C 
ATOM      3  C   UNL     1     -10.137   8.774  69.468  0.00  0.00    +0.003 C 
ATOM      4  C   UNL     1     -10.048  10.365  68.853  0.00  0.00    +0.001 C 
ATOM      5  C   UNL     1     -10.758   9.842  67.391  0.00  0.00    +0.004 C 
ATOM      6  C   UNL     1      -9.283   9.443  66.779  0.00  0.00    +0.000 C 
ATOM      7  C   UNL     1     -10.735  11.345  66.737  0.00  0.00    +0.019 C 
ATOM      8  C   UNL     1     -11.707  12.140  67.521  0.00  0.00    -0.041 C 
ATOM      9  C   UNL     1     -12.014  13.310  66.960  0.00  0.00    +0.031 C 
ATOM     10  C   UNL     1     -12.349  13.379  65.535  0.00  0.00    +0.172 A 
ATOM     11  C   UNL     1     -11.845  12.344  64.755  0.00  0.00    +0.038 A 
ATOM     12  C   UNL     1     -12.097  12.743  63.456  0.00  0.00    +0.139 A 
ATOM     13  N   UNL     1     -12.464  14.020  63.543  0.00  0.00    -0.076 NA
ATOM     14  O   UNL     1     -12.695  14.382  64.763  0.00  0.00    -0.354 OA
ATOM     15  C   UNL     1     -11.706  12.148  69.015  0.00  0.00    +0.022 C 
ATOM     16  C   UNL     1      -9.395  11.921  66.896  0.00  0.00    +0.004 C 
ATOM     17  C   UNL     1     -11.207  11.139  65.330  0.00  0.00    +0.035 C 
ATOM     18  C   UNL     1     -11.481  10.747  69.485  0.00  0.00    +0.004 C 
ATOM     19  C   UNL     1      -9.438   9.193  70.894  0.00  0.00    +0.004 C 
ATOM     20  C   UNL     1      -7.729   9.474  69.242  0.00  0.00    +0.003 C 
ATOM     21  C   UNL     1      -8.921   8.127  67.465  0.00  0.00    +0.003 C 
ATOM     22  C   UNL     1      -8.868   7.802  71.162  0.00  0.00    +0.043 C 
ATOM     23  O   UNL     1      -7.078   6.938  69.961  0.00  0.00    -0.212 OA
ENDROOT
BRANCH   1  25
ATOM     24  C   UNL     1      -9.784   5.037  69.312  0.00  0.00    -0.012 C 
ATOM     25  C   UNL     1      -9.180   6.051  69.483  0.00  0.00    -0.049 C 
ENDBRANCH   1  25
TORSDOF 1
ENDMDL
MODEL 5
REMARK VINA RESULT:      -6.9      4.470      7.012
REMARK  Name = 
REMARK  1 active torsions:
REMARK  status: ('A' for Active; 'I' for Inactive)
REMARK    1  A    between atoms: C_2  and  C_3
REMARK                            x       y       z     vdW  Elec       q    Type
REMARK                         _______ _______ _______ _____ _____    ______ ____
ROOT
ATOM      1  C   UNL     1     -11.145  14.134  67.758  0.00  0.00    +0.180 C 
ATOM      2  C   UNL     1      -9.920  14.965  67.697  0.00  0.00    +0.037 C 
ATOM      3  C   UNL     1     -10.722  16.390  67.575  0.00  0.00    +0.003 C 
ATOM      4  C   UNL     1      -9.374  17.277  68.134  0.00  0.00    +0.001 C 
ATOM      5  C   UNL     1      -8.813  17.441  66.530  0.00  0.00    +0.004 C 
ATOM      6  C   UNL     1      -8.007  16.010  66.630  0.00  0.00    +0.000 C 
ATOM      7  C   UNL     1      -7.507  18.324  66.981  0.00  0.00    +0.019 C 
ATOM      8  C   UNL     1      -8.043  19.615  67.470  0.00  0.00    -0.041 C 
ATOM      9  C   UNL     1      -7.110  20.555  67.626  0.00  0.00    +0.031 C 
ATOM     10  C   UNL     1      -6.121  20.793  66.571  0.00  0.00    +0.172 A 
ATOM     11  C   UNL     1      -5.892  19.721  65.716  0.00  0.00    +0.038 A 
ATOM     12  C   UNL     1      -4.791  20.105  64.974  0.00  0.00    +0.139 A 
ATOM     13  N   UNL     1      -4.314  21.188  65.585  0.00  0.00    -0.076 NA
ATOM     14  O   UNL     1      -5.131  21.650  66.475  0.00  0.00    -0.354 OA
ATOM     15  C   UNL     1      -9.169  19.689  68.449  0.00  0.00    +0.022 C 
ATOM     16  C   UNL     1      -6.815  17.639  68.077  0.00  0.00    +0.004 C 
ATOM     17  C   UNL     1      -6.730  18.501  65.712  0.00  0.00    +0.035 C 
ATOM     18  C   UNL     1     -10.189  18.666  68.059  0.00  0.00    +0.004 C 
ATOM     19  C   UNL     1     -11.314  16.168  69.091  0.00  0.00    +0.004 C 
ATOM     20  C   UNL     1      -9.270  14.926  69.020  0.00  0.00    +0.003 C 
ATOM     21  C   UNL     1      -9.092  14.943  66.498  0.00  0.00    +0.003 C 
ATOM     22  C   UNL     1     -12.044  14.873  68.747  0.00  0.00    +0.043 C 
ATOM     23  O   UNL     1     -10.922  12.879  68.350  0.00  0.00    -0.212 OA
ENDROOT
BRANCH   1  25
ATOM     24  C   UNL     1     -12.438  13.740  65.490  0.00  0.00    -0.012 C 
ATOM     25  C   UNL     1     -11.826  13.954  66.490  0.00  0.00    -0.049 C 
ENDBRANCH   1  25
TORSDOF 1
ENDMDL
MODEL 6
REMARK VINA RESULT:      -6.8      3.341      7.828
REMARK  Name = 
REMARK  1 active torsions:
REMARK  status: ('A' for Active; 'I' for Inactive)
REMARK    1  A    between atoms: C_2  and  C_3
REMARK                            x       y       z     vdW  Elec       q    Type
REMARK                         _______ _______ _______ _____ _____    ______ ____
ROOT
ATOM      1  C   UNL     1      -8.132  19.306  66.626  0.00  0.00    +0.180 C 
ATOM      2  C   UNL     1      -8.857  18.018  66.532  0.00  0.00    +0.037 C 
ATOM      3  C   UNL     1      -9.065  17.855  68.150  0.00  0.00    +0.003 C 
ATOM      4  C   UNL     1     -10.377  16.782  67.945  0.00  0.00    +0.001 C 
ATOM      5  C   UNL     1      -9.298  15.459  67.938  0.00  0.00    +0.004 C 
ATOM      6  C   UNL     1      -9.070  15.610  66.315  0.00  0.00    +0.000 C 
ATOM      7  C   UNL     1     -10.502  14.360  67.769  0.00  0.00    +0.019 C 
ATOM      8  C   UNL     1     -11.260  14.394  69.040  0.00  0.00    -0.041 C 
ATOM      9  C   UNL     1     -12.110  13.377  69.182  0.00  0.00    +0.031 C 
ATOM     10  C   UNL     1     -11.674  12.007  68.899  0.00  0.00    +0.172 A 
ATOM     11  C   UNL     1     -10.591  11.894  68.034  0.00  0.00    +0.038 A 
ATOM     12  C   UNL     1     -10.516  10.542  67.756  0.00  0.00    +0.139 A 
ATOM     13  N   UNL     1     -11.647  10.021  68.229  0.00  0.00    -0.076 NA
ATOM     14  O   UNL     1     -12.297  10.855  68.974  0.00  0.00    -0.354 OA
ATOM     15  C   UNL     1     -11.715  15.675  69.660  0.00  0.00    +0.022 C 
ATOM     16  C   UNL     1     -11.380  14.770  66.668  0.00  0.00    +0.004 C 
ATOM     17  C   UNL     1      -9.786  13.055  67.596  0.00  0.00    +0.035 C 
ATOM     18  C   UNL     1     -10.604  16.669  69.537  0.00  0.00    +0.004 C 
ATOM     19  C   UNL     1     -10.035  19.180  68.143  0.00  0.00    +0.004 C 
ATOM     20  C   UNL     1     -10.179  18.276  65.932  0.00  0.00    +0.003 C 
ATOM     21  C   UNL     1      -8.134  16.808  66.164  0.00  0.00    +0.003 C 
ATOM     22  C   UNL     1      -8.951  20.121  67.624  0.00  0.00    +0.043 C 
ATOM     23  O   UNL     1      -8.185  20.048  65.433  0.00  0.00    -0.212 OA
ENDROOT
BRANCH   1  25
ATOM     24  C   UNL     1      -5.636  19.193  67.480  0.00  0.00    -0.012 C 
ATOM     25  C   UNL     1      -6.754  19.201  67.067  0.00  0.00    -0.049 C 
ENDBRANCH   1  25
TORSDOF 1
ENDMDL
MODEL 7
REMARK VINA RESULT:      -6.7      4.604      8.136
REMARK  Name = 
REMARK  1 active torsions:
REMARK  status: ('A' for Active; 'I' for Inactive)
REMARK    1  A    between atoms: C_2  and  C_3
REMARK                            x       y       z     vdW  Elec       q    Type
REMARK                         _______ _______ _______ _____ _____    ______ ____
ROOT
ATOM      1  C   UNL     1      -5.398  19.643  69.157  0.00  0.00    +0.180 C 
ATOM      2  C   UNL     1      -6.064  18.440  68.607  0.00  0.00    +0.037 C 
ATOM      3  C   UNL     1      -7.561  19.109  68.576  0.00  0.00    +0.003 C 
ATOM      4  C   UNL     1      -8.113  17.994  67.407  0.00  0.00    +0.001 C 
ATOM      5  C   UNL     1      -8.601  16.930  68.648  0.00  0.00    +0.004 C 
ATOM      6  C   UNL     1      -7.103  16.249  68.699  0.00  0.00    +0.000 C 
ATOM      7  C   UNL     1      -9.181  15.818  67.592  0.00  0.00    +0.019 C 
ATOM      8  C   UNL     1     -10.365  16.442  66.960  0.00  0.00    -0.041 C 
ATOM      9  C   UNL     1     -11.117  15.584  66.272  0.00  0.00    +0.031 C 
ATOM     10  C   UNL     1     -11.489  14.293  66.860  0.00  0.00    +0.172 A 
ATOM     11  C   UNL     1     -10.643  13.830  67.861  0.00  0.00    +0.038 A 
ATOM     12  C   UNL     1     -11.062  12.534  68.091  0.00  0.00    +0.139 A 
ATOM     13  N   UNL     1     -11.895  12.251  67.090  0.00  0.00    -0.076 NA
ATOM     14  O   UNL     1     -12.217  13.301  66.407  0.00  0.00    -0.354 OA
ATOM     15  C   UNL     1     -10.329  17.826  66.398  0.00  0.00    +0.022 C 
ATOM     16  C   UNL     1      -8.167  15.550  66.567  0.00  0.00    +0.004 C 
ATOM     17  C   UNL     1      -9.572  14.659  68.458  0.00  0.00    +0.035 C 
ATOM     18  C   UNL     1      -9.565  18.692  67.348  0.00  0.00    +0.004 C 
ATOM     19  C   UNL     1      -7.043  20.177  67.440  0.00  0.00    +0.004 C 
ATOM     20  C   UNL     1      -5.621  18.266  67.211  0.00  0.00    +0.003 C 
ATOM     21  C   UNL     1      -6.240  17.263  69.448  0.00  0.00    +0.003 C 
ATOM     22  C   UNL     1      -5.971  20.794  68.334  0.00  0.00    +0.043 C 
ATOM     23  O   UNL     1      -4.017  19.670  68.892  0.00  0.00    -0.212 OA
ENDROOT
BRANCH   1  25
ATOM     24  C   UNL     1      -5.712  20.077  71.743  0.00  0.00    -0.012 C 
ATOM     25  C   UNL     1      -5.621  19.872  70.573  0.00  0.00    -0.049 C 
ENDBRANCH   1  25
TORSDOF 1
ENDMDL
MODEL 8
REMARK VINA RESULT:      -6.5      4.341      7.382
REMARK  Name = 
REMARK  1 active torsions:
REMARK  status: ('A' for Active; 'I' for Inactive)
REMARK    1  A    between atoms: C_2  and  C_3
REMARK                            x       y       z     vdW  Elec       q    Type
REMARK                         _______ _______ _______ _____ _____    ______ ____
ROOT
ATOM      1  C   UNL     1      -7.092  19.268  68.119  0.00  0.00    +0.180 C 
ATOM      2  C   UNL     1      -7.979  18.483  67.229  0.00  0.00    +0.037 C 
ATOM      3  C   UNL     1      -8.558  17.518  68.423  0.00  0.00    +0.003 C 
ATOM      4  C   UNL     1      -9.951  17.117  67.521  0.00  0.00    +0.001 C 
ATOM      5  C   UNL     1      -9.126  15.791  66.832  0.00  0.00    +0.004 C 
ATOM      6  C   UNL     1      -8.531  16.744  65.629  0.00  0.00    +0.000 C 
ATOM      7  C   UNL     1     -10.428  15.322  65.953  0.00  0.00    +0.019 C 
ATOM      8  C   UNL     1     -11.428  14.847  66.936  0.00  0.00    -0.041 C 
ATOM      9  C   UNL     1     -12.443  14.180  66.386  0.00  0.00    +0.031 C 
ATOM     10  C   UNL     1     -12.185  13.133  65.393  0.00  0.00    +0.172 A 
ATOM     11  C   UNL     1     -10.974  13.239  64.718  0.00  0.00    +0.038 A 
ATOM     12  C   UNL     1     -11.062  12.299  63.709  0.00  0.00    +0.139 A 
ATOM     13  N   UNL     1     -12.338  11.917  63.693  0.00  0.00    -0.076 NA
ATOM     14  O   UNL     1     -12.989  12.338  64.728  0.00  0.00    -0.354 OA
ATOM     15  C   UNL     1     -11.791  15.642  68.148  0.00  0.00    +0.022 C 
ATOM     16  C   UNL     1     -10.968  16.480  65.232  0.00  0.00    +0.004 C 
ATOM     17  C   UNL     1      -9.914  14.195  65.110  0.00  0.00    +0.035 C 
ATOM     18  C   UNL     1     -10.533  16.212  68.722  0.00  0.00    +0.004 C 
ATOM     19  C   UNL     1      -9.273  18.826  69.112  0.00  0.00    +0.004 C 
ATOM     20  C   UNL     1      -9.080  19.359  66.787  0.00  0.00    +0.003 C 
ATOM     21  C   UNL     1      -7.401  17.537  66.284  0.00  0.00    +0.003 C 
ATOM     22  C   UNL     1      -7.964  19.579  69.333  0.00  0.00    +0.043 C 
ATOM     23  O   UNL     1      -6.763  20.527  67.585  0.00  0.00    -0.212 OA
ENDROOT
BRANCH   1  25
ATOM     24  C   UNL     1      -4.892  18.064  68.948  0.00  0.00    -0.012 C 
ATOM     25  C   UNL     1      -5.878  18.586  68.527  0.00  0.00    -0.049 C 
ENDBRANCH   1  25
TORSDOF 1
ENDMDL
MODEL 9
REMARK VINA RESULT:      -6.4      3.997      7.673
REMARK  Name = 
REMARK  1 active torsions:
REMARK  status: ('A' for Active; 'I' for Inactive)
REMARK    1  A    between atoms: C_2  and  C_3
REMARK                            x       y       z     vdW  Elec       q    Type
REMARK                         _______ _______ _______ _____ _____    ______ ____
ROOT
ATOM      1  C   UNL     1      -6.066  18.977  67.764  0.00  0.00    +0.180 C 
ATOM      2  C   UNL     1      -6.824  17.772  67.352  0.00  0.00    +0.037 C 
ATOM      3  C   UNL     1      -7.919  17.873  68.569  0.00  0.00    +0.003 C 
ATOM      4  C   UNL     1      -9.056  16.925  67.718  0.00  0.00    +0.001 C 
ATOM      5  C   UNL     1      -8.399  15.510  68.410  0.00  0.00    +0.004 C 
ATOM      6  C   UNL     1      -7.287  15.395  67.202  0.00  0.00    +0.000 C 
ATOM      7  C   UNL     1      -9.473  14.530  67.652  0.00  0.00    +0.019 C 
ATOM      8  C   UNL     1     -10.790  14.831  68.258  0.00  0.00    -0.041 C 
ATOM      9  C   UNL     1     -11.734  13.941  67.952  0.00  0.00    +0.031 C 
ATOM     10  C   UNL     1     -11.455  12.506  68.055  0.00  0.00    +0.172 A 
ATOM     11  C   UNL     1     -10.113  12.154  67.971  0.00  0.00    +0.038 A 
ATOM     12  C   UNL     1     -10.128  10.776  67.870  0.00  0.00    +0.139 A 
ATOM     13  N   UNL     1     -11.400  10.452  67.644  0.00  0.00    -0.076 NA
ATOM     14  O   UNL     1     -12.201  11.450  67.831  0.00  0.00    -0.354 OA
ATOM     15  C   UNL     1     -11.286  16.231  68.427  0.00  0.00    +0.022 C 
ATOM     16  C   UNL     1      -9.508  14.864  66.224  0.00  0.00    +0.004 C 
ATOM     17  C   UNL     1      -9.016  13.146  68.000  0.00  0.00    +0.035 C 
ATOM     18  C   UNL     1     -10.144  17.073  68.899  0.00  0.00    +0.004 C 
ATOM     19  C   UNL     1      -8.479  19.277  67.927  0.00  0.00    +0.004 C 
ATOM     20  C   UNL     1      -7.524  18.076  66.090  0.00  0.00    +0.003 C 
ATOM     21  C   UNL     1      -6.237  16.451  67.538  0.00  0.00    +0.003 C 
ATOM     22  C   UNL     1      -7.148  20.011  68.063  0.00  0.00    +0.043 C 
ATOM     23  O   UNL     1      -5.321  19.536  66.710  0.00  0.00    -0.212 OA
ENDROOT
BRANCH   1  25
ATOM     24  C   UNL     1      -4.575  18.607  69.911  0.00  0.00    -0.012 C 
ATOM     25  C   UNL     1      -5.206  18.794  68.917  0.00  0.00    -0.049 C 
ENDBRANCH   1  25
TORSDOF 1
ENDMDL
