MODEL 1
REMARK VINA RESULT:      -5.1      0.000      0.000
REMARK  Name = 
REMARK  5 active torsions:
REMARK  status: ('A' for Active; 'I' for Inactive)
REMARK    1  A    between atoms: C_2  and  C_3
REMARK    2  A    between atoms: C_3  and  C_5
REMARK    3  A    between atoms: C_5  and  C_7
REMARK    4  A    between atoms: C_7  and  C_9
REMARK    5  A    between atoms: C_9  and  C_11
REMARK                            x       y       z     vdW  Elec       q    Type
REMARK                         _______ _______ _______ _____ _____    ______ ____
ROOT
ATOM      1  C   UNL     1     -11.450  14.257  64.683  0.00  0.00    +0.223 C 
ATOM      2  O   UNL     1     -12.598  14.748  63.837  0.00  0.00    -0.217 OA
ENDROOT
BRANCH   1   3
ATOM      3  C   UNL     1     -12.587  13.586  65.819  0.00  0.00    +0.249 C 
ATOM      4  O   UNL     1     -13.152  12.671  64.730  0.00  0.00    -0.212 OA
BRANCH   3   6
ATOM      5  O   UNL     1     -11.989  11.762  67.204  0.00  0.00    -0.285 OA
ATOM      6  C   UNL     1     -11.556  12.400  66.280  0.00  0.00    +0.243 C 
ENDBRANCH   3   6
ENDBRANCH   1   3
BRANCH   1   7
ATOM      7  C   UNL     1     -11.288  15.714  65.591  0.00  0.00    +0.218 C 
ATOM      8  O   UNL     1     -11.189  16.566  64.354  0.00  0.00    -0.217 OA
BRANCH   7   9
ATOM      9  C   UNL     1      -9.571  15.440  65.708  0.00  0.00    +0.218 C 
ATOM     10  O   UNL     1      -9.648  14.910  67.141  0.00  0.00    -0.217 OA
BRANCH   9  11
ATOM     11  C   UNL     1      -9.184  16.973  66.210  0.00  0.00    +0.217 C 
ATOM     12  O   UNL     1      -7.950  17.285  65.746  0.00  0.00    -0.217 OA
ENDBRANCH   9  11
ENDBRANCH   7   9
ENDBRANCH   1   7
TORSDOF 5
ENDMDL
MODEL 2
REMARK VINA RESULT:      -5.1      1.234      4.322
REMARK  Name = 
REMARK  5 active torsions:
REMARK  status: ('A' for Active; 'I' for Inactive)
REMARK    1  A    between atoms: C_2  and  C_3
REMARK    2  A    between atoms: C_3  and  C_5
REMARK    3  A    between atoms: C_5  and  C_7
REMARK    4  A    between atoms: C_7  and  C_9
REMARK    5  A    between atoms: C_9  and  C_11
REMARK                            x       y       z     vdW  Elec       q    Type
REMARK                         _______ _______ _______ _____ _____    ______ ____
ROOT
ATOM      1  C   UNL     1     -12.193  14.744  65.296  0.00  0.00    +0.223 C 
ATOM      2  O   UNL     1     -12.735  14.638  63.892  0.00  0.00    -0.217 OA
ENDROOT
BRANCH   1   3
ATOM      3  C   UNL     1     -10.725  15.437  64.666  0.00  0.00    +0.249 C 
ATOM      4  O   UNL     1     -11.528  16.556  63.997  0.00  0.00    -0.212 OA
BRANCH   3   6
ATOM      5  O   UNL     1     -10.028  17.451  65.699  0.00  0.00    -0.285 OA
ATOM      6  C   UNL     1     -10.506  16.383  65.985  0.00  0.00    +0.243 C 
ENDBRANCH   3   6
ENDBRANCH   1   3
BRANCH   1   7
ATOM      7  C   UNL     1     -11.519  13.157  65.324  0.00  0.00    +0.218 C 
ATOM      8  O   UNL     1     -12.843  12.504  65.025  0.00  0.00    -0.217 OA
BRANCH   7   9
ATOM      9  C   UNL     1     -11.728  13.108  67.053  0.00  0.00    +0.218 C 
ATOM     10  O   UNL     1     -10.259  13.423  67.344  0.00  0.00    -0.217 OA
BRANCH   9  11
ATOM     11  C   UNL     1     -11.492  11.473  67.211  0.00  0.00    +0.217 C 
ATOM     12  O   UNL     1     -12.188  11.034  68.287  0.00  0.00    -0.217 OA
ENDBRANCH   9  11
ENDBRANCH   7   9
ENDBRANCH   1   7
TORSDOF 5
ENDMDL
MODEL 3
REMARK VINA RESULT:      -5.0      1.521      4.158
REMARK  Name = 
REMARK  5 active torsions:
REMARK  status: ('A' for Active; 'I' for Inactive)
REMARK    1  A    between atoms: C_2  and  C_3
REMARK    2  A    between atoms: C_3  and  C_5
REMARK    3  A    between atoms: C_5  and  C_7
REMARK    4  A    between atoms: C_7  and  C_9
REMARK    5  A    between atoms: C_9  and  C_11
REMARK                            x       y       z     vdW  Elec       q    Type
REMARK                         _______ _______ _______ _____ _____    ______ ____
ROOT
ATOM      1  C   UNL     1     -12.527  13.897  65.765  0.00  0.00    +0.223 C 
ATOM      2  O   UNL     1     -12.983  12.685  64.991  0.00  0.00    -0.217 OA
ENDROOT
BRANCH   1   3
ATOM      3  C   UNL     1     -11.439  14.303  64.467  0.00  0.00    +0.249 C 
ATOM      4  O   UNL     1     -12.612  14.813  63.627  0.00  0.00    -0.212 OA
BRANCH   3   6
ATOM      5  O   UNL     1     -11.328  16.651  64.180  0.00  0.00    -0.285 OA
ATOM      6  C   UNL     1     -11.189  15.818  65.038  0.00  0.00    +0.243 C 
ENDBRANCH   3   6
ENDBRANCH   1   3
BRANCH   1   7
ATOM      7  C   UNL     1     -11.293  13.069  66.640  0.00  0.00    +0.218 C 
ATOM      8  O   UNL     1     -12.149  11.847  66.845  0.00  0.00    -0.217 OA
BRANCH   7   9
ATOM      9  C   UNL     1     -11.820  13.854  68.105  0.00  0.00    +0.218 C 
ATOM     10  O   UNL     1     -10.543  14.687  68.240  0.00  0.00    -0.217 OA
BRANCH   9  11
ATOM     11  C   UNL     1     -11.261  12.683  69.140  0.00  0.00    +0.217 C 
ATOM     12  O   UNL     1     -12.060  12.650  70.233  0.00  0.00    -0.217 OA
ENDBRANCH   9  11
ENDBRANCH   7   9
ENDBRANCH   1   7
TORSDOF 5
ENDMDL
MODEL 4
REMARK VINA RESULT:      -4.6      1.157      1.389
REMARK  Name = 
REMARK  5 active torsions:
REMARK  status: ('A' for Active; 'I' for Inactive)
REMARK    1  A    between atoms: C_2  and  C_3
REMARK    2  A    between atoms: C_3  and  C_5
REMARK    3  A    between atoms: C_5  and  C_7
REMARK    4  A    between atoms: C_7  and  C_9
REMARK    5  A    between atoms: C_9  and  C_11
REMARK                            x       y       z     vdW  Elec       q    Type
REMARK                         _______ _______ _______ _____ _____    ______ ____
ROOT
ATOM      1  C   UNL     1     -10.823  15.233  64.646  0.00  0.00    +0.223 C 
ATOM      2  O   UNL     1     -11.598  16.361  64.012  0.00  0.00    -0.217 OA
ENDROOT
BRANCH   1   3
ATOM      3  C   UNL     1     -12.323  14.483  65.117  0.00  0.00    +0.249 C 
ATOM      4  O   UNL     1     -12.655  14.199  63.650  0.00  0.00    -0.212 OA
BRANCH   3   6
ATOM      5  O   UNL     1     -12.216  12.308  66.045  0.00  0.00    -0.285 OA
ATOM      6  C   UNL     1     -11.638  13.001  65.249  0.00  0.00    +0.243 C 
ENDBRANCH   3   6
ENDBRANCH   1   3
BRANCH   1   7
ATOM      7  C   UNL     1     -10.643  16.007  66.176  0.00  0.00    +0.218 C 
ATOM      8  O   UNL     1     -10.191  17.303  65.556  0.00  0.00    -0.217 OA
BRANCH   7   9
ATOM      9  C   UNL     1      -9.035  15.349  66.310  0.00  0.00    +0.218 C 
ATOM     10  O   UNL     1      -9.437  14.305  67.353  0.00  0.00    -0.217 OA
BRANCH   9  11
ATOM     11  C   UNL     1      -8.505  16.417  67.464  0.00  0.00    +0.217 C 
ATOM     12  O   UNL     1      -7.252  16.819  67.144  0.00  0.00    -0.217 OA
ENDBRANCH   9  11
ENDBRANCH   7   9
ENDBRANCH   1   7
TORSDOF 5
ENDMDL
MODEL 5
REMARK VINA RESULT:      -4.4      1.357      4.812
REMARK  Name = 
REMARK  5 active torsions:
REMARK  status: ('A' for Active; 'I' for Inactive)
REMARK    1  A    between atoms: C_2  and  C_3
REMARK    2  A    between atoms: C_3  and  C_5
REMARK    3  A    between atoms: C_5  and  C_7
REMARK    4  A    between atoms: C_7  and  C_9
REMARK    5  A    between atoms: C_9  and  C_11
REMARK                            x       y       z     vdW  Elec       q    Type
REMARK                         _______ _______ _______ _____ _____    ______ ____
ROOT
ATOM      1  C   UNL     1     -10.447  14.142  66.736  0.00  0.00    +0.223 C 
ATOM      2  O   UNL     1     -10.616  13.792  68.193  0.00  0.00    -0.217 OA
ENDROOT
BRANCH   1   3
ATOM      3  C   UNL     1     -10.779  15.810  67.109  0.00  0.00    +0.249 C 
ATOM      4  O   UNL     1      -9.465  15.910  67.888  0.00  0.00    -0.212 OA
BRANCH   3   6
ATOM      5  O   UNL     1     -10.621  17.254  65.239  0.00  0.00    -0.285 OA
ATOM      6  C   UNL     1     -10.021  16.350  65.762  0.00  0.00    +0.243 C 
ENDBRANCH   3   6
ENDBRANCH   1   3
BRANCH   1   7
ATOM      7  C   UNL     1     -12.088  13.833  66.308  0.00  0.00    +0.218 C 
ATOM      8  O   UNL     1     -12.015  12.395  66.750  0.00  0.00    -0.217 OA
BRANCH   7   9
ATOM      9  C   UNL     1     -11.589  13.500  64.672  0.00  0.00    +0.218 C 
ATOM     10  O   UNL     1     -12.528  14.544  64.063  0.00  0.00    -0.217 OA
BRANCH   9  11
ATOM     11  C   UNL     1     -12.664  12.263  64.410  0.00  0.00    +0.217 C 
ATOM     12  O   UNL     1     -12.962  12.216  63.090  0.00  0.00    -0.217 OA
ENDBRANCH   9  11
ENDBRANCH   7   9
ENDBRANCH   1   7
TORSDOF 5
ENDMDL
MODEL 6
REMARK VINA RESULT:      -4.4      1.803      5.267
REMARK  Name = 
REMARK  5 active torsions:
REMARK  status: ('A' for Active; 'I' for Inactive)
REMARK    1  A    between atoms: C_2  and  C_3
REMARK    2  A    between atoms: C_3  and  C_5
REMARK    3  A    between atoms: C_5  and  C_7
REMARK    4  A    between atoms: C_7  and  C_9
REMARK    5  A    between atoms: C_9  and  C_11
REMARK                            x       y       z     vdW  Elec       q    Type
REMARK                         _______ _______ _______ _____ _____    ______ ____
ROOT
ATOM      1  C   UNL     1      -9.551  16.672  66.924  0.00  0.00    +0.223 C 
ATOM      2  O   UNL     1      -9.365  16.152  68.327  0.00  0.00    -0.217 OA
ENDROOT
BRANCH   1   3
ATOM      3  C   UNL     1     -10.374  18.067  67.561  0.00  0.00    +0.249 C 
ATOM      4  O   UNL     1      -9.081  18.538  68.232  0.00  0.00    -0.212 OA
BRANCH   3   6
ATOM      5  O   UNL     1     -10.234  20.149  66.441  0.00  0.00    -0.285 OA
ATOM      6  C   UNL     1     -10.025  18.979  66.247  0.00  0.00    +0.243 C 
ENDBRANCH   3   6
ENDBRANCH   1   3
BRANCH   1   7
ATOM      7  C   UNL     1     -11.032  15.835  66.640  0.00  0.00    +0.218 C 
ATOM      8  O   UNL     1     -10.497  14.541  67.195  0.00  0.00    -0.217 OA
BRANCH   7   9
ATOM      9  C   UNL     1     -10.522  15.505  65.006  0.00  0.00    +0.218 C 
ATOM     10  O   UNL     1     -11.358  16.639  64.408  0.00  0.00    -0.217 OA
BRANCH   9  11
ATOM     11  C   UNL     1     -11.688  14.369  64.686  0.00  0.00    +0.217 C 
ATOM     12  O   UNL     1     -12.627  14.921  63.881  0.00  0.00    -0.217 OA
ENDBRANCH   9  11
ENDBRANCH   7   9
ENDBRANCH   1   7
TORSDOF 5
ENDMDL
MODEL 7
REMARK VINA RESULT:      -4.3      1.944      3.084
REMARK  Name = 
REMARK  5 active torsions:
REMARK  status: ('A' for Active; 'I' for Inactive)
REMARK    1  A    between atoms: C_2  and  C_3
REMARK    2  A    between atoms: C_3  and  C_5
REMARK    3  A    between atoms: C_5  and  C_7
REMARK    4  A    between atoms: C_7  and  C_9
REMARK    5  A    between atoms: C_9  and  C_11
REMARK                            x       y       z     vdW  Elec       q    Type
REMARK                         _______ _______ _______ _____ _____    ______ ____
ROOT
ATOM      1  C   UNL     1     -11.921  13.049  67.116  0.00  0.00    +0.223 C 
ATOM      2  O   UNL     1     -12.102  13.347  68.584  0.00  0.00    -0.217 OA
ENDROOT
BRANCH   1   3
ATOM      3  C   UNL     1     -10.764  11.812  67.520  0.00  0.00    +0.249 C 
ATOM      4  O   UNL     1     -11.892  10.901  68.012  0.00  0.00    -0.212 OA
BRANCH   3   6
ATOM      5  O   UNL     1      -9.937  10.372  65.833  0.00  0.00    -0.285 OA
ATOM      6  C   UNL     1     -10.855  11.123  66.037  0.00  0.00    +0.243 C 
ENDBRANCH   3   6
ENDBRANCH   1   3
BRANCH   1   7
ATOM      7  C   UNL     1     -10.687  14.227  66.867  0.00  0.00    +0.218 C 
ATOM      8  O   UNL     1     -11.441  15.290  67.621  0.00  0.00    -0.217 OA
BRANCH   7   9
ATOM      9  C   UNL     1     -11.393  14.626  65.324  0.00  0.00    +0.218 C 
ATOM     10  O   UNL     1     -10.315  13.891  64.525  0.00  0.00    -0.217 OA
BRANCH   9  11
ATOM     11  C   UNL     1     -10.631  16.091  65.158  0.00  0.00    +0.217 C 
ATOM     12  O   UNL     1     -11.298  16.828  64.238  0.00  0.00    -0.217 OA
ENDBRANCH   9  11
ENDBRANCH   7   9
ENDBRANCH   1   7
TORSDOF 5
ENDMDL
MODEL 8
REMARK VINA RESULT:      -4.3      2.006      4.568
REMARK  Name = 
REMARK  5 active torsions:
REMARK  status: ('A' for Active; 'I' for Inactive)
REMARK    1  A    between atoms: C_2  and  C_3
REMARK    2  A    between atoms: C_3  and  C_5
REMARK    3  A    between atoms: C_5  and  C_7
REMARK    4  A    between atoms: C_7  and  C_9
REMARK    5  A    between atoms: C_9  and  C_11
REMARK                            x       y       z     vdW  Elec       q    Type
REMARK                         _______ _______ _______ _____ _____    ______ ____
ROOT
ATOM      1  C   UNL     1     -10.576  15.885  66.315  0.00  0.00    +0.223 C 
ATOM      2  O   UNL     1      -9.320  16.257  65.567  0.00  0.00    -0.217 OA
ENDROOT
BRANCH   1   3
ATOM      3  C   UNL     1      -9.687  15.941  67.812  0.00  0.00    +0.249 C 
ATOM      4  O   UNL     1      -9.427  17.436  67.615  0.00  0.00    -0.212 OA
BRANCH   3   6
ATOM      5  O   UNL     1     -10.833  17.193  69.462  0.00  0.00    -0.285 OA
ATOM      6  C   UNL     1     -11.024  16.289  68.691  0.00  0.00    +0.243 C 
ENDBRANCH   3   6
ENDBRANCH   1   3
BRANCH   1   7
ATOM      7  C   UNL     1     -10.352  14.182  66.160  0.00  0.00    +0.218 C 
ATOM      8  O   UNL     1     -10.307  14.246  64.657  0.00  0.00    -0.217 OA
BRANCH   7   9
ATOM      9  C   UNL     1     -12.078  13.957  66.237  0.00  0.00    +0.218 C 
ATOM     10  O   UNL     1     -12.031  13.260  67.598  0.00  0.00    -0.217 OA
BRANCH   9  11
ATOM     11  C   UNL     1     -12.104  12.519  65.411  0.00  0.00    +0.217 C 
ATOM     12  O   UNL     1     -13.217  12.478  64.641  0.00  0.00    -0.217 OA
ENDBRANCH   9  11
ENDBRANCH   7   9
ENDBRANCH   1   7
TORSDOF 5
ENDMDL
MODEL 9
REMARK VINA RESULT:      -4.2      1.206      2.774
REMARK  Name = 
REMARK  5 active torsions:
REMARK  status: ('A' for Active; 'I' for Inactive)
REMARK    1  A    between atoms: C_2  and  C_3
REMARK    2  A    between atoms: C_3  and  C_5
REMARK    3  A    between atoms: C_5  and  C_7
REMARK    4  A    between atoms: C_7  and  C_9
REMARK    5  A    between atoms: C_9  and  C_11
REMARK                            x       y       z     vdW  Elec       q    Type
REMARK                         _______ _______ _______ _____ _____    ______ ____
ROOT
ATOM      1  C   UNL     1     -10.899  13.950  67.249  0.00  0.00    +0.223 C 
ATOM      2  O   UNL     1     -10.137  12.911  68.033  0.00  0.00    -0.217 OA
ENDROOT
BRANCH   1   3
ATOM      3  C   UNL     1     -11.113  12.802  65.957  0.00  0.00    +0.249 C 
ATOM      4  O   UNL     1     -11.955  11.911  66.872  0.00  0.00    -0.212 OA
BRANCH   3   6
ATOM      5  O   UNL     1     -13.099  12.829  64.669  0.00  0.00    -0.285 OA
ATOM      6  C   UNL     1     -12.475  13.535  65.418  0.00  0.00    +0.243 C 
ENDBRANCH   3   6
ENDBRANCH   1   3
BRANCH   1   7
ATOM      7  C   UNL     1      -9.504  14.640  66.505  0.00  0.00    +0.218 C 
ATOM      8  O   UNL     1      -8.788  14.803  67.820  0.00  0.00    -0.217 OA
BRANCH   7   9
ATOM      9  C   UNL     1     -10.261  16.209  66.564  0.00  0.00    +0.218 C 
ATOM     10  O   UNL     1     -10.446  16.291  65.047  0.00  0.00    -0.217 OA
BRANCH   9  11
ATOM     11  C   UNL     1      -8.851  17.083  66.520  0.00  0.00    +0.217 C 
ATOM     12  O   UNL     1      -9.081  18.249  65.869  0.00  0.00    -0.217 OA
ENDBRANCH   9  11
ENDBRANCH   7   9
ENDBRANCH   1   7
TORSDOF 5
ENDMDL
