MODEL 1
REMARK VINA RESULT:      -6.5      0.000      0.000
REMARK  Name = 
REMARK  4 active torsions:
REMARK  status: ('A' for Active; 'I' for Inactive)
REMARK    1  A    between atoms: C_5  and  C_6
REMARK    2  A    between atoms: C_6  and  C_8
REMARK    3  A    between atoms: C_11  and  C_12
REMARK    4  A    between atoms: C_12  and  C_13
REMARK                            x       y       z     vdW  Elec       q    Type
REMARK                         _______ _______ _______ _____ _____    ______ ____
ROOT
ATOM      1  C   UNL     1     -11.668  13.861  68.132  0.00  0.00    +0.099 A 
ATOM      2  N   UNL     1     -10.579  14.577  67.757  0.00  0.00    -0.326 N 
ATOM      3  C   UNL     1      -9.593  15.235  68.591  0.00  0.00    +0.130 C 
ATOM      4  C   UNL     1     -10.578  14.712  66.411  0.00  0.00    +0.049 A 
ATOM      5  C   UNL     1     -11.379  13.715  65.910  0.00  0.00    +0.015 A 
ATOM      6  C   UNL     1     -12.140  13.261  66.977  0.00  0.00    +0.022 A 
ENDROOT
BRANCH   1   7
ATOM      7  C   UNL     1     -11.820  13.403  69.513  0.00  0.00    +0.211 C 
ATOM      8  O   UNL     1     -11.492  12.224  69.770  0.00  0.00    -0.285 OA
BRANCH   7  13
ATOM      9  C   UNL     1     -12.387  15.563  74.318  0.00  0.00    +0.031 C 
ATOM     10  C   UNL     1     -13.003  15.253  72.992  0.00  0.00    -0.022 A 
ATOM     11  C   UNL     1     -12.761  16.057  71.885  0.00  0.00    -0.004 A 
ATOM     12  C   UNL     1     -12.542  15.503  70.630  0.00  0.00    +0.003 A 
ATOM     13  C   UNL     1     -12.701  14.137  70.427  0.00  0.00    +0.040 A 
ATOM     14  C   UNL     1     -13.456  13.497  71.402  0.00  0.00    +0.003 A 
ATOM     15  C   UNL     1     -13.483  13.979  72.707  0.00  0.00    -0.004 A 
ENDBRANCH   7  13
ENDBRANCH   1   7
BRANCH   4  16
ATOM     16  C   UNL     1      -9.740  15.597  65.568  0.00  0.00    +0.158 C 
BRANCH  16  17
ATOM     17  C   UNL     1     -10.565  16.786  65.239  0.00  0.00    +0.371 C 
ATOM     18  O   UNL     1     -10.339  17.958  65.952  0.00  0.00    -0.245 OA
ATOM     19  O   UNL     1     -11.303  16.814  64.236  0.00  0.00    -0.245 OA
ENDBRANCH  16  17
ENDBRANCH   4  16
TORSDOF 4
ENDMDL
MODEL 2
REMARK VINA RESULT:      -6.4      2.439      6.487
REMARK  Name = 
REMARK  4 active torsions:
REMARK  status: ('A' for Active; 'I' for Inactive)
REMARK    1  A    between atoms: C_5  and  C_6
REMARK    2  A    between atoms: C_6  and  C_8
REMARK    3  A    between atoms: C_11  and  C_12
REMARK    4  A    between atoms: C_12  and  C_13
REMARK                            x       y       z     vdW  Elec       q    Type
REMARK                         _______ _______ _______ _____ _____    ______ ____
ROOT
ATOM      1  C   UNL     1     -11.188  14.360  69.263  0.00  0.00    +0.099 A 
ATOM      2  N   UNL     1     -11.808  13.628  70.222  0.00  0.00    -0.326 N 
ATOM      3  C   UNL     1     -12.182  12.228  70.197  0.00  0.00    +0.130 C 
ATOM      4  C   UNL     1     -12.167  14.443  71.240  0.00  0.00    +0.049 A 
ATOM      5  C   UNL     1     -11.382  15.567  71.147  0.00  0.00    +0.015 A 
ATOM      6  C   UNL     1     -10.858  15.563  69.864  0.00  0.00    +0.022 A 
ENDROOT
BRANCH   1   7
ATOM      7  C   UNL     1     -10.527  13.703  68.136  0.00  0.00    +0.211 C 
ATOM      8  O   UNL     1      -9.427  13.150  68.352  0.00  0.00    -0.285 OA
BRANCH   7  13
ATOM      9  C   UNL     1     -12.369  11.947  63.488  0.00  0.00    +0.031 C 
ATOM     10  C   UNL     1     -11.866  13.102  64.292  0.00  0.00    -0.022 A 
ATOM     11  C   UNL     1     -12.703  13.784  65.167  0.00  0.00    -0.004 A 
ATOM     12  C   UNL     1     -12.256  14.191  66.418  0.00  0.00    +0.003 A 
ATOM     13  C   UNL     1     -10.918  14.051  66.765  0.00  0.00    +0.040 A 
ATOM     14  C   UNL     1     -10.059  13.884  65.685  0.00  0.00    +0.003 A 
ATOM     15  C   UNL     1     -10.504  13.281  64.513  0.00  0.00    -0.004 A 
ENDBRANCH   7  13
ENDBRANCH   1   7
BRANCH   4  16
ATOM     16  C   UNL     1     -13.064  14.158  72.385  0.00  0.00    +0.158 C 
BRANCH  16  17
ATOM     17  C   UNL     1     -13.884  15.376  72.603  0.00  0.00    +0.371 C 
ATOM     18  O   UNL     1     -13.517  16.237  73.631  0.00  0.00    -0.245 OA
ATOM     19  O   UNL     1     -14.755  15.735  71.788  0.00  0.00    -0.245 OA
ENDBRANCH  16  17
ENDBRANCH   4  16
TORSDOF 4
ENDMDL
MODEL 3
REMARK VINA RESULT:      -6.1      2.557      3.630
REMARK  Name = 
REMARK  4 active torsions:
REMARK  status: ('A' for Active; 'I' for Inactive)
REMARK    1  A    between atoms: C_5  and  C_6
REMARK    2  A    between atoms: C_6  and  C_8
REMARK    3  A    between atoms: C_11  and  C_12
REMARK    4  A    between atoms: C_12  and  C_13
REMARK                            x       y       z     vdW  Elec       q    Type
REMARK                         _______ _______ _______ _____ _____    ______ ____
ROOT
ATOM      1  C   UNL     1     -11.173  12.731  67.930  0.00  0.00    +0.099 A 
ATOM      2  N   UNL     1     -10.850  12.962  66.633  0.00  0.00    -0.326 N 
ATOM      3  C   UNL     1     -10.391  12.022  65.630  0.00  0.00    +0.130 C 
ATOM      4  C   UNL     1     -10.902  14.292  66.393  0.00  0.00    +0.049 A 
ATOM      5  C   UNL     1     -11.690  14.844  67.373  0.00  0.00    +0.015 A 
ATOM      6  C   UNL     1     -11.765  13.898  68.383  0.00  0.00    +0.022 A 
ENDROOT
BRANCH   1   7
ATOM      7  C   UNL     1     -11.381  11.366  68.414  0.00  0.00    +0.211 C 
ATOM      8  O   UNL     1     -11.843  10.531  67.607  0.00  0.00    -0.285 OA
BRANCH   7  13
ATOM      9  C   UNL     1     -13.895   8.838  72.334  0.00  0.00    +0.031 C 
ATOM     10  C   UNL     1     -12.816   9.792  71.933  0.00  0.00    -0.022 A 
ATOM     11  C   UNL     1     -11.588   9.331  71.475  0.00  0.00    -0.004 A 
ATOM     12  C   UNL     1     -10.947   9.941  70.403  0.00  0.00    +0.003 A 
ATOM     13  C   UNL     1     -11.454  11.113  69.857  0.00  0.00    +0.040 A 
ATOM     14  C   UNL     1     -12.336  11.798  70.685  0.00  0.00    +0.003 A 
ATOM     15  C   UNL     1     -13.112  11.113  71.614  0.00  0.00    -0.004 A 
ENDBRANCH   7  13
ENDBRANCH   1   7
BRANCH   4  16
ATOM     16  C   UNL     1     -10.410  15.042  65.213  0.00  0.00    +0.158 C 
BRANCH  16  17
ATOM     17  C   UNL     1     -11.606  15.463  64.441  0.00  0.00    +0.371 C 
ATOM     18  O   UNL     1     -11.646  16.764  63.953  0.00  0.00    -0.245 OA
ATOM     19  O   UNL     1     -12.467  14.644  64.067  0.00  0.00    -0.245 OA
ENDBRANCH  16  17
ENDBRANCH   4  16
TORSDOF 4
ENDMDL
MODEL 4
REMARK VINA RESULT:      -6.0      2.724      6.681
REMARK  Name = 
REMARK  4 active torsions:
REMARK  status: ('A' for Active; 'I' for Inactive)
REMARK    1  A    between atoms: C_5  and  C_6
REMARK    2  A    between atoms: C_6  and  C_8
REMARK    3  A    between atoms: C_11  and  C_12
REMARK    4  A    between atoms: C_12  and  C_13
REMARK                            x       y       z     vdW  Elec       q    Type
REMARK                         _______ _______ _______ _____ _____    ______ ____
ROOT
ATOM      1  C   UNL     1     -11.563  13.911  68.807  0.00  0.00    +0.099 A 
ATOM      2  N   UNL     1     -12.060  13.331  69.928  0.00  0.00    -0.326 N 
ATOM      3  C   UNL     1     -12.018  11.937  70.325  0.00  0.00    +0.130 C 
ATOM      4  C   UNL     1     -12.750  14.253  70.637  0.00  0.00    +0.049 A 
ATOM      5  C   UNL     1     -12.309  15.487  70.223  0.00  0.00    +0.015 A 
ATOM      6  C   UNL     1     -11.658  15.277  69.017  0.00  0.00    +0.022 A 
ENDROOT
BRANCH   1   7
ATOM      7  C   UNL     1     -10.616  13.194  67.954  0.00  0.00    +0.211 C 
ATOM      8  O   UNL     1      -9.445  13.626  67.898  0.00  0.00    -0.285 OA
BRANCH   7  13
ATOM      9  C   UNL     1      -9.967  11.354  63.027  0.00  0.00    +0.031 C 
ATOM     10  C   UNL     1     -10.785  11.353  64.278  0.00  0.00    -0.022 A 
ATOM     11  C   UNL     1     -10.420  10.577  65.372  0.00  0.00    -0.004 A 
ATOM     12  C   UNL     1     -10.519  11.069  66.667  0.00  0.00    +0.003 A 
ATOM     13  C   UNL     1     -11.120  12.299  66.907  0.00  0.00    +0.040 A 
ATOM     14  C   UNL     1     -11.932  12.751  65.873  0.00  0.00    +0.003 A 
ATOM     15  C   UNL     1     -11.669  12.390  64.556  0.00  0.00    -0.004 A 
ENDBRANCH   7  13
ENDBRANCH   1   7
BRANCH   4  16
ATOM     16  C   UNL     1     -13.658  14.048  71.790  0.00  0.00    +0.158 C 
BRANCH  16  17
ATOM     17  C   UNL     1     -14.433  15.303  71.957  0.00  0.00    +0.371 C 
ATOM     18  O   UNL     1     -15.594  15.460  71.208  0.00  0.00    -0.245 OA
ATOM     19  O   UNL     1     -14.179  16.114  72.867  0.00  0.00    -0.245 OA
ENDBRANCH  16  17
ENDBRANCH   4  16
TORSDOF 4
ENDMDL
MODEL 5
REMARK VINA RESULT:      -5.9      2.735      6.231
REMARK  Name = 
REMARK  4 active torsions:
REMARK  status: ('A' for Active; 'I' for Inactive)
REMARK    1  A    between atoms: C_5  and  C_6
REMARK    2  A    between atoms: C_6  and  C_8
REMARK    3  A    between atoms: C_11  and  C_12
REMARK    4  A    between atoms: C_12  and  C_13
REMARK                            x       y       z     vdW  Elec       q    Type
REMARK                         _______ _______ _______ _____ _____    ______ ____
ROOT
ATOM      1  C   UNL     1     -11.633  13.312  69.286  0.00  0.00    +0.099 A 
ATOM      2  N   UNL     1     -12.187  12.893  70.451  0.00  0.00    -0.326 N 
ATOM      3  C   UNL     1     -12.570  11.551  70.844  0.00  0.00    +0.130 C 
ATOM      4  C   UNL     1     -12.468  13.969  71.221  0.00  0.00    +0.049 A 
ATOM      5  C   UNL     1     -11.686  15.001  70.765  0.00  0.00    +0.015 A 
ATOM      6  C   UNL     1     -11.254  14.626  69.502  0.00  0.00    +0.022 A 
ENDROOT
BRANCH   1   7
ATOM      7  C   UNL     1     -11.057  12.350  68.346  0.00  0.00    +0.211 C 
ATOM      8  O   UNL     1     -10.300  11.470  68.810  0.00  0.00    -0.285 OA
BRANCH   7  13
ATOM      9  C   UNL     1     -11.248  16.152  64.660  0.00  0.00    +0.031 C 
ATOM     10  C   UNL     1     -11.160  14.691  64.965  0.00  0.00    -0.022 A 
ATOM     11  C   UNL     1      -9.947  14.104  65.305  0.00  0.00    -0.004 A 
ATOM     12  C   UNL     1      -9.869  13.155  66.317  0.00  0.00    +0.003 A 
ATOM     13  C   UNL     1     -11.025  12.668  66.915  0.00  0.00    +0.040 A 
ATOM     14  C   UNL     1     -12.183  12.874  66.175  0.00  0.00    +0.003 A 
ATOM     15  C   UNL     1     -12.291  13.964  65.318  0.00  0.00    -0.004 A 
ENDBRANCH   7  13
ENDBRANCH   1   7
BRANCH   4  16
ATOM     16  C   UNL     1     -13.284  14.037  72.457  0.00  0.00    +0.158 C 
BRANCH  16  17
ATOM     17  C   UNL     1     -13.958  15.359  72.455  0.00  0.00    +0.371 C 
ATOM     18  O   UNL     1     -14.978  15.572  71.534  0.00  0.00    -0.245 OA
ATOM     19  O   UNL     1     -13.769  16.193  73.360  0.00  0.00    -0.245 OA
ENDBRANCH  16  17
ENDBRANCH   4  16
TORSDOF 4
ENDMDL
MODEL 6
REMARK VINA RESULT:      -5.9      3.134      5.968
REMARK  Name = 
REMARK  4 active torsions:
REMARK  status: ('A' for Active; 'I' for Inactive)
REMARK    1  A    between atoms: C_5  and  C_6
REMARK    2  A    between atoms: C_6  and  C_8
REMARK    3  A    between atoms: C_11  and  C_12
REMARK    4  A    between atoms: C_12  and  C_13
REMARK                            x       y       z     vdW  Elec       q    Type
REMARK                         _______ _______ _______ _____ _____    ______ ____
ROOT
ATOM      1  C   UNL     1     -11.289  14.746  65.780  0.00  0.00    +0.099 A 
ATOM      2  N   UNL     1     -11.087  14.941  67.107  0.00  0.00    -0.326 N 
ATOM      3  C   UNL     1     -11.919  14.538  68.223  0.00  0.00    +0.130 C 
ATOM      4  C   UNL     1      -9.990  15.714  67.279  0.00  0.00    +0.049 A 
ATOM      5  C   UNL     1      -9.249  15.618  66.127  0.00  0.00    +0.015 A 
ATOM      6  C   UNL     1     -10.105  15.111  65.162  0.00  0.00    +0.022 A 
ENDROOT
BRANCH   1   7
ATOM      7  C   UNL     1     -12.294  13.791  65.313  0.00  0.00    +0.211 C 
ATOM      8  O   UNL     1     -13.497  14.093  65.472  0.00  0.00    -0.285 OA
BRANCH   7  13
ATOM      9  C   UNL     1      -8.345  10.401  64.317  0.00  0.00    +0.031 C 
ATOM     10  C   UNL     1      -9.812  10.609  64.516  0.00  0.00    -0.022 A 
ATOM     11  C   UNL     1     -10.356  10.698  65.792  0.00  0.00    -0.004 A 
ATOM     12  C   UNL     1     -11.344  11.629  66.087  0.00  0.00    +0.003 A 
ATOM     13  C   UNL     1     -11.912  12.395  65.077  0.00  0.00    +0.040 A 
ATOM     14  C   UNL     1     -11.729  11.884  63.798  0.00  0.00    +0.003 A 
ATOM     15  C   UNL     1     -10.608  11.117  63.495  0.00  0.00    -0.004 A 
ENDBRANCH   7  13
ENDBRANCH   1   7
BRANCH   4  16
ATOM     16  C   UNL     1      -9.512  16.385  68.512  0.00  0.00    +0.158 C 
BRANCH  16  17
ATOM     17  C   UNL     1      -9.801  17.833  68.353  0.00  0.00    +0.371 C 
ATOM     18  O   UNL     1      -8.753  18.731  68.513  0.00  0.00    -0.245 OA
ATOM     19  O   UNL     1     -10.890  18.238  67.903  0.00  0.00    -0.245 OA
ENDBRANCH  16  17
ENDBRANCH   4  16
TORSDOF 4
ENDMDL
MODEL 7
REMARK VINA RESULT:      -5.9      4.368      6.312
REMARK  Name = 
REMARK  4 active torsions:
REMARK  status: ('A' for Active; 'I' for Inactive)
REMARK    1  A    between atoms: C_5  and  C_6
REMARK    2  A    between atoms: C_6  and  C_8
REMARK    3  A    between atoms: C_11  and  C_12
REMARK    4  A    between atoms: C_12  and  C_13
REMARK                            x       y       z     vdW  Elec       q    Type
REMARK                         _______ _______ _______ _____ _____    ______ ____
ROOT
ATOM      1  C   UNL     1     -10.115  17.424  66.557  0.00  0.00    +0.099 A 
ATOM      2  N   UNL     1      -8.789  17.647  66.738  0.00  0.00    -0.326 N 
ATOM      3  C   UNL     1      -7.663  16.938  66.165  0.00  0.00    +0.130 C 
ATOM      4  C   UNL     1      -8.625  18.609  67.675  0.00  0.00    +0.049 A 
ATOM      5  C   UNL     1      -9.807  19.307  67.741  0.00  0.00    +0.015 A 
ATOM      6  C   UNL     1     -10.760  18.505  67.133  0.00  0.00    +0.022 A 
ENDROOT
BRANCH   1   7
ATOM      7  C   UNL     1     -10.585  16.569  65.466  0.00  0.00    +0.211 C 
ATOM      8  O   UNL     1     -11.116  17.127  64.482  0.00  0.00    -0.285 OA
BRANCH   7  13
ATOM      9  C   UNL     1     -12.471  12.002  63.553  0.00  0.00    +0.031 C 
ATOM     10  C   UNL     1     -11.842  12.728  64.699  0.00  0.00    -0.022 A 
ATOM     11  C   UNL     1     -10.473  12.963  64.733  0.00  0.00    -0.004 A 
ATOM     12  C   UNL     1      -9.965  14.181  65.167  0.00  0.00    +0.003 A 
ATOM     13  C   UNL     1     -10.809  15.141  65.712  0.00  0.00    +0.040 A 
ATOM     14  C   UNL     1     -12.033  14.647  66.147  0.00  0.00    +0.003 A 
ATOM     15  C   UNL     1     -12.604  13.533  65.539  0.00  0.00    -0.004 A 
ENDBRANCH   7  13
ENDBRANCH   1   7
BRANCH   4  16
ATOM     16  C   UNL     1      -7.385  19.022  68.373  0.00  0.00    +0.158 C 
BRANCH  16  17
ATOM     17  C   UNL     1      -6.680  19.971  67.475  0.00  0.00    +0.371 C 
ATOM     18  O   UNL     1      -7.108  21.293  67.455  0.00  0.00    -0.245 OA
ATOM     19  O   UNL     1      -5.621  19.662  66.897  0.00  0.00    -0.245 OA
ENDBRANCH  16  17
ENDBRANCH   4  16
TORSDOF 4
ENDMDL
MODEL 8
REMARK VINA RESULT:      -5.9      3.262      5.617
REMARK  Name = 
REMARK  4 active torsions:
REMARK  status: ('A' for Active; 'I' for Inactive)
REMARK    1  A    between atoms: C_5  and  C_6
REMARK    2  A    between atoms: C_6  and  C_8
REMARK    3  A    between atoms: C_11  and  C_12
REMARK    4  A    between atoms: C_12  and  C_13
REMARK                            x       y       z     vdW  Elec       q    Type
REMARK                         _______ _______ _______ _____ _____    ______ ____
ROOT
ATOM      1  C   UNL     1     -10.489  15.760  67.064  0.00  0.00    +0.099 A 
ATOM      2  N   UNL     1     -10.980  14.498  67.136  0.00  0.00    -0.326 N 
ATOM      3  C   UNL     1     -11.495  13.788  68.290  0.00  0.00    +0.130 C 
ATOM      4  C   UNL     1     -10.817  13.890  65.939  0.00  0.00    +0.049 A 
ATOM      5  C   UNL     1     -10.663  14.884  65.004  0.00  0.00    +0.015 A 
ATOM      6  C   UNL     1     -10.349  16.033  65.714  0.00  0.00    +0.022 A 
ENDROOT
BRANCH   1   7
ATOM      7  C   UNL     1     -10.705  16.708  68.158  0.00  0.00    +0.211 C 
ATOM      8  O   UNL     1     -11.806  16.667  68.749  0.00  0.00    -0.285 OA
BRANCH   7  13
ATOM      9  C   UNL     1      -7.315  19.941  65.682  0.00  0.00    +0.031 C 
ATOM     10  C   UNL     1      -8.037  19.594  66.945  0.00  0.00    -0.022 A 
ATOM     11  C   UNL     1      -9.357  19.980  67.143  0.00  0.00    -0.004 A 
ATOM     12  C   UNL     1     -10.276  19.118  67.728  0.00  0.00    +0.003 A 
ATOM     13  C   UNL     1      -9.861  17.903  68.258  0.00  0.00    +0.040 A 
ATOM     14  C   UNL     1      -8.498  17.827  68.518  0.00  0.00    +0.003 A 
ATOM     15  C   UNL     1      -7.590  18.563  67.763  0.00  0.00    -0.004 A 
ENDBRANCH   7  13
ENDBRANCH   1   7
BRANCH   4  16
ATOM     16  C   UNL     1     -10.975  12.456  65.598  0.00  0.00    +0.158 C 
BRANCH  16  17
ATOM     17  C   UNL     1     -12.027  12.376  64.553  0.00  0.00    +0.371 C 
ATOM     18  O   UNL     1     -11.681  11.844  63.316  0.00  0.00    -0.245 OA
ATOM     19  O   UNL     1     -13.226  12.589  64.813  0.00  0.00    -0.245 OA
ENDBRANCH  16  17
ENDBRANCH   4  16
TORSDOF 4
ENDMDL
MODEL 9
REMARK VINA RESULT:      -5.8      1.944      2.627
REMARK  Name = 
REMARK  4 active torsions:
REMARK  status: ('A' for Active; 'I' for Inactive)
REMARK    1  A    between atoms: C_5  and  C_6
REMARK    2  A    between atoms: C_6  and  C_8
REMARK    3  A    between atoms: C_11  and  C_12
REMARK    4  A    between atoms: C_12  and  C_13
REMARK                            x       y       z     vdW  Elec       q    Type
REMARK                         _______ _______ _______ _____ _____    ______ ____
ROOT
ATOM      1  C   UNL     1     -11.165  13.606  68.114  0.00  0.00    +0.099 A 
ATOM      2  N   UNL     1     -10.678  13.762  66.858  0.00  0.00    -0.326 N 
ATOM      3  C   UNL     1      -9.999  14.906  66.283  0.00  0.00    +0.130 C 
ATOM      4  C   UNL     1     -11.023  12.689  66.111  0.00  0.00    +0.049 A 
ATOM      5  C   UNL     1     -11.309  11.670  66.987  0.00  0.00    +0.015 A 
ATOM      6  C   UNL     1     -11.505  12.268  68.222  0.00  0.00    +0.022 A 
ENDROOT
BRANCH   1   7
ATOM      7  C   UNL     1     -10.780  14.528  69.183  0.00  0.00    +0.211 C 
ATOM      8  O   UNL     1      -9.572  14.574  69.499  0.00  0.00    -0.285 OA
BRANCH   7  13
ATOM      9  C   UNL     1     -12.290  15.064  74.234  0.00  0.00    +0.031 C 
ATOM     10  C   UNL     1     -12.609  15.283  72.790  0.00  0.00    -0.022 A 
ATOM     11  C   UNL     1     -12.081  16.365  72.096  0.00  0.00    -0.004 A 
ATOM     12  C   UNL     1     -11.616  16.225  70.794  0.00  0.00    +0.003 A 
ATOM     13  C   UNL     1     -11.802  15.032  70.107  0.00  0.00    +0.040 A 
ATOM     14  C   UNL     1     -12.791  14.213  70.637  0.00  0.00    +0.003 A 
ATOM     15  C   UNL     1     -13.083  14.244  71.996  0.00  0.00    -0.004 A 
ENDBRANCH   7  13
ENDBRANCH   1   7
BRANCH   4  16
ATOM     16  C   UNL     1     -10.927  12.511  64.643  0.00  0.00    +0.158 C 
BRANCH  16  17
ATOM     17  C   UNL     1     -12.256  12.860  64.080  0.00  0.00    +0.371 C 
ATOM     18  O   UNL     1     -12.864  11.949  63.223  0.00  0.00    -0.245 OA
ATOM     19  O   UNL     1     -12.909  13.835  64.497  0.00  0.00    -0.245 OA
ENDBRANCH  16  17
ENDBRANCH   4  16
TORSDOF 4
ENDMDL
