MODEL 1
REMARK VINA RESULT:      -6.9      0.000      0.000
REMARK  Name = 
REMARK  3 active torsions:
REMARK  status: ('A' for Active; 'I' for Inactive)
REMARK    1  A    between atoms: N_4  and  N_5
REMARK    2  A    between atoms: C_6  and  C_7
REMARK    3  A    between atoms: C_10  and  N_11
REMARK                            x       y       z     vdW  Elec       q    Type
REMARK                         _______ _______ _______ _____ _____    ______ ____
ROOT
ATOM      1  N   UNL     1     -12.467  15.894  70.071  0.00  0.00    -0.169 NA
ATOM      2  C   UNL     1     -11.497  15.186  69.634  0.00  0.00    +0.155 C 
ENDROOT
BRANCH   1   8
ATOM      3  O   UNL     1     -13.627  12.466  72.298  0.00  0.00    -0.271 OA
ATOM      4  C   UNL     1     -13.689  13.729  72.390  0.00  0.00    +0.272 C 
ATOM      5  N   UNL     1     -13.041  14.575  73.350  0.00  0.00    -0.125 NA
ATOM      6  C   UNL     1     -12.633  15.736  72.616  0.00  0.00    +0.349 C 
ATOM      7  O   UNL     1     -11.853  16.660  72.959  0.00  0.00    -0.249 OA
ATOM      8  N   UNL     1     -13.137  15.625  71.280  0.00  0.00    -0.154 N 
ATOM      9  C   UNL     1     -14.259  14.694  71.396  0.00  0.00    +0.208 C 
ENDBRANCH   1   8
BRANCH   2  10
ATOM     10  C   UNL     1     -11.270  14.867  68.229  0.00  0.00    +0.172 A 
ATOM     11  O   UNL     1     -12.051  14.092  67.522  0.00  0.00    -0.397 OA
ATOM     12  C   UNL     1     -11.914  14.304  66.245  0.00  0.00    +0.447 A 
ATOM     13  C   UNL     1     -10.869  15.192  66.090  0.00  0.00    +0.121 A 
ATOM     14  C   UNL     1     -10.367  15.429  67.343  0.00  0.00    +0.049 A 
BRANCH  12  15
ATOM     15  N   UNL     1     -12.731  13.885  65.152  0.00  0.00    +0.119 N 
ATOM     16  O   UNL     1     -12.632  14.618  63.993  0.00  0.00    -0.573 OA
ATOM     17  O   UNL     1     -13.052  12.684  65.027  0.00  0.00    +0.045 OA
ENDBRANCH  12  15
ENDBRANCH   2  10
TORSDOF 3
ENDMDL
MODEL 2
REMARK VINA RESULT:      -6.7      2.364      6.491
REMARK  Name = 
REMARK  3 active torsions:
REMARK  status: ('A' for Active; 'I' for Inactive)
REMARK    1  A    between atoms: N_4  and  N_5
REMARK    2  A    between atoms: C_6  and  C_7
REMARK    3  A    between atoms: C_10  and  N_11
REMARK                            x       y       z     vdW  Elec       q    Type
REMARK                         _______ _______ _______ _____ _____    ______ ____
ROOT
ATOM      1  N   UNL     1     -10.208  15.862  67.496  0.00  0.00    -0.169 NA
ATOM      2  C   UNL     1     -11.187  16.196  68.247  0.00  0.00    +0.155 C 
ENDROOT
BRANCH   1   8
ATOM      3  O   UNL     1     -12.643  14.712  64.208  0.00  0.00    -0.271 OA
ATOM      4  C   UNL     1     -11.591  15.386  64.427  0.00  0.00    +0.272 C 
ATOM      5  N   UNL     1     -11.397  16.796  64.251  0.00  0.00    -0.125 NA
ATOM      6  C   UNL     1     -10.583  17.206  65.356  0.00  0.00    +0.349 C 
ATOM      7  O   UNL     1     -10.317  18.366  65.760  0.00  0.00    -0.249 OA
ATOM      8  N   UNL     1     -10.211  16.040  66.099  0.00  0.00    -0.154 N 
ATOM      9  C   UNL     1     -10.352  14.944  65.141  0.00  0.00    +0.208 C 
ENDBRANCH   1   8
BRANCH   2  10
ATOM     10  C   UNL     1     -11.631  15.443  69.415  0.00  0.00    +0.172 A 
ATOM     11  O   UNL     1     -12.463  15.911  70.310  0.00  0.00    -0.397 OA
ATOM     12  C   UNL     1     -13.039  14.955  70.980  0.00  0.00    +0.447 A 
ATOM     13  C   UNL     1     -12.446  13.771  70.590  0.00  0.00    +0.121 A 
ATOM     14  C   UNL     1     -11.451  14.102  69.709  0.00  0.00    +0.049 A 
BRANCH  12  15
ATOM     15  N   UNL     1     -14.175  14.995  71.843  0.00  0.00    +0.119 N 
ATOM     16  O   UNL     1     -14.534  13.810  72.442  0.00  0.00    -0.573 OA
ATOM     17  O   UNL     1     -14.465  16.042  72.459  0.00  0.00    +0.045 OA
ENDBRANCH  12  15
ENDBRANCH   2  10
TORSDOF 3
ENDMDL
MODEL 3
REMARK VINA RESULT:      -6.5      2.588      6.711
REMARK  Name = 
REMARK  3 active torsions:
REMARK  status: ('A' for Active; 'I' for Inactive)
REMARK    1  A    between atoms: N_4  and  N_5
REMARK    2  A    between atoms: C_6  and  C_7
REMARK    3  A    between atoms: C_10  and  N_11
REMARK                            x       y       z     vdW  Elec       q    Type
REMARK                         _______ _______ _______ _____ _____    ______ ____
ROOT
ATOM      1  N   UNL     1     -11.645  16.440  68.483  0.00  0.00    -0.169 NA
ATOM      2  C   UNL     1     -11.576  15.247  68.935  0.00  0.00    +0.155 C 
ENDROOT
BRANCH   1   8
ATOM      3  O   UNL     1     -11.270  16.850  64.269  0.00  0.00    -0.271 OA
ATOM      4  C   UNL     1     -10.628  17.157  65.319  0.00  0.00    +0.272 C 
ATOM      5  N   UNL     1     -10.353  18.468  65.830  0.00  0.00    -0.125 NA
ATOM      6  C   UNL     1     -10.483  18.353  67.253  0.00  0.00    +0.349 C 
ATOM      7  O   UNL     1     -10.544  19.260  68.120  0.00  0.00    -0.249 OA
ATOM      8  N   UNL     1     -10.712  16.977  67.575  0.00  0.00    -0.154 N 
ATOM      9  C   UNL     1     -10.187  16.247  66.423  0.00  0.00    +0.208 C 
ENDBRANCH   1   8
BRANCH   2  10
ATOM     10  C   UNL     1     -11.916  14.855  70.299  0.00  0.00    +0.172 A 
ATOM     11  O   UNL     1     -12.075  15.703  71.283  0.00  0.00    -0.397 OA
ATOM     12  C   UNL     1     -12.784  15.194  72.248  0.00  0.00    +0.447 A 
ATOM     13  C   UNL     1     -12.997  13.866  71.940  0.00  0.00    +0.121 A 
ATOM     14  C   UNL     1     -12.317  13.619  70.776  0.00  0.00    +0.049 A 
BRANCH  12  15
ATOM     15  N   UNL     1     -13.406  15.830  73.364  0.00  0.00    +0.119 N 
ATOM     16  O   UNL     1     -12.595  16.128  74.434  0.00  0.00    -0.573 OA
ATOM     17  O   UNL     1     -14.403  16.564  73.199  0.00  0.00    +0.045 OA
ENDBRANCH  12  15
ENDBRANCH   2  10
TORSDOF 3
ENDMDL
MODEL 4
REMARK VINA RESULT:      -6.4      1.760      2.555
REMARK  Name = 
REMARK  3 active torsions:
REMARK  status: ('A' for Active; 'I' for Inactive)
REMARK    1  A    between atoms: N_4  and  N_5
REMARK    2  A    between atoms: C_6  and  C_7
REMARK    3  A    between atoms: C_10  and  N_11
REMARK                            x       y       z     vdW  Elec       q    Type
REMARK                         _______ _______ _______ _____ _____    ______ ____
ROOT
ATOM      1  N   UNL     1     -12.054  14.204  69.530  0.00  0.00    -0.169 NA
ATOM      2  C   UNL     1     -11.395  13.299  68.915  0.00  0.00    +0.155 C 
ENDROOT
BRANCH   1   8
ATOM      3  O   UNL     1     -14.809  16.008  72.216  0.00  0.00    -0.271 OA
ATOM      4  C   UNL     1     -13.869  15.158  72.242  0.00  0.00    +0.272 C 
ATOM      5  N   UNL     1     -13.958  13.756  72.529  0.00  0.00    -0.125 NA
ATOM      6  C   UNL     1     -13.040  13.127  71.626  0.00  0.00    +0.349 C 
ATOM      7  O   UNL     1     -12.911  11.909  71.345  0.00  0.00    -0.249 OA
ATOM      8  N   UNL     1     -12.342  14.150  70.907  0.00  0.00    -0.154 N 
ATOM      9  C   UNL     1     -12.462  15.332  71.759  0.00  0.00    +0.208 C 
ENDBRANCH   1   8
BRANCH   2  10
ATOM     10  C   UNL     1     -11.676  12.845  67.557  0.00  0.00    +0.172 A 
ATOM     11  O   UNL     1     -12.255  13.585  66.646  0.00  0.00    -0.397 OA
ATOM     12  C   UNL     1     -12.004  13.156  65.444  0.00  0.00    +0.447 A 
ATOM     13  C   UNL     1     -11.317  11.966  65.572  0.00  0.00    +0.121 A 
ATOM     14  C   UNL     1     -11.243  11.698  66.914  0.00  0.00    +0.049 A 
BRANCH  12  15
ATOM     15  N   UNL     1     -12.207  13.790  64.181  0.00  0.00    +0.119 N 
ATOM     16  O   UNL     1     -12.499  12.967  63.119  0.00  0.00    -0.573 OA
ATOM     17  O   UNL     1     -12.653  14.955  64.123  0.00  0.00    +0.045 OA
ENDBRANCH  12  15
ENDBRANCH   2  10
TORSDOF 3
ENDMDL
MODEL 5
REMARK VINA RESULT:      -6.4      3.537      6.944
REMARK  Name = 
REMARK  3 active torsions:
REMARK  status: ('A' for Active; 'I' for Inactive)
REMARK    1  A    between atoms: N_4  and  N_5
REMARK    2  A    between atoms: C_6  and  C_7
REMARK    3  A    between atoms: C_10  and  N_11
REMARK                            x       y       z     vdW  Elec       q    Type
REMARK                         _______ _______ _______ _____ _____    ______ ____
ROOT
ATOM      1  N   UNL     1     -10.889  17.161  68.047  0.00  0.00    -0.169 NA
ATOM      2  C   UNL     1     -10.416  16.709  69.145  0.00  0.00    +0.155 C 
ENDROOT
BRANCH   1   8
ATOM      3  O   UNL     1      -7.545  19.782  68.005  0.00  0.00    -0.271 OA
ATOM      4  C   UNL     1      -8.734  19.746  67.566  0.00  0.00    +0.272 C 
ATOM      5  N   UNL     1      -9.166  19.698  66.200  0.00  0.00    -0.125 NA
ATOM      6  C   UNL     1     -10.291  18.810  66.190  0.00  0.00    +0.349 C 
ATOM      7  O   UNL     1     -10.881  18.286  65.213  0.00  0.00    -0.249 OA
ATOM      8  N   UNL     1     -10.584  18.439  67.542  0.00  0.00    -0.154 N 
ATOM      9  C   UNL     1      -9.991  19.508  68.344  0.00  0.00    +0.208 C 
ENDBRANCH   1   8
BRANCH   2  10
ATOM     10  C   UNL     1     -11.156  15.878  70.088  0.00  0.00    +0.172 A 
ATOM     11  O   UNL     1     -11.606  16.305  71.240  0.00  0.00    -0.397 OA
ATOM     12  C   UNL     1     -12.576  15.561  71.686  0.00  0.00    +0.447 A 
ATOM     13  C   UNL     1     -12.687  14.483  70.830  0.00  0.00    +0.121 A 
ATOM     14  C   UNL     1     -11.686  14.612  69.904  0.00  0.00    +0.049 A 
BRANCH  12  15
ATOM     15  N   UNL     1     -13.507  15.801  72.740  0.00  0.00    +0.119 N 
ATOM     16  O   UNL     1     -12.992  16.297  73.914  0.00  0.00    -0.573 OA
ATOM     17  O   UNL     1     -14.693  16.096  72.481  0.00  0.00    +0.045 OA
ENDBRANCH  12  15
ENDBRANCH   2  10
TORSDOF 3
ENDMDL
MODEL 6
REMARK VINA RESULT:      -6.3      6.807      9.193
REMARK  Name = 
REMARK  3 active torsions:
REMARK  status: ('A' for Active; 'I' for Inactive)
REMARK    1  A    between atoms: N_4  and  N_5
REMARK    2  A    between atoms: C_6  and  C_7
REMARK    3  A    between atoms: C_10  and  N_11
REMARK                            x       y       z     vdW  Elec       q    Type
REMARK                         _______ _______ _______ _____ _____    ______ ____
ROOT
ATOM      1  N   UNL     1      -7.769  19.010  68.850  0.00  0.00    -0.169 NA
ATOM      2  C   UNL     1      -7.029  19.852  68.238  0.00  0.00    +0.155 C 
ENDROOT
BRANCH   1   8
ATOM      3  O   UNL     1     -10.608  19.749  65.776  0.00  0.00    -0.271 OA
ATOM      4  C   UNL     1     -10.588  19.364  66.983  0.00  0.00    +0.272 C 
ATOM      5  N   UNL     1     -10.952  18.077  67.503  0.00  0.00    -0.125 NA
ATOM      6  C   UNL     1     -10.000  17.805  68.538  0.00  0.00    +0.349 C 
ATOM      7  O   UNL     1      -9.770  16.727  69.142  0.00  0.00    -0.249 OA
ATOM      8  N   UNL     1      -9.168  18.959  68.701  0.00  0.00    -0.154 N 
ATOM      9  C   UNL     1      -9.967  20.056  68.156  0.00  0.00    +0.208 C 
ENDBRANCH   1   8
BRANCH   2  10
ATOM     10  C   UNL     1      -5.852  20.495  68.812  0.00  0.00    +0.172 A 
ATOM     11  O   UNL     1      -5.783  20.919  70.048  0.00  0.00    -0.397 OA
ATOM     12  C   UNL     1      -4.551  21.038  70.450  0.00  0.00    +0.447 A 
ATOM     13  C   UNL     1      -3.742  20.803  69.356  0.00  0.00    +0.121 A 
ATOM     14  C   UNL     1      -4.576  20.607  68.286  0.00  0.00    +0.049 A 
BRANCH  12  15
ATOM     15  N   UNL     1      -4.027  21.211  71.766  0.00  0.00    +0.119 N 
ATOM     16  O   UNL     1      -4.414  22.347  72.438  0.00  0.00    -0.573 OA
ATOM     17  O   UNL     1      -3.739  20.219  72.468  0.00  0.00    +0.045 OA
ENDBRANCH  12  15
ENDBRANCH   2  10
TORSDOF 3
ENDMDL
MODEL 7
REMARK VINA RESULT:      -6.2      1.586      2.352
REMARK  Name = 
REMARK  3 active torsions:
REMARK  status: ('A' for Active; 'I' for Inactive)
REMARK    1  A    between atoms: N_4  and  N_5
REMARK    2  A    between atoms: C_6  and  C_7
REMARK    3  A    between atoms: C_10  and  N_11
REMARK                            x       y       z     vdW  Elec       q    Type
REMARK                         _______ _______ _______ _____ _____    ______ ____
ROOT
ATOM      1  N   UNL     1     -11.369  15.656  69.784  0.00  0.00    -0.169 NA
ATOM      2  C   UNL     1     -10.240  15.424  69.232  0.00  0.00    +0.155 C 
ENDROOT
BRANCH   1   8
ATOM      3  O   UNL     1     -14.502  16.149  72.612  0.00  0.00    -0.271 OA
ATOM      4  C   UNL     1     -13.500  15.397  72.421  0.00  0.00    +0.272 C 
ATOM      5  N   UNL     1     -13.495  13.991  72.135  0.00  0.00    -0.125 NA
ATOM      6  C   UNL     1     -12.448  13.804  71.175  0.00  0.00    +0.349 C 
ATOM      7  O   UNL     1     -12.191  12.799  70.466  0.00  0.00    -0.249 OA
ATOM      8  N   UNL     1     -11.776  15.055  70.991  0.00  0.00    -0.154 N 
ATOM      9  C   UNL     1     -12.075  15.805  72.211  0.00  0.00    +0.208 C 
ENDBRANCH   1   8
BRANCH   2  10
ATOM     10  C   UNL     1     -10.025  15.325  67.793  0.00  0.00    +0.172 A 
ATOM     11  O   UNL     1     -10.961  15.009  66.936  0.00  0.00    -0.397 OA
ATOM     12  C   UNL     1     -10.667  15.405  65.731  0.00  0.00    +0.447 A 
ATOM     13  C   UNL     1      -9.380  15.902  65.770  0.00  0.00    +0.121 A 
ATOM     14  C   UNL     1      -8.923  15.710  67.047  0.00  0.00    +0.049 A 
BRANCH  12  15
ATOM     15  N   UNL     1     -11.491  15.504  64.570  0.00  0.00    +0.119 N 
ATOM     16  O   UNL     1     -12.556  14.637  64.496  0.00  0.00    -0.573 OA
ATOM     17  O   UNL     1     -11.618  16.595  63.975  0.00  0.00    +0.045 OA
ENDBRANCH  12  15
ENDBRANCH   2  10
TORSDOF 3
ENDMDL
MODEL 8
REMARK VINA RESULT:      -6.2      2.717      3.111
REMARK  Name = 
REMARK  3 active torsions:
REMARK  status: ('A' for Active; 'I' for Inactive)
REMARK    1  A    between atoms: N_4  and  N_5
REMARK    2  A    between atoms: C_6  and  C_7
REMARK    3  A    between atoms: C_10  and  N_11
REMARK                            x       y       z     vdW  Elec       q    Type
REMARK                         _______ _______ _______ _____ _____    ______ ____
ROOT
ATOM      1  N   UNL     1     -11.834  16.309  70.616  0.00  0.00    -0.169 NA
ATOM      2  C   UNL     1     -11.481  15.617  69.602  0.00  0.00    +0.155 C 
ENDROOT
BRANCH   1   8
ATOM      3  O   UNL     1     -13.377  12.599  71.998  0.00  0.00    -0.271 OA
ATOM      4  C   UNL     1     -13.521  13.837  72.229  0.00  0.00    +0.272 C 
ATOM      5  N   UNL     1     -13.190  14.554  73.426  0.00  0.00    -0.125 NA
ATOM      6  C   UNL     1     -12.659  15.808  72.981  0.00  0.00    +0.349 C 
ATOM      7  O   UNL     1     -12.042  16.686  73.635  0.00  0.00    -0.249 OA
ATOM      8  N   UNL     1     -12.786  15.872  71.556  0.00  0.00    -0.154 N 
ATOM      9  C   UNL     1     -13.853  14.920  71.249  0.00  0.00    +0.208 C 
ENDBRANCH   1   8
BRANCH   2  10
ATOM     10  C   UNL     1     -11.181  16.168  68.285  0.00  0.00    +0.172 A 
ATOM     11  O   UNL     1     -11.033  17.446  68.045  0.00  0.00    -0.397 OA
ATOM     12  C   UNL     1     -10.357  17.658  66.954  0.00  0.00    +0.447 A 
ATOM     13  C   UNL     1     -10.157  16.430  66.355  0.00  0.00    +0.121 A 
ATOM     14  C   UNL     1     -10.811  15.506  67.126  0.00  0.00    +0.049 A 
BRANCH  12  15
ATOM     15  N   UNL     1      -9.753  18.855  66.465  0.00  0.00    +0.119 N 
ATOM     16  O   UNL     1      -8.493  18.734  65.929  0.00  0.00    -0.573 OA
ATOM     17  O   UNL     1     -10.460  19.786  66.025  0.00  0.00    +0.045 OA
ENDBRANCH  12  15
ENDBRANCH   2  10
TORSDOF 3
ENDMDL
MODEL 9
REMARK VINA RESULT:      -6.1      3.312      6.557
REMARK  Name = 
REMARK  3 active torsions:
REMARK  status: ('A' for Active; 'I' for Inactive)
REMARK    1  A    between atoms: N_4  and  N_5
REMARK    2  A    between atoms: C_6  and  C_7
REMARK    3  A    between atoms: C_10  and  N_11
REMARK                            x       y       z     vdW  Elec       q    Type
REMARK                         _______ _______ _______ _____ _____    ______ ____
ROOT
ATOM      1  N   UNL     1     -10.867  17.653  68.381  0.00  0.00    -0.169 NA
ATOM      2  C   UNL     1     -11.137  16.408  68.282  0.00  0.00    +0.155 C 
ENDROOT
BRANCH   1   8
ATOM      3  O   UNL     1      -6.836  16.778  67.358  0.00  0.00    -0.271 OA
ATOM      4  C   UNL     1      -7.690  17.696  67.170  0.00  0.00    +0.272 C 
ATOM      5  N   UNL     1      -8.293  18.097  65.932  0.00  0.00    -0.125 NA
ATOM      6  C   UNL     1      -9.658  18.389  66.254  0.00  0.00    +0.349 C 
ATOM      7  O   UNL     1     -10.633  18.576  65.484  0.00  0.00    -0.249 OA
ATOM      8  N   UNL     1      -9.822  18.276  67.672  0.00  0.00    -0.154 N 
ATOM      9  C   UNL     1      -8.470  18.448  68.203  0.00  0.00    +0.208 C 
ENDBRANCH   1   8
BRANCH   2  10
ATOM     10  C   UNL     1     -11.571  15.563  69.388  0.00  0.00    +0.172 A 
ATOM     11  O   UNL     1     -12.416  15.946  70.311  0.00  0.00    -0.397 OA
ATOM     12  C   UNL     1     -12.976  14.932  70.904  0.00  0.00    +0.447 A 
ATOM     13  C   UNL     1     -12.359  13.792  70.430  0.00  0.00    +0.121 A 
ATOM     14  C   UNL     1     -11.367  14.207  69.581  0.00  0.00    +0.049 A 
BRANCH  12  15
ATOM     15  N   UNL     1     -14.116  14.886  71.762  0.00  0.00    +0.119 N 
ATOM     16  O   UNL     1     -14.288  13.735  72.494  0.00  0.00    -0.573 OA
ATOM     17  O   UNL     1     -14.579  15.936  72.255  0.00  0.00    +0.045 OA
ENDBRANCH  12  15
ENDBRANCH   2  10
TORSDOF 3
ENDMDL
