MODEL 1
REMARK VINA RESULT:      -6.9      0.000      0.000
REMARK  Name = 
REMARK  7 active torsions:
REMARK  status: ('A' for Active; 'I' for Inactive)
REMARK    1  A    between atoms: O_2  and  C_3
REMARK    2  A    between atoms: C_7  and  C_8
REMARK    3  A    between atoms: C_8  and  S_9
REMARK    4  A    between atoms: S_9  and  C_11
REMARK    5  A    between atoms: C_16  and  O_17
REMARK    6  A    between atoms: O_17  and  C_18
REMARK    7  A    between atoms: C_24  and  O_25
REMARK                            x       y       z     vdW  Elec       q    Type
REMARK                         _______ _______ _______ _____ _____    ______ ____
ROOT
ATOM      1  S   UNL     1      -8.861  17.087  67.094  0.00  0.00    +0.107 S 
ATOM      2  O   UNL     1      -9.540  17.753  65.860  0.00  0.00    -0.248 OA
ENDROOT
BRANCH   1   3
ATOM      3  C   UNL     1     -10.275  16.204  67.804  0.00  0.00    +0.221 A 
ATOM      4  N   UNL     1     -11.294  16.772  68.493  0.00  0.00    -0.218 NA
ATOM      5  C   UNL     1     -11.843  15.862  69.335  0.00  0.00    +0.104 A 
ATOM      6  C   UNL     1     -11.468  14.640  68.790  0.00  0.00    +0.101 A 
ATOM      7  C   UNL     1     -11.834  13.504  69.498  0.00  0.00    +0.024 A 
ATOM      8  C   UNL     1     -12.297  13.578  70.806  0.00  0.00    +0.039 A 
ATOM      9  C   UNL     1     -12.348  14.802  71.463  0.00  0.00    +0.146 A 
ATOM     10  C   UNL     1     -12.333  15.917  70.635  0.00  0.00    +0.058 A 
ATOM     11  N   UNL     1     -10.398  14.890  67.995  0.00  0.00    -0.218 NA
BRANCH   9  12
ATOM     12  O   UNL     1     -11.992  14.876  72.813  0.00  0.00    -0.424 OA
BRANCH  12  13
ATOM     13  C   UNL     1     -12.551  15.808  73.704  0.00  0.00    +0.509 C 
ATOM     14  F   UNL     1     -12.376  15.451  75.016  0.00  0.00    -0.155 F 
ATOM     15  F   UNL     1     -13.852  16.107  73.384  0.00  0.00    -0.155 F 
ENDBRANCH  12  13
ENDBRANCH   9  12
ENDBRANCH   1   3
BRANCH   1  16
ATOM     16  C   UNL     1      -8.747  18.545  68.211  0.00  0.00    +0.148 C 
BRANCH  16  19
ATOM     17  C   UNL     1      -5.765  20.658  68.920  0.00  0.00    +0.175 A 
ATOM     18  C   UNL     1      -6.683  19.621  68.975  0.00  0.00    +0.187 A 
ATOM     19  C   UNL     1      -7.519  19.319  67.909  0.00  0.00    +0.110 A 
ATOM     20  N   UNL     1      -7.398  20.002  66.760  0.00  0.00    -0.244 NA
ATOM     21  C   UNL     1      -6.432  20.936  66.619  0.00  0.00    +0.102 A 
ATOM     22  C   UNL     1      -5.693  21.351  67.720  0.00  0.00    +0.061 A 
BRANCH  17  24
ATOM     23  C   UNL     1      -3.966  21.084  70.299  0.00  0.00    +0.253 C 
ATOM     24  O   UNL     1      -5.231  21.199  70.093  0.00  0.00    -0.468 OA
ENDBRANCH  17  24
BRANCH  18  25
ATOM     25  O   UNL     1      -6.528  18.690  70.005  0.00  0.00    -0.467 OA
ATOM     26  C   UNL     1      -5.569  17.673  69.854  0.00  0.00    +0.253 C 
ENDBRANCH  18  25
ENDBRANCH  16  19
ENDBRANCH   1  16
TORSDOF 7
ENDMDL
MODEL 2
REMARK VINA RESULT:      -6.8      4.251      6.213
REMARK  Name = 
REMARK  7 active torsions:
REMARK  status: ('A' for Active; 'I' for Inactive)
REMARK    1  A    between atoms: O_2  and  C_3
REMARK    2  A    between atoms: C_7  and  C_8
REMARK    3  A    between atoms: C_8  and  S_9
REMARK    4  A    between atoms: S_9  and  C_11
REMARK    5  A    between atoms: C_16  and  O_17
REMARK    6  A    between atoms: O_17  and  C_18
REMARK    7  A    between atoms: C_24  and  O_25
REMARK                            x       y       z     vdW  Elec       q    Type
REMARK                         _______ _______ _______ _____ _____    ______ ____
ROOT
ATOM      1  S   UNL     1      -9.526  15.963  68.129  0.00  0.00    +0.107 S 
ATOM      2  O   UNL     1      -8.458  15.629  69.213  0.00  0.00    -0.248 OA
ENDROOT
BRANCH   1   3
ATOM      3  C   UNL     1     -10.979  15.153  68.847  0.00  0.00    +0.221 A 
ATOM      4  N   UNL     1     -12.161  15.755  69.125  0.00  0.00    -0.218 NA
ATOM      5  C   UNL     1     -12.795  15.085  70.119  0.00  0.00    +0.104 A 
ATOM      6  C   UNL     1     -12.219  13.821  70.085  0.00  0.00    +0.101 A 
ATOM      7  C   UNL     1     -12.629  12.924  71.061  0.00  0.00    +0.024 A 
ATOM      8  C   UNL     1     -13.355  13.336  72.171  0.00  0.00    +0.039 A 
ATOM      9  C   UNL     1     -13.638  14.683  72.362  0.00  0.00    +0.146 A 
ATOM     10  C   UNL     1     -13.545  15.474  71.224  0.00  0.00    +0.058 A 
ATOM     11  N   UNL     1     -11.033  13.961  69.443  0.00  0.00    -0.218 NA
BRANCH   9  12
ATOM     12  O   UNL     1     -13.573  15.227  73.649  0.00  0.00    -0.424 OA
BRANCH  12  13
ATOM     13  C   UNL     1     -12.384  15.709  74.219  0.00  0.00    +0.509 C 
ATOM     14  F   UNL     1     -12.462  15.822  75.583  0.00  0.00    -0.155 F 
ATOM     15  F   UNL     1     -11.942  16.851  73.598  0.00  0.00    -0.155 F 
ENDBRANCH  12  13
ENDBRANCH   9  12
ENDBRANCH   1   3
BRANCH   1  16
ATOM     16  C   UNL     1      -9.041  14.752  66.830  0.00  0.00    +0.148 C 
BRANCH  16  19
ATOM     17  C   UNL     1     -11.105  12.483  64.720  0.00  0.00    +0.175 A 
ATOM     18  C   UNL     1     -10.284  12.947  65.736  0.00  0.00    +0.187 A 
ATOM     19  C   UNL     1     -10.243  14.286  66.099  0.00  0.00    +0.110 A 
ATOM     20  N   UNL     1     -11.070  15.158  65.501  0.00  0.00    -0.244 NA
ATOM     21  C   UNL     1     -11.976  14.729  64.595  0.00  0.00    +0.102 A 
ATOM     22  C   UNL     1     -11.925  13.426  64.116  0.00  0.00    +0.061 A 
BRANCH  17  24
ATOM     23  C   UNL     1     -10.051  11.226  63.101  0.00  0.00    +0.253 C 
ATOM     24  O   UNL     1     -10.853  11.253  64.106  0.00  0.00    -0.468 OA
ENDBRANCH  17  24
BRANCH  18  25
ATOM     25  O   UNL     1      -9.734  11.991  66.594  0.00  0.00    -0.467 OA
ATOM     26  C   UNL     1     -10.599  11.259  67.427  0.00  0.00    +0.253 C 
ENDBRANCH  18  25
ENDBRANCH  16  19
ENDBRANCH   1  16
TORSDOF 7
ENDMDL
MODEL 3
REMARK VINA RESULT:      -6.7      4.073      4.949
REMARK  Name = 
REMARK  7 active torsions:
REMARK  status: ('A' for Active; 'I' for Inactive)
REMARK    1  A    between atoms: O_2  and  C_3
REMARK    2  A    between atoms: C_7  and  C_8
REMARK    3  A    between atoms: C_8  and  S_9
REMARK    4  A    between atoms: S_9  and  C_11
REMARK    5  A    between atoms: C_16  and  O_17
REMARK    6  A    between atoms: O_17  and  C_18
REMARK    7  A    between atoms: C_24  and  O_25
REMARK                            x       y       z     vdW  Elec       q    Type
REMARK                         _______ _______ _______ _____ _____    ______ ____
ROOT
ATOM      1  S   UNL     1      -9.398  19.242  66.116  0.00  0.00    +0.107 S 
ATOM      2  O   UNL     1     -10.882  19.713  66.057  0.00  0.00    -0.248 OA
ENDROOT
BRANCH   1   3
ATOM      3  C   UNL     1      -9.629  17.496  66.539  0.00  0.00    +0.221 A 
ATOM      4  N   UNL     1      -9.112  16.444  65.857  0.00  0.00    -0.218 NA
ATOM      5  C   UNL     1      -9.884  15.347  66.052  0.00  0.00    +0.104 A 
ATOM      6  C   UNL     1     -10.569  15.629  67.227  0.00  0.00    +0.101 A 
ATOM      7  C   UNL     1     -11.509  14.695  67.640  0.00  0.00    +0.024 A 
ATOM      8  C   UNL     1     -11.945  13.679  66.798  0.00  0.00    +0.039 A 
ATOM      9  C   UNL     1     -11.489  13.613  65.486  0.00  0.00    +0.146 A 
ATOM     10  C   UNL     1     -10.314  14.308  65.233  0.00  0.00    +0.058 A 
ATOM     11  N   UNL     1     -10.523  16.975  67.380  0.00  0.00    -0.218 NA
BRANCH   9  12
ATOM     12  O   UNL     1     -12.376  13.259  64.464  0.00  0.00    -0.424 OA
BRANCH  12  13
ATOM     13  C   UNL     1     -12.094  12.265  63.513  0.00  0.00    +0.509 C 
ATOM     14  F   UNL     1     -13.228  11.738  62.950  0.00  0.00    -0.155 F 
ATOM     15  F   UNL     1     -11.231  11.316  64.002  0.00  0.00    -0.155 F 
ENDBRANCH  12  13
ENDBRANCH   9  12
ENDBRANCH   1   3
BRANCH   1  16
ATOM     16  C   UNL     1      -8.912  19.948  67.745  0.00  0.00    +0.148 C 
BRANCH  16  19
ATOM     17  C   UNL     1      -5.521  19.669  69.256  0.00  0.00    +0.175 A 
ATOM     18  C   UNL     1      -6.788  19.338  68.802  0.00  0.00    +0.187 A 
ATOM     19  C   UNL     1      -7.437  20.075  67.822  0.00  0.00    +0.110 A 
ATOM     20  N   UNL     1      -6.801  21.103  67.238  0.00  0.00    -0.244 NA
ATOM     21  C   UNL     1      -5.519  21.383  67.559  0.00  0.00    +0.102 A 
ATOM     22  C   UNL     1      -4.913  20.754  68.638  0.00  0.00    +0.061 A 
BRANCH  17  24
ATOM     23  C   UNL     1      -5.370  19.833  71.550  0.00  0.00    +0.253 C 
ATOM     24  O   UNL     1      -5.055  19.189  70.483  0.00  0.00    -0.468 OA
ENDBRANCH  17  24
BRANCH  18  25
ATOM     25  O   UNL     1      -7.267  18.066  69.127  0.00  0.00    -0.467 OA
ATOM     26  C   UNL     1      -6.655  16.947  68.536  0.00  0.00    +0.253 C 
ENDBRANCH  18  25
ENDBRANCH  16  19
ENDBRANCH   1  16
TORSDOF 7
ENDMDL
MODEL 4
REMARK VINA RESULT:      -6.6      1.984      2.398
REMARK  Name = 
REMARK  7 active torsions:
REMARK  status: ('A' for Active; 'I' for Inactive)
REMARK    1  A    between atoms: O_2  and  C_3
REMARK    2  A    between atoms: C_7  and  C_8
REMARK    3  A    between atoms: C_8  and  S_9
REMARK    4  A    between atoms: S_9  and  C_11
REMARK    5  A    between atoms: C_16  and  O_17
REMARK    6  A    between atoms: O_17  and  C_18
REMARK    7  A    between atoms: C_24  and  O_25
REMARK                            x       y       z     vdW  Elec       q    Type
REMARK                         _______ _______ _______ _____ _____    ______ ____
ROOT
ATOM      1  S   UNL     1      -9.377  15.293  66.171  0.00  0.00    +0.107 S 
ATOM      2  O   UNL     1     -10.095  16.396  65.336  0.00  0.00    -0.248 OA
ENDROOT
BRANCH   1   3
ATOM      3  C   UNL     1     -10.720  14.806  67.286  0.00  0.00    +0.221 A 
ATOM      4  N   UNL     1     -11.602  15.651  67.876  0.00  0.00    -0.218 NA
ATOM      5  C   UNL     1     -12.072  15.098  69.020  0.00  0.00    +0.104 A 
ATOM      6  C   UNL     1     -11.842  13.738  68.849  0.00  0.00    +0.101 A 
ATOM      7  C   UNL     1     -12.162  12.913  69.918  0.00  0.00    +0.024 A 
ATOM      8  C   UNL     1     -12.431  13.427  71.180  0.00  0.00    +0.039 A 
ATOM      9  C   UNL     1     -12.325  14.793  71.418  0.00  0.00    +0.146 A 
ATOM     10  C   UNL     1     -12.370  15.594  70.285  0.00  0.00    +0.058 A 
ATOM     11  N   UNL     1     -10.884  13.632  67.896  0.00  0.00    -0.218 NA
BRANCH   9  12
ATOM     12  O   UNL     1     -11.778  15.244  72.623  0.00  0.00    -0.424 OA
BRANCH  12  13
ATOM     13  C   UNL     1     -12.525  15.927  73.597  0.00  0.00    +0.509 C 
ATOM     14  F   UNL     1     -12.330  15.426  74.858  0.00  0.00    -0.155 F 
ATOM     15  F   UNL     1     -13.848  16.037  73.247  0.00  0.00    -0.155 F 
ENDBRANCH  12  13
ENDBRANCH   9  12
ENDBRANCH   1   3
BRANCH   1  16
ATOM     16  C   UNL     1      -8.357  16.354  67.276  0.00  0.00    +0.148 C 
BRANCH  16  19
ATOM     17  C   UNL     1      -7.859  19.984  66.618  0.00  0.00    +0.175 A 
ATOM     18  C   UNL     1      -7.829  18.606  66.470  0.00  0.00    +0.187 A 
ATOM     19  C   UNL     1      -8.740  17.776  67.107  0.00  0.00    +0.110 A 
ATOM     20  N   UNL     1      -9.728  18.316  67.837  0.00  0.00    -0.244 NA
ATOM     21  C   UNL     1      -9.872  19.659  67.906  0.00  0.00    +0.102 A 
ATOM     22  C   UNL     1      -8.885  20.495  67.401  0.00  0.00    +0.061 A 
BRANCH  17  24
ATOM     23  C   UNL     1      -5.981  21.145  67.283  0.00  0.00    +0.253 C 
ATOM     24  O   UNL     1      -6.735  20.758  66.315  0.00  0.00    -0.468 OA
ENDBRANCH  17  24
BRANCH  18  25
ATOM     25  O   UNL     1      -7.061  18.097  65.420  0.00  0.00    -0.467 OA
ATOM     26  C   UNL     1      -5.716  17.769  65.669  0.00  0.00    +0.253 C 
ENDBRANCH  18  25
ENDBRANCH  16  19
ENDBRANCH   1  16
TORSDOF 7
ENDMDL
MODEL 5
REMARK VINA RESULT:      -6.6      4.967      6.595
REMARK  Name = 
REMARK  7 active torsions:
REMARK  status: ('A' for Active; 'I' for Inactive)
REMARK    1  A    between atoms: O_2  and  C_3
REMARK    2  A    between atoms: C_7  and  C_8
REMARK    3  A    between atoms: C_8  and  S_9
REMARK    4  A    between atoms: S_9  and  C_11
REMARK    5  A    between atoms: C_16  and  O_17
REMARK    6  A    between atoms: O_17  and  C_18
REMARK    7  A    between atoms: C_24  and  O_25
REMARK                            x       y       z     vdW  Elec       q    Type
REMARK                         _______ _______ _______ _____ _____    ______ ____
ROOT
ATOM      1  S   UNL     1     -10.863  12.566  66.619  0.00  0.00    +0.107 S 
ATOM      2  O   UNL     1     -12.086  11.850  65.971  0.00  0.00    -0.248 OA
ENDROOT
BRANCH   1   3
ATOM      3  C   UNL     1     -10.926  11.865  68.289  0.00  0.00    +0.221 A 
ATOM      4  N   UNL     1      -9.998  11.039  68.832  0.00  0.00    -0.218 NA
ATOM      5  C   UNL     1     -10.572  10.275  69.794  0.00  0.00    +0.104 A 
ATOM      6  C   UNL     1     -11.709  10.989  70.149  0.00  0.00    +0.101 A 
ATOM      7  C   UNL     1     -12.550  10.398  71.081  0.00  0.00    +0.024 A 
ATOM      8  C   UNL     1     -12.421   9.060  71.434  0.00  0.00    +0.039 A 
ATOM      9  C   UNL     1     -11.474   8.259  70.807  0.00  0.00    +0.146 A 
ATOM     10  C   UNL     1     -10.443   8.944  70.179  0.00  0.00    +0.058 A 
ATOM     11  N   UNL     1     -11.972  11.824  69.114  0.00  0.00    -0.218 NA
BRANCH   9  12
ATOM     12  O   UNL     1     -11.798   6.939  70.474  0.00  0.00    -0.424 OA
BRANCH  12  13
ATOM     13  C   UNL     1     -11.044   6.168  69.573  0.00  0.00    +0.509 C 
ATOM     14  F   UNL     1     -11.607   6.118  68.325  0.00  0.00    -0.155 F 
ATOM     15  F   UNL     1     -10.734   4.934  70.087  0.00  0.00    -0.155 F 
ENDBRANCH  12  13
ENDBRANCH   9  12
ENDBRANCH   1   3
BRANCH   1  16
ATOM     16  C   UNL     1     -11.592  14.233  66.899  0.00  0.00    +0.148 C 
BRANCH  16  19
ATOM     17  C   UNL     1     -10.090  17.567  67.601  0.00  0.00    +0.175 A 
ATOM     18  C   UNL     1     -10.851  16.415  67.730  0.00  0.00    +0.187 A 
ATOM     19  C   UNL     1     -10.513  15.231  67.090  0.00  0.00    +0.110 A 
ATOM     20  N   UNL     1      -9.378  15.167  66.375  0.00  0.00    -0.244 NA
ATOM     21  C   UNL     1      -8.541  16.227  66.326  0.00  0.00    +0.102 A 
ATOM     22  C   UNL     1      -8.938  17.457  66.833  0.00  0.00    +0.061 A 
BRANCH  17  24
ATOM     23  C   UNL     1     -10.578  19.741  67.009  0.00  0.00    +0.253 C 
ATOM     24  O   UNL     1     -10.633  18.818  67.904  0.00  0.00    -0.468 OA
ENDBRANCH  17  24
BRANCH  18  25
ATOM     25  O   UNL     1     -11.787  16.386  68.766  0.00  0.00    -0.467 OA
ATOM     26  C   UNL     1     -11.338  16.113  70.070  0.00  0.00    +0.253 C 
ENDBRANCH  18  25
ENDBRANCH  16  19
ENDBRANCH   1  16
TORSDOF 7
ENDMDL
MODEL 6
REMARK VINA RESULT:      -6.5      4.321      8.166
REMARK  Name = 
REMARK  7 active torsions:
REMARK  status: ('A' for Active; 'I' for Inactive)
REMARK    1  A    between atoms: O_2  and  C_3
REMARK    2  A    between atoms: C_7  and  C_8
REMARK    3  A    between atoms: C_8  and  S_9
REMARK    4  A    between atoms: S_9  and  C_11
REMARK    5  A    between atoms: C_16  and  O_17
REMARK    6  A    between atoms: O_17  and  C_18
REMARK    7  A    between atoms: C_24  and  O_25
REMARK                            x       y       z     vdW  Elec       q    Type
REMARK                         _______ _______ _______ _____ _____    ______ ____
ROOT
ATOM      1  S   UNL     1     -10.311  14.542  68.325  0.00  0.00    +0.107 S 
ATOM      2  O   UNL     1     -10.488  14.940  69.821  0.00  0.00    -0.248 OA
ENDROOT
BRANCH   1   3
ATOM      3  C   UNL     1     -10.313  16.181  67.552  0.00  0.00    +0.221 A 
ATOM      4  N   UNL     1      -9.505  16.575  66.537  0.00  0.00    -0.218 NA
ATOM      5  C   UNL     1      -9.347  17.921  66.573  0.00  0.00    +0.104 A 
ATOM      6  C   UNL     1     -10.444  18.363  67.303  0.00  0.00    +0.101 A 
ATOM      7  C   UNL     1     -10.507  19.724  67.569  0.00  0.00    +0.024 A 
ATOM      8  C   UNL     1      -9.414  20.557  67.368  0.00  0.00    +0.039 A 
ATOM      9  C   UNL     1      -8.198  20.029  66.948  0.00  0.00    +0.146 A 
ATOM     10  C   UNL     1      -8.273  18.776  66.353  0.00  0.00    +0.058 A 
ATOM     11  N   UNL     1     -10.885  17.294  68.010  0.00  0.00    -0.218 NA
BRANCH   9  12
ATOM     12  O   UNL     1      -7.007  20.524  67.488  0.00  0.00    -0.424 OA
BRANCH  12  13
ATOM     13  C   UNL     1      -6.452  20.048  68.687  0.00  0.00    +0.509 C 
ATOM     14  F   UNL     1      -7.330  19.276  69.403  0.00  0.00    -0.155 F 
ATOM     15  F   UNL     1      -5.879  21.054  69.423  0.00  0.00    -0.155 F 
ENDBRANCH  12  13
ENDBRANCH   9  12
ENDBRANCH   1   3
BRANCH   1  16
ATOM     16  C   UNL     1     -12.018  13.963  67.953  0.00  0.00    +0.148 C 
BRANCH  16  19
ATOM     17  C   UNL     1     -11.210  11.748  65.072  0.00  0.00    +0.175 A 
ATOM     18  C   UNL     1     -11.592  12.174  66.335  0.00  0.00    +0.187 A 
ATOM     19  C   UNL     1     -12.086  13.451  66.564  0.00  0.00    +0.110 A 
ATOM     20  N   UNL     1     -12.269  14.285  65.528  0.00  0.00    -0.244 NA
ATOM     21  C   UNL     1     -12.029  13.868  64.265  0.00  0.00    +0.102 A 
ATOM     22  C   UNL     1     -11.395  12.653  64.037  0.00  0.00    +0.061 A 
BRANCH  17  24
ATOM     23  C   UNL     1      -9.837  10.437  63.763  0.00  0.00    +0.253 C 
ATOM     24  O   UNL     1     -10.363  10.647  64.918  0.00  0.00    -0.468 OA
ENDBRANCH  17  24
BRANCH  18  25
ATOM     25  O   UNL     1     -11.764  11.191  67.312  0.00  0.00    -0.467 OA
ATOM     26  C   UNL     1     -10.632  10.720  67.998  0.00  0.00    +0.253 C 
ENDBRANCH  18  25
ENDBRANCH  16  19
ENDBRANCH   1  16
TORSDOF 7
ENDMDL
MODEL 7
REMARK VINA RESULT:      -6.5      3.979      8.156
REMARK  Name = 
REMARK  7 active torsions:
REMARK  status: ('A' for Active; 'I' for Inactive)
REMARK    1  A    between atoms: O_2  and  C_3
REMARK    2  A    between atoms: C_7  and  C_8
REMARK    3  A    between atoms: C_8  and  S_9
REMARK    4  A    between atoms: S_9  and  C_11
REMARK    5  A    between atoms: C_16  and  O_17
REMARK    6  A    between atoms: O_17  and  C_18
REMARK    7  A    between atoms: C_24  and  O_25
REMARK                            x       y       z     vdW  Elec       q    Type
REMARK                         _______ _______ _______ _____ _____    ______ ____
ROOT
ATOM      1  S   UNL     1     -10.856  15.197  69.767  0.00  0.00    +0.107 S 
ATOM      2  O   UNL     1     -11.834  16.043  70.636  0.00  0.00    -0.248 OA
ENDROOT
BRANCH   1   3
ATOM      3  C   UNL     1     -10.500  16.376  68.438  0.00  0.00    +0.221 A 
ATOM      4  N   UNL     1      -9.347  16.439  67.728  0.00  0.00    -0.218 NA
ATOM      5  C   UNL     1      -9.169  17.696  67.253  0.00  0.00    +0.104 A 
ATOM      6  C   UNL     1     -10.448  18.240  67.271  0.00  0.00    +0.101 A 
ATOM      7  C   UNL     1     -10.562  19.573  66.899  0.00  0.00    +0.024 A 
ATOM      8  C   UNL     1      -9.449  20.396  66.786  0.00  0.00    +0.039 A 
ATOM      9  C   UNL     1      -8.185  19.913  67.105  0.00  0.00    +0.146 A 
ATOM     10  C   UNL     1      -8.065  18.530  67.108  0.00  0.00    +0.058 A 
ATOM     11  N   UNL     1     -11.167  17.492  68.143  0.00  0.00    -0.218 NA
BRANCH   9  12
ATOM     12  O   UNL     1      -7.283  20.737  67.785  0.00  0.00    -0.424 OA
BRANCH  12  13
ATOM     13  C   UNL     1      -6.399  20.261  68.768  0.00  0.00    +0.509 C 
ATOM     14  F   UNL     1      -7.052  19.788  69.877  0.00  0.00    -0.155 F 
ATOM     15  F   UNL     1      -5.413  21.171  69.057  0.00  0.00    -0.155 F 
ENDBRANCH  12  13
ENDBRANCH   9  12
ENDBRANCH   1   3
BRANCH   1  16
ATOM     16  C   UNL     1     -12.062  14.076  68.944  0.00  0.00    +0.148 C 
BRANCH  16  19
ATOM     17  C   UNL     1     -11.555  12.205  65.765  0.00  0.00    +0.175 A 
ATOM     18  C   UNL     1     -11.817  13.234  66.657  0.00  0.00    +0.187 A 
ATOM     19  C   UNL     1     -11.360  13.209  67.967  0.00  0.00    +0.110 A 
ATOM     20  N   UNL     1     -10.583  12.195  68.377  0.00  0.00    -0.244 NA
ATOM     21  C   UNL     1     -10.197  11.235  67.507  0.00  0.00    +0.102 A 
ATOM     22  C   UNL     1     -10.766  11.167  66.242  0.00  0.00    +0.061 A 
BRANCH  17  24
ATOM     23  C   UNL     1     -11.728  11.814  63.500  0.00  0.00    +0.253 C 
ATOM     24  O   UNL     1     -12.330  12.046  64.613  0.00  0.00    -0.468 OA
ENDBRANCH  17  24
BRANCH  18  25
ATOM     25  O   UNL     1     -12.279  14.438  66.119  0.00  0.00    -0.467 OA
ATOM     26  C   UNL     1     -11.467  15.116  65.193  0.00  0.00    +0.253 C 
ENDBRANCH  18  25
ENDBRANCH  16  19
ENDBRANCH   1  16
TORSDOF 7
ENDMDL
MODEL 8
REMARK VINA RESULT:      -6.5      1.597      2.303
REMARK  Name = 
REMARK  7 active torsions:
REMARK  status: ('A' for Active; 'I' for Inactive)
REMARK    1  A    between atoms: O_2  and  C_3
REMARK    2  A    between atoms: C_7  and  C_8
REMARK    3  A    between atoms: C_8  and  S_9
REMARK    4  A    between atoms: S_9  and  C_11
REMARK    5  A    between atoms: C_16  and  O_17
REMARK    6  A    between atoms: O_17  and  C_18
REMARK    7  A    between atoms: C_24  and  O_25
REMARK                            x       y       z     vdW  Elec       q    Type
REMARK                         _______ _______ _______ _____ _____    ______ ____
ROOT
ATOM      1  S   UNL     1      -9.373  15.391  66.222  0.00  0.00    +0.107 S 
ATOM      2  O   UNL     1     -10.164  15.575  64.892  0.00  0.00    -0.248 OA
ENDROOT
BRANCH   1   3
ATOM      3  C   UNL     1     -10.720  14.915  67.336  0.00  0.00    +0.221 A 
ATOM      4  N   UNL     1     -11.579  15.769  67.946  0.00  0.00    -0.218 NA
ATOM      5  C   UNL     1     -12.055  15.207  69.084  0.00  0.00    +0.104 A 
ATOM      6  C   UNL     1     -11.857  13.846  68.888  0.00  0.00    +0.101 A 
ATOM      7  C   UNL     1     -12.189  13.010  69.944  0.00  0.00    +0.024 A 
ATOM      8  C   UNL     1     -12.440  13.508  71.217  0.00  0.00    +0.039 A 
ATOM      9  C   UNL     1     -12.301  14.866  71.477  0.00  0.00    +0.146 A 
ATOM     10  C   UNL     1     -12.335  15.688  70.358  0.00  0.00    +0.058 A 
ATOM     11  N   UNL     1     -10.907  13.734  67.927  0.00  0.00    -0.218 NA
BRANCH   9  12
ATOM     12  O   UNL     1     -11.737  15.283  72.687  0.00  0.00    -0.424 OA
BRANCH  12  13
ATOM     13  C   UNL     1     -12.460  15.979  73.671  0.00  0.00    +0.509 C 
ATOM     14  F   UNL     1     -12.295  15.442  74.922  0.00  0.00    -0.155 F 
ATOM     15  F   UNL     1     -13.774  16.154  73.316  0.00  0.00    -0.155 F 
ENDBRANCH  12  13
ENDBRANCH   9  12
ENDBRANCH   1   3
BRANCH   1  16
ATOM     16  C   UNL     1      -9.127  17.156  66.685  0.00  0.00    +0.148 C 
BRANCH  16  19
ATOM     17  C   UNL     1      -6.664  18.679  69.024  0.00  0.00    +0.175 A 
ATOM     18  C   UNL     1      -7.783  18.506  68.224  0.00  0.00    +0.187 A 
ATOM     19  C   UNL     1      -8.258  17.248  67.882  0.00  0.00    +0.110 A 
ATOM     20  N   UNL     1      -7.666  16.157  68.392  0.00  0.00    -0.244 NA
ATOM     21  C   UNL     1      -6.652  16.280  69.276  0.00  0.00    +0.102 A 
ATOM     22  C   UNL     1      -6.071  17.521  69.508  0.00  0.00    +0.061 A 
BRANCH  17  24
ATOM     23  C   UNL     1      -5.720  20.446  70.165  0.00  0.00    +0.253 C 
ATOM     24  O   UNL     1      -5.974  19.894  69.031  0.00  0.00    -0.468 OA
ENDBRANCH  17  24
BRANCH  18  25
ATOM     25  O   UNL     1      -8.603  19.620  68.030  0.00  0.00    -0.467 OA
ATOM     26  C   UNL     1      -9.770  19.739  68.804  0.00  0.00    +0.253 C 
ENDBRANCH  18  25
ENDBRANCH  16  19
ENDBRANCH   1  16
TORSDOF 7
ENDMDL
MODEL 9
REMARK VINA RESULT:      -6.4      4.784      8.378
REMARK  Name = 
REMARK  7 active torsions:
REMARK  status: ('A' for Active; 'I' for Inactive)
REMARK    1  A    between atoms: O_2  and  C_3
REMARK    2  A    between atoms: C_7  and  C_8
REMARK    3  A    between atoms: C_8  and  S_9
REMARK    4  A    between atoms: S_9  and  C_11
REMARK    5  A    between atoms: C_16  and  O_17
REMARK    6  A    between atoms: O_17  and  C_18
REMARK    7  A    between atoms: C_24  and  O_25
REMARK                            x       y       z     vdW  Elec       q    Type
REMARK                         _______ _______ _______ _____ _____    ______ ____
ROOT
ATOM      1  S   UNL     1     -12.548  14.085  65.393  0.00  0.00    +0.107 S 
ATOM      2  O   UNL     1     -12.604  14.879  64.054  0.00  0.00    -0.248 OA
ENDROOT
BRANCH   1   3
ATOM      3  C   UNL     1     -10.971  14.681  66.057  0.00  0.00    +0.221 A 
ATOM      4  N   UNL     1     -10.647  14.759  67.371  0.00  0.00    -0.218 NA
ATOM      5  C   UNL     1      -9.708  15.718  67.557  0.00  0.00    +0.104 A 
ATOM      6  C   UNL     1      -9.131  15.863  66.301  0.00  0.00    +0.101 A 
ATOM      7  C   UNL     1      -8.166  16.852  66.169  0.00  0.00    +0.024 A 
ATOM      8  C   UNL     1      -7.982  17.825  67.144  0.00  0.00    +0.039 A 
ATOM      9  C   UNL     1      -8.811  17.865  68.259  0.00  0.00    +0.146 A 
ATOM     10  C   UNL     1      -9.490  16.685  68.533  0.00  0.00    +0.058 A 
ATOM     11  N   UNL     1     -10.025  15.365  65.412  0.00  0.00    -0.218 NA
BRANCH   9  12
ATOM     12  O   UNL     1      -9.240  19.099  68.756  0.00  0.00    -0.424 OA
BRANCH  12  13
ATOM     13  C   UNL     1     -10.091  19.960  68.042  0.00  0.00    +0.509 C 
ATOM     14  F   UNL     1     -11.031  19.283  67.310  0.00  0.00    -0.155 F 
ATOM     15  F   UNL     1      -9.389  20.888  67.313  0.00  0.00    -0.155 F 
ENDBRANCH  12  13
ENDBRANCH   9  12
ENDBRANCH   1   3
BRANCH   1  16
ATOM     16  C   UNL     1     -12.067  12.427  64.753  0.00  0.00    +0.148 C 
BRANCH  16  19
ATOM     17  C   UNL     1      -9.804   9.814  66.134  0.00  0.00    +0.175 A 
ATOM     18  C   UNL     1     -10.290  10.854  65.357  0.00  0.00    +0.187 A 
ATOM     19  C   UNL     1     -11.315  11.683  65.791  0.00  0.00    +0.110 A 
ATOM     20  N   UNL     1     -11.815  11.525  67.026  0.00  0.00    -0.244 NA
ATOM     21  C   UNL     1     -11.286  10.606  67.865  0.00  0.00    +0.102 A 
ATOM     22  C   UNL     1     -10.368   9.676  67.395  0.00  0.00    +0.061 A 
BRANCH  17  24
ATOM     23  C   UNL     1      -7.866   8.582  65.933  0.00  0.00    +0.253 C 
ATOM     24  O   UNL     1      -9.082   8.768  65.554  0.00  0.00    -0.468 OA
ENDBRANCH  17  24
BRANCH  18  25
ATOM     25  O   UNL     1      -9.513  11.246  64.264  0.00  0.00    -0.467 OA
ATOM     26  C   UNL     1      -9.780  10.670  63.009  0.00  0.00    +0.253 C 
ENDBRANCH  18  25
ENDBRANCH  16  19
ENDBRANCH   1  16
TORSDOF 7
ENDMDL
