MODEL 1
REMARK VINA RESULT:      -6.2      0.000      0.000
REMARK  Name = 
REMARK  7 active torsions:
REMARK  status: ('A' for Active; 'I' for Inactive)
REMARK    1  A    between atoms: C_2  and  C_3
REMARK    2  A    between atoms: C_3  and  C_4
REMARK    3  A    between atoms: C_6  and  C_7
REMARK    4  A    between atoms: N_9  and  C_10
REMARK    5  A    between atoms: C_10  and  C_11
REMARK    6  A    between atoms: C_10  and  C_14
REMARK    7  A    between atoms: C_16  and  S_17
REMARK                            x       y       z     vdW  Elec       q    Type
REMARK                         _______ _______ _______ _____ _____    ______ ____
ROOT
ATOM      1  C   UNL     1      -7.801  19.285  68.663  0.00  0.00    +0.140 C 
ENDROOT
BRANCH   1   2
ATOM      2  C   UNL     1      -6.182  19.470  69.100  0.00  0.00    +0.170 C 
ATOM      3  C   UNL     1      -6.291  20.052  70.700  0.00  0.00    +0.213 C 
ATOM      4  O   UNL     1      -5.331  21.200  70.737  0.00  0.00    -0.218 OA
ATOM      5  C   UNL     1      -5.102  18.820  70.821  0.00  0.00    +0.218 C 
ATOM      6  O   UNL     1      -4.474  19.413  72.052  0.00  0.00    -0.217 OA
ATOM      7  C   UNL     1      -3.925  19.395  69.731  0.00  0.00    +0.222 C 
ATOM      8  O   UNL     1      -4.356  18.529  68.553  0.00  0.00    -0.217 OA
ATOM      9  C   UNL     1      -4.468  20.861  69.101  0.00  0.00    +0.195 C 
ATOM     10  O   UNL     1      -5.751  20.689  68.393  0.00  0.00    -0.341 OA
BRANCH   9  11
ATOM     11  S   UNL     1      -3.359  20.655  67.535  0.00  0.00    -0.108 S 
ATOM     12  C   UNL     1      -4.524  21.380  66.328  0.00  0.00    +0.072 C 
ENDBRANCH   9  11
ENDBRANCH   1   2
BRANCH   1  13
ATOM     13  C   UNL     1      -8.092  20.180  67.255  0.00  0.00    +0.102 C 
ATOM     14 CL   UNL     1      -9.948  20.346  67.191  0.00  0.00    -0.113 Cl
ATOM     15  C   UNL     1      -7.728  19.066  66.162  0.00  0.00    +0.019 C 
ENDBRANCH   1  13
BRANCH   1  17
ATOM     16  C   UNL     1      -8.382  16.865  68.675  0.00  0.00    +0.256 C 
ATOM     17  N   UNL     1      -7.833  17.933  67.877  0.00  0.00    -0.202 NA
ATOM     18  O   UNL     1      -7.469  16.287  69.190  0.00  0.00    -0.272 OA
BRANCH  16  23
ATOM     19  C   UNL     1     -11.334  14.805  69.622  0.00  0.00    +0.018 C 
ATOM     20  C   UNL     1     -11.731  15.904  68.499  0.00  0.00    +0.073 C 
ATOM     21  N   UNL     1     -10.503  16.144  67.752  0.00  0.00    -0.265 NA
ATOM     22  C   UNL     1      -9.868  14.881  67.422  0.00  0.00    +0.090 C 
ATOM     23  C   UNL     1      -9.927  16.753  69.079  0.00  0.00    +0.137 C 
ATOM     24  C   UNL     1      -9.785  15.217  69.632  0.00  0.00    +0.027 C 
BRANCH  19  25
ATOM     25  C   UNL     1     -11.598  15.777  70.908  0.00  0.00    +0.001 C 
BRANCH  25  27
ATOM     26  C   UNL     1     -13.203  15.657  72.495  0.00  0.00    +0.000 C 
ATOM     27  C   UNL     1     -13.038  15.586  71.254  0.00  0.00    +0.000 C 
ENDBRANCH  25  27
ENDBRANCH  19  25
ENDBRANCH  16  23
ENDBRANCH   1  17
TORSDOF 7
ENDMDL
MODEL 2
REMARK VINA RESULT:      -5.8      3.247      5.412
REMARK  Name = 
REMARK  7 active torsions:
REMARK  status: ('A' for Active; 'I' for Inactive)
REMARK    1  A    between atoms: C_2  and  C_3
REMARK    2  A    between atoms: C_3  and  C_4
REMARK    3  A    between atoms: C_6  and  C_7
REMARK    4  A    between atoms: N_9  and  C_10
REMARK    5  A    between atoms: C_10  and  C_11
REMARK    6  A    between atoms: C_10  and  C_14
REMARK    7  A    between atoms: C_16  and  S_17
REMARK                            x       y       z     vdW  Elec       q    Type
REMARK                         _______ _______ _______ _____ _____    ______ ____
ROOT
ATOM      1  C   UNL     1      -8.037  16.041  67.219  0.00  0.00    +0.140 C 
ENDROOT
BRANCH   1   2
ATOM      2  C   UNL     1      -7.532  17.646  67.338  0.00  0.00    +0.170 C 
ATOM      3  C   UNL     1      -6.809  17.925  65.817  0.00  0.00    +0.213 C 
ATOM      4  O   UNL     1      -5.517  18.604  66.147  0.00  0.00    -0.218 OA
ATOM      5  C   UNL     1      -7.800  19.310  66.029  0.00  0.00    +0.218 C 
ATOM      6  O   UNL     1      -6.980  20.159  65.097  0.00  0.00    -0.217 OA
ATOM      7  C   UNL     1      -7.153  19.957  67.467  0.00  0.00    +0.222 C 
ATOM      8  O   UNL     1      -8.200  19.363  68.401  0.00  0.00    -0.217 OA
ATOM      9  C   UNL     1      -5.877  18.969  67.956  0.00  0.00    +0.195 C 
ATOM     10  O   UNL     1      -6.341  17.590  68.203  0.00  0.00    -0.341 OA
BRANCH   9  11
ATOM     11  S   UNL     1      -6.057  19.559  69.785  0.00  0.00    -0.108 S 
ATOM     12  C   UNL     1      -5.336  18.080  70.579  0.00  0.00    +0.072 C 
ENDBRANCH   9  11
ENDBRANCH   1   2
BRANCH   1  13
ATOM     13  C   UNL     1      -8.018  15.347  68.764  0.00  0.00    +0.102 C 
ATOM     14 CL   UNL     1      -8.058  13.511  68.444  0.00  0.00    -0.113 Cl
ATOM     15  C   UNL     1      -9.503  15.727  69.234  0.00  0.00    +0.019 C 
ENDBRANCH   1  13
BRANCH   1  17
ATOM     16  C   UNL     1     -10.158  15.646  65.979  0.00  0.00    +0.256 C 
ATOM     17  N   UNL     1      -9.599  16.130  67.217  0.00  0.00    -0.202 NA
ATOM     18  O   UNL     1     -10.326  16.589  65.260  0.00  0.00    -0.272 OA
BRANCH  16  23
ATOM     19  C   UNL     1     -11.984  12.661  64.711  0.00  0.00    +0.018 C 
ATOM     20  C   UNL     1     -11.047  12.273  65.975  0.00  0.00    +0.073 C 
ATOM     21  N   UNL     1     -10.948  13.494  66.764  0.00  0.00    -0.265 NA
ATOM     22  C   UNL     1     -12.262  14.093  66.917  0.00  0.00    +0.090 C 
ATOM     23  C   UNL     1     -10.172  14.106  65.545  0.00  0.00    +0.137 C 
ATOM     24  C   UNL     1     -11.616  14.220  64.779  0.00  0.00    +0.027 C 
BRANCH  19  25
ATOM     25  C   UNL     1     -10.832  12.441  63.574  0.00  0.00    +0.001 C 
BRANCH  25  27
ATOM     26  C   UNL     1      -9.513  10.732  62.903  0.00  0.00    +0.000 C 
ATOM     27  C   UNL     1     -10.511  10.983  63.619  0.00  0.00    +0.000 C 
ENDBRANCH  25  27
ENDBRANCH  19  25
ENDBRANCH  16  23
ENDBRANCH   1  17
TORSDOF 7
ENDMDL
MODEL 3
REMARK VINA RESULT:      -5.7      3.607      8.031
REMARK  Name = 
REMARK  7 active torsions:
REMARK  status: ('A' for Active; 'I' for Inactive)
REMARK    1  A    between atoms: C_2  and  C_3
REMARK    2  A    between atoms: C_3  and  C_4
REMARK    3  A    between atoms: C_6  and  C_7
REMARK    4  A    between atoms: N_9  and  C_10
REMARK    5  A    between atoms: C_10  and  C_11
REMARK    6  A    between atoms: C_10  and  C_14
REMARK    7  A    between atoms: C_16  and  S_17
REMARK                            x       y       z     vdW  Elec       q    Type
REMARK                         _______ _______ _______ _____ _____    ______ ____
ROOT
ATOM      1  C   UNL     1      -9.719  17.015  66.558  0.00  0.00    +0.140 C 
ENDROOT
BRANCH   1   2
ATOM      2  C   UNL     1     -10.205  15.454  66.972  0.00  0.00    +0.170 C 
ATOM      3  C   UNL     1     -10.854  14.862  65.509  0.00  0.00    +0.213 C 
ATOM      4  O   UNL     1     -12.149  14.231  65.914  0.00  0.00    -0.218 OA
ATOM      5  C   UNL     1      -9.853  13.570  66.033  0.00  0.00    +0.218 C 
ATOM      6  O   UNL     1     -10.618  12.535  65.255  0.00  0.00    -0.217 OA
ATOM      7  C   UNL     1     -10.556  13.206  67.544  0.00  0.00    +0.222 C 
ATOM      8  O   UNL     1      -9.561  13.998  68.382  0.00  0.00    -0.217 OA
ATOM      9  C   UNL     1     -11.867  14.241  67.772  0.00  0.00    +0.195 C 
ATOM     10  O   UNL     1     -11.435  15.652  67.758  0.00  0.00    -0.341 OA
BRANCH   9  11
ATOM     11  S   UNL     1     -11.762  14.030  69.688  0.00  0.00    -0.108 S 
ATOM     12  C   UNL     1     -12.149  15.759  70.134  0.00  0.00    +0.072 C 
ENDBRANCH   9  11
ENDBRANCH   1   2
BRANCH   1  13
ATOM     13  C   UNL     1     -10.584  18.125  67.500  0.00  0.00    +0.102 C 
ATOM     14 CL   UNL     1     -10.589  19.686  66.483  0.00  0.00    -0.113 Cl
ATOM     15  C   UNL     1      -9.503  18.376  68.657  0.00  0.00    +0.019 C 
ENDBRANCH   1  13
BRANCH   1  17
ATOM     16  C   UNL     1      -7.245  17.286  66.543  0.00  0.00    +0.256 C 
ATOM     17  N   UNL     1      -8.413  17.242  67.388  0.00  0.00    -0.202 NA
ATOM     18  O   UNL     1      -6.771  16.187  66.517  0.00  0.00    -0.272 OA
BRANCH  16  23
ATOM     19  C   UNL     1      -4.772  19.554  64.932  0.00  0.00    +0.018 C 
ATOM     20  C   UNL     1      -6.061  20.384  65.461  0.00  0.00    +0.073 C 
ATOM     21  N   UNL     1      -6.572  19.614  66.587  0.00  0.00    -0.265 NA
ATOM     22  C   UNL     1      -5.479  19.225  67.459  0.00  0.00    +0.090 C 
ATOM     23  C   UNL     1      -6.908  18.490  65.544  0.00  0.00    +0.137 C 
ATOM     24  C   UNL     1      -5.304  18.154  65.503  0.00  0.00    +0.027 C 
BRANCH  19  25
ATOM     25  C   UNL     1      -5.396  19.192  63.467  0.00  0.00    +0.001 C 
BRANCH  25  27
ATOM     26  C   UNL     1      -5.856  20.314  61.560  0.00  0.00    +0.000 C 
ATOM     27  C   UNL     1      -5.461  20.493  62.737  0.00  0.00    +0.000 C 
ENDBRANCH  25  27
ENDBRANCH  19  25
ENDBRANCH  16  23
ENDBRANCH   1  17
TORSDOF 7
ENDMDL
MODEL 4
REMARK VINA RESULT:      -5.6      7.509     10.505
REMARK  Name = 
REMARK  7 active torsions:
REMARK  status: ('A' for Active; 'I' for Inactive)
REMARK    1  A    between atoms: C_2  and  C_3
REMARK    2  A    between atoms: C_3  and  C_4
REMARK    3  A    between atoms: C_6  and  C_7
REMARK    4  A    between atoms: N_9  and  C_10
REMARK    5  A    between atoms: C_10  and  C_11
REMARK    6  A    between atoms: C_10  and  C_14
REMARK    7  A    between atoms: C_16  and  S_17
REMARK                            x       y       z     vdW  Elec       q    Type
REMARK                         _______ _______ _______ _____ _____    ______ ____
ROOT
ATOM      1  C   UNL     1      -9.732   9.499  68.817  0.00  0.00    +0.140 C 
ENDROOT
BRANCH   1   2
ATOM      2  C   UNL     1     -10.437   8.357  69.838  0.00  0.00    +0.170 C 
ATOM      3  C   UNL     1     -10.668   9.237  71.282  0.00  0.00    +0.213 C 
ATOM      4  O   UNL     1     -10.161   8.322  72.352  0.00  0.00    -0.218 OA
ATOM      5  C   UNL     1     -12.177   8.448  71.070  0.00  0.00    +0.218 C 
ATOM      6  O   UNL     1     -12.525   8.512  72.531  0.00  0.00    -0.217 OA
ATOM      7  C   UNL     1     -11.693   6.813  71.078  0.00  0.00    +0.222 C 
ATOM      8  O   UNL     1     -11.665   6.642  69.564  0.00  0.00    -0.217 OA
ATOM      9  C   UNL     1     -10.024   6.764  71.309  0.00  0.00    +0.195 C 
ATOM     10  O   UNL     1      -9.320   7.479  70.228  0.00  0.00    -0.341 OA
BRANCH   9  11
ATOM     11  S   UNL     1      -9.913   5.021  70.487  0.00  0.00    -0.108 S 
ATOM     12  C   UNL     1      -8.344   5.287  69.589  0.00  0.00    +0.072 C 
ENDBRANCH   9  11
ENDBRANCH   1   2
BRANCH   1  13
ATOM     13  C   UNL     1      -8.825   8.691  67.636  0.00  0.00    +0.102 C 
ATOM     14 CL   UNL     1      -8.091  10.059  66.604  0.00  0.00    -0.113 Cl
ATOM     15  C   UNL     1     -10.024   8.093  66.756  0.00  0.00    +0.019 C 
ENDBRANCH   1  13
BRANCH   1  17
ATOM     16  C   UNL     1     -11.390  11.170  68.006  0.00  0.00    +0.256 C 
ATOM     17  N   UNL     1     -10.862   9.845  67.791  0.00  0.00    -0.202 NA
ATOM     18  O   UNL     1     -12.359  11.068  68.702  0.00  0.00    -0.272 OA
BRANCH  16  23
ATOM     19  C   UNL     1     -11.327  14.681  66.774  0.00  0.00    +0.018 C 
ATOM     20  C   UNL     1     -10.098  13.826  66.153  0.00  0.00    +0.073 C 
ATOM     21  N   UNL     1     -10.572  12.450  66.119  0.00  0.00    -0.265 NA
ATOM     22  C   UNL     1     -11.916  12.400  65.572  0.00  0.00    +0.090 C 
ATOM     23  C   UNL     1     -10.587  12.516  67.687  0.00  0.00    +0.137 C 
ATOM     24  C   UNL     1     -11.943  13.427  67.560  0.00  0.00    +0.027 C 
BRANCH  19  25
ATOM     25  C   UNL     1     -10.542  15.141  68.131  0.00  0.00    +0.001 C 
BRANCH  25  27
ATOM     26  C   UNL     1     -11.200  16.018  70.108  0.00  0.00    +0.000 C 
ATOM     27  C   UNL     1     -11.531  15.954  68.900  0.00  0.00    +0.000 C 
ENDBRANCH  25  27
ENDBRANCH  19  25
ENDBRANCH  16  23
ENDBRANCH   1  17
TORSDOF 7
ENDMDL
MODEL 5
REMARK VINA RESULT:      -5.5      3.368      5.358
REMARK  Name = 
REMARK  7 active torsions:
REMARK  status: ('A' for Active; 'I' for Inactive)
REMARK    1  A    between atoms: C_2  and  C_3
REMARK    2  A    between atoms: C_3  and  C_4
REMARK    3  A    between atoms: C_6  and  C_7
REMARK    4  A    between atoms: N_9  and  C_10
REMARK    5  A    between atoms: C_10  and  C_11
REMARK    6  A    between atoms: C_10  and  C_14
REMARK    7  A    between atoms: C_16  and  S_17
REMARK                            x       y       z     vdW  Elec       q    Type
REMARK                         _______ _______ _______ _____ _____    ______ ____
ROOT
ATOM      1  C   UNL     1      -8.431  16.325  66.300  0.00  0.00    +0.140 C 
ENDROOT
BRANCH   1   2
ATOM      2  C   UNL     1      -8.010  17.779  67.043  0.00  0.00    +0.170 C 
ATOM      3  C   UNL     1      -8.963  18.919  66.203  0.00  0.00    +0.213 C 
ATOM      4  O   UNL     1      -8.011  20.029  65.887  0.00  0.00    -0.218 OA
ATOM      5  C   UNL     1      -9.207  19.353  67.845  0.00  0.00    +0.218 C 
ATOM      6  O   UNL     1      -9.577  20.773  67.516  0.00  0.00    -0.217 OA
ATOM      7  C   UNL     1      -7.610  19.698  68.332  0.00  0.00    +0.222 C 
ATOM      8  O   UNL     1      -7.341  18.345  68.980  0.00  0.00    -0.217 OA
ATOM      9  C   UNL     1      -6.600  19.477  67.001  0.00  0.00    +0.195 C 
ATOM     10  O   UNL     1      -6.674  18.090  66.505  0.00  0.00    -0.341 OA
BRANCH   9  11
ATOM     11  S   UNL     1      -5.073  19.188  68.145  0.00  0.00    -0.108 S 
ATOM     12  C   UNL     1      -5.016  20.859  68.884  0.00  0.00    +0.072 C 
ENDBRANCH   9  11
ENDBRANCH   1   2
BRANCH   1  13
ATOM     13  C   UNL     1      -8.226  15.064  67.412  0.00  0.00    +0.102 C 
ATOM     14 CL   UNL     1      -9.076  15.670  68.956  0.00  0.00    -0.113 Cl
ATOM     15  C   UNL     1      -6.658  15.227  67.700  0.00  0.00    +0.019 C 
ENDBRANCH   1  13
BRANCH   1  17
ATOM     16  C   UNL     1     -10.595  15.612  65.299  0.00  0.00    +0.256 C 
ATOM     17  N   UNL     1      -9.988  16.264  66.433  0.00  0.00    -0.202 NA
ATOM     18  O   UNL     1     -10.918  16.461  64.519  0.00  0.00    -0.272 OA
BRANCH  16  23
ATOM     19  C   UNL     1     -12.204  12.356  64.486  0.00  0.00    +0.018 C 
ATOM     20  C   UNL     1     -11.119  12.185  65.679  0.00  0.00    +0.073 C 
ATOM     21  N   UNL     1     -11.079  13.480  66.343  0.00  0.00    -0.265 NA
ATOM     22  C   UNL     1     -12.429  13.961  66.575  0.00  0.00    +0.090 C 
ATOM     23  C   UNL     1     -10.485  14.043  65.004  0.00  0.00    +0.137 C 
ATOM     24  C   UNL     1     -11.998  13.942  64.380  0.00  0.00    +0.027 C 
BRANCH  19  25
ATOM     25  C   UNL     1     -11.143  12.139  63.263  0.00  0.00    +0.001 C 
BRANCH  25  27
ATOM     26  C   UNL     1      -9.486  10.677  62.788  0.00  0.00    +0.000 C 
ATOM     27  C   UNL     1     -10.454  10.849  63.566  0.00  0.00    +0.000 C 
ENDBRANCH  25  27
ENDBRANCH  19  25
ENDBRANCH  16  23
ENDBRANCH   1  17
TORSDOF 7
ENDMDL
MODEL 6
REMARK VINA RESULT:      -5.5      2.249      2.634
REMARK  Name = 
REMARK  7 active torsions:
REMARK  status: ('A' for Active; 'I' for Inactive)
REMARK    1  A    between atoms: C_2  and  C_3
REMARK    2  A    between atoms: C_3  and  C_4
REMARK    3  A    between atoms: C_6  and  C_7
REMARK    4  A    between atoms: N_9  and  C_10
REMARK    5  A    between atoms: C_10  and  C_11
REMARK    6  A    between atoms: C_10  and  C_14
REMARK    7  A    between atoms: C_16  and  S_17
REMARK                            x       y       z     vdW  Elec       q    Type
REMARK                         _______ _______ _______ _____ _____    ______ ____
ROOT
ATOM      1  C   UNL     1      -8.538  18.287  67.257  0.00  0.00    +0.140 C 
ENDROOT
BRANCH   1   2
ATOM      2  C   UNL     1      -6.905  18.670  67.440  0.00  0.00    +0.170 C 
ATOM      3  C   UNL     1      -6.839  19.273  69.035  0.00  0.00    +0.213 C 
ATOM      4  O   UNL     1      -6.028  20.526  68.918  0.00  0.00    -0.218 OA
ATOM      5  C   UNL     1      -5.508  18.191  68.981  0.00  0.00    +0.218 C 
ATOM      6  O   UNL     1      -4.776  18.883  70.098  0.00  0.00    -0.217 OA
ATOM      7  C   UNL     1      -4.585  18.873  67.720  0.00  0.00    +0.222 C 
ATOM      8  O   UNL     1      -5.083  17.935  66.627  0.00  0.00    -0.217 OA
ATOM      9  C   UNL     1      -5.388  20.250  67.172  0.00  0.00    +0.195 C 
ATOM     10  O   UNL     1      -6.734  19.913  66.669  0.00  0.00    -0.341 OA
BRANCH   9  11
ATOM     11  S   UNL     1      -4.511  20.137  65.456  0.00  0.00    -0.108 S 
ATOM     12  C   UNL     1      -5.944  20.620  64.430  0.00  0.00    +0.072 C 
ENDBRANCH   9  11
ENDBRANCH   1   2
BRANCH   1  13
ATOM     13  C   UNL     1      -9.275  19.480  66.307  0.00  0.00    +0.102 C 
ATOM     14 CL   UNL     1      -9.810  20.779  67.532  0.00  0.00    -0.113 Cl
ATOM     15  C   UNL     1     -10.615  18.697  65.906  0.00  0.00    +0.019 C 
ENDBRANCH   1  13
BRANCH   1  17
ATOM     16  C   UNL     1      -8.566  15.898  66.560  0.00  0.00    +0.256 C 
ATOM     17  N   UNL     1      -8.559  17.257  66.079  0.00  0.00    -0.202 NA
ATOM     18  O   UNL     1      -7.433  15.512  66.582  0.00  0.00    -0.272 OA
BRANCH  16  23
ATOM     19  C   UNL     1     -10.821  12.974  67.033  0.00  0.00    +0.018 C 
ATOM     20  C   UNL     1     -11.671  14.349  66.917  0.00  0.00    +0.073 C 
ATOM     21  N   UNL     1     -10.851  15.235  66.102  0.00  0.00    -0.265 NA
ATOM     22  C   UNL     1     -10.354  14.521  64.939  0.00  0.00    +0.090 C 
ATOM     23  C   UNL     1      -9.818  15.210  67.283  0.00  0.00    +0.137 C 
ATOM     24  C   UNL     1      -9.411  13.700  66.795  0.00  0.00    +0.027 C 
BRANCH  19  25
ATOM     25  C   UNL     1     -10.588  13.057  68.647  0.00  0.00    +0.001 C 
BRANCH  25  27
ATOM     26  C   UNL     1     -11.729  11.169  69.141  0.00  0.00    +0.000 C 
ATOM     27  C   UNL     1     -11.795  12.417  69.250  0.00  0.00    +0.000 C 
ENDBRANCH  25  27
ENDBRANCH  19  25
ENDBRANCH  16  23
ENDBRANCH   1  17
TORSDOF 7
ENDMDL
MODEL 7
REMARK VINA RESULT:      -5.4      2.971      7.595
REMARK  Name = 
REMARK  7 active torsions:
REMARK  status: ('A' for Active; 'I' for Inactive)
REMARK    1  A    between atoms: C_2  and  C_3
REMARK    2  A    between atoms: C_3  and  C_4
REMARK    3  A    between atoms: C_6  and  C_7
REMARK    4  A    between atoms: N_9  and  C_10
REMARK    5  A    between atoms: C_10  and  C_11
REMARK    6  A    between atoms: C_10  and  C_14
REMARK    7  A    between atoms: C_16  and  S_17
REMARK                            x       y       z     vdW  Elec       q    Type
REMARK                         _______ _______ _______ _____ _____    ______ ____
ROOT
ATOM      1  C   UNL     1      -9.169  18.162  67.299  0.00  0.00    +0.140 C 
ENDROOT
BRANCH   1   2
ATOM      2  C   UNL     1      -9.728  16.680  67.877  0.00  0.00    +0.170 C 
ATOM      3  C   UNL     1      -9.993  15.794  66.442  0.00  0.00    +0.213 C 
ATOM      4  O   UNL     1     -11.343  15.178  66.639  0.00  0.00    -0.218 OA
ATOM      5  C   UNL     1      -9.140  14.678  67.427  0.00  0.00    +0.218 C 
ATOM      6  O   UNL     1      -9.681  13.477  66.702  0.00  0.00    -0.217 OA
ATOM      7  C   UNL     1     -10.187  14.559  68.767  0.00  0.00    +0.222 C 
ATOM      8  O   UNL     1      -9.435  15.546  69.651  0.00  0.00    -0.217 OA
ATOM      9  C   UNL     1     -11.523  15.544  68.474  0.00  0.00    +0.195 C 
ATOM     10  O   UNL     1     -11.115  16.950  68.293  0.00  0.00    -0.341 OA
BRANCH   9  11
ATOM     11  S   UNL     1     -11.889  15.694  70.363  0.00  0.00    -0.108 S 
ATOM     12  C   UNL     1     -12.413  13.966  70.638  0.00  0.00    +0.072 C 
ENDBRANCH   9  11
ENDBRANCH   1   2
BRANCH   1  13
ATOM     13  C   UNL     1     -10.449  19.271  67.313  0.00  0.00    +0.102 C 
ATOM     14 CL   UNL     1     -10.921  19.453  65.519  0.00  0.00    -0.113 Cl
ATOM     15  C   UNL     1      -9.632  20.602  67.673  0.00  0.00    +0.019 C 
ENDBRANCH   1  13
BRANCH   1  17
ATOM     16  C   UNL     1      -7.069  18.666  68.536  0.00  0.00    +0.256 C 
ATOM     17  N   UNL     1      -8.501  18.832  68.545  0.00  0.00    -0.202 NA
ATOM     18  O   UNL     1      -6.809  17.700  69.194  0.00  0.00    -0.272 OA
BRANCH  16  23
ATOM     19  C   UNL     1      -3.743  20.137  67.741  0.00  0.00    +0.018 C 
ATOM     20  C   UNL     1      -4.941  21.127  67.279  0.00  0.00    +0.073 C 
ATOM     21  N   UNL     1      -6.046  20.833  68.181  0.00  0.00    -0.265 NA
ATOM     22  C   UNL     1      -5.566  20.770  69.550  0.00  0.00    +0.090 C 
ATOM     23  C   UNL     1      -6.088  19.413  67.516  0.00  0.00    +0.137 C 
ATOM     24  C   UNL     1      -4.740  19.054  68.377  0.00  0.00    +0.027 C 
BRANCH  19  25
ATOM     25  C   UNL     1      -3.695  19.274  66.354  0.00  0.00    +0.001 C 
BRANCH  25  27
ATOM     26  C   UNL     1      -3.093  19.655  64.209  0.00  0.00    +0.000 C 
ATOM     27  C   UNL     1      -3.234  20.238  65.311  0.00  0.00    +0.000 C 
ENDBRANCH  25  27
ENDBRANCH  19  25
ENDBRANCH  16  23
ENDBRANCH   1  17
TORSDOF 7
ENDMDL
MODEL 8
REMARK VINA RESULT:      -5.4      6.911     10.286
REMARK  Name = 
REMARK  7 active torsions:
REMARK  status: ('A' for Active; 'I' for Inactive)
REMARK    1  A    between atoms: C_2  and  C_3
REMARK    2  A    between atoms: C_3  and  C_4
REMARK    3  A    between atoms: C_6  and  C_7
REMARK    4  A    between atoms: N_9  and  C_10
REMARK    5  A    between atoms: C_10  and  C_11
REMARK    6  A    between atoms: C_10  and  C_14
REMARK    7  A    between atoms: C_16  and  S_17
REMARK                            x       y       z     vdW  Elec       q    Type
REMARK                         _______ _______ _______ _____ _____    ______ ____
ROOT
ATOM      1  C   UNL     1      -9.133  11.664  65.654  0.00  0.00    +0.140 C 
ENDROOT
BRANCH   1   2
ATOM      2  C   UNL     1     -10.459  12.663  65.948  0.00  0.00    +0.170 C 
ATOM      3  C   UNL     1     -10.404  13.754  64.637  0.00  0.00    +0.213 C 
ATOM      4  O   UNL     1     -10.596  15.096  65.272  0.00  0.00    -0.218 OA
ATOM      5  C   UNL     1     -12.057  13.295  64.683  0.00  0.00    +0.218 C 
ATOM      6  O   UNL     1     -12.524  14.546  63.991  0.00  0.00    -0.217 OA
ATOM      7  C   UNL     1     -12.491  13.795  66.255  0.00  0.00    +0.222 C 
ATOM      8  O   UNL     1     -12.342  12.427  66.909  0.00  0.00    -0.217 OA
ATOM      9  C   UNL     1     -11.136  14.499  66.970  0.00  0.00    +0.195 C 
ATOM     10  O   UNL     1     -10.020  13.536  67.051  0.00  0.00    -0.341 OA
BRANCH   9  11
ATOM     11  S   UNL     1     -11.823  14.140  68.738  0.00  0.00    -0.108 S 
ATOM     12  C   UNL     1     -11.644  15.831  69.405  0.00  0.00    +0.072 C 
ENDBRANCH   9  11
ENDBRANCH   1   2
BRANCH   1  13
ATOM     13  C   UNL     1      -8.829  10.737  67.039  0.00  0.00    +0.102 C 
ATOM     14 CL   UNL     1      -7.377   9.668  66.567  0.00  0.00    -0.113 Cl
ATOM     15  C   UNL     1     -10.105   9.768  66.984  0.00  0.00    +0.019 C 
ENDBRANCH   1  13
BRANCH   1  17
ATOM     16  C   UNL     1      -9.354  10.424  63.507  0.00  0.00    +0.256 C 
ATOM     17  N   UNL     1      -9.738  10.436  64.897  0.00  0.00    -0.202 NA
ATOM     18  O   UNL     1     -10.226  10.957  62.882  0.00  0.00    -0.272 OA
BRANCH  16  23
ATOM     19  C   UNL     1      -6.936   9.952  60.717  0.00  0.00    +0.018 C 
ATOM     20  C   UNL     1      -6.775   8.782  61.828  0.00  0.00    +0.073 C 
ATOM     21  N   UNL     1      -8.092   8.654  62.438  0.00  0.00    -0.265 NA
ATOM     22  C   UNL     1      -9.114   8.621  61.408  0.00  0.00    +0.090 C 
ATOM     23  C   UNL     1      -7.873  10.107  62.991  0.00  0.00    +0.137 C 
ATOM     24  C   UNL     1      -8.168  10.647  61.472  0.00  0.00    +0.027 C 
BRANCH  19  25
ATOM     25  C   UNL     1      -5.909  11.003  61.432  0.00  0.00    +0.001 C 
BRANCH  25  27
ATOM     26  C   UNL     1      -5.265  11.997  59.507  0.00  0.00    +0.000 C 
ATOM     27  C   UNL     1      -5.916  12.213  60.557  0.00  0.00    +0.000 C 
ENDBRANCH  25  27
ENDBRANCH  19  25
ENDBRANCH  16  23
ENDBRANCH   1  17
TORSDOF 7
ENDMDL
MODEL 9
REMARK VINA RESULT:      -5.4      3.360      5.142
REMARK  Name = 
REMARK  7 active torsions:
REMARK  status: ('A' for Active; 'I' for Inactive)
REMARK    1  A    between atoms: C_2  and  C_3
REMARK    2  A    between atoms: C_3  and  C_4
REMARK    3  A    between atoms: C_6  and  C_7
REMARK    4  A    between atoms: N_9  and  C_10
REMARK    5  A    between atoms: C_10  and  C_11
REMARK    6  A    between atoms: C_10  and  C_14
REMARK    7  A    between atoms: C_16  and  S_17
REMARK                            x       y       z     vdW  Elec       q    Type
REMARK                         _______ _______ _______ _____ _____    ______ ____
ROOT
ATOM      1  C   UNL     1      -8.058  16.069  67.239  0.00  0.00    +0.140 C 
ENDROOT
BRANCH   1   2
ATOM      2  C   UNL     1      -8.382  17.709  67.468  0.00  0.00    +0.170 C 
ATOM      3  C   UNL     1      -9.749  17.962  66.478  0.00  0.00    +0.213 C 
ATOM      4  O   UNL     1      -9.428  19.217  65.728  0.00  0.00    -0.218 OA
ATOM      5  C   UNL     1     -10.190  18.737  67.945  0.00  0.00    +0.218 C 
ATOM      6  O   UNL     1     -11.181  19.650  67.277  0.00  0.00    -0.217 OA
ATOM      7  C   UNL     1      -8.950  19.899  68.085  0.00  0.00    +0.222 C 
ATOM      8  O   UNL     1      -8.084  19.098  69.049  0.00  0.00    -0.217 OA
ATOM      9  C   UNL     1      -7.939  19.747  66.745  0.00  0.00    +0.195 C 
ATOM     10  O   UNL     1      -7.343  18.398  66.683  0.00  0.00    -0.341 OA
BRANCH   9  11
ATOM     11  S   UNL     1      -6.471  20.557  67.701  0.00  0.00    -0.108 S 
ATOM     12  C   UNL     1      -5.119  19.848  66.696  0.00  0.00    +0.072 C 
ENDBRANCH   9  11
ENDBRANCH   1   2
BRANCH   1  13
ATOM     13  C   UNL     1      -6.506  15.731  67.826  0.00  0.00    +0.102 C 
ATOM     14 CL   UNL     1      -6.326  13.888  67.617  0.00  0.00    -0.113 Cl
ATOM     15  C   UNL     1      -6.769  15.957  69.391  0.00  0.00    +0.019 C 
ENDBRANCH   1  13
BRANCH   1  17
ATOM     16  C   UNL     1      -9.913  14.635  68.076  0.00  0.00    +0.256 C 
ATOM     17  N   UNL     1      -8.735  15.370  68.464  0.00  0.00    -0.202 NA
ATOM     18  O   UNL     1     -10.860  15.348  68.243  0.00  0.00    -0.272 OA
BRANCH  16  23
ATOM     19  C   UNL     1     -11.613  11.578  66.804  0.00  0.00    +0.018 C 
ATOM     20  C   UNL     1     -10.138  11.225  67.378  0.00  0.00    +0.073 C 
ATOM     21  N   UNL     1      -9.876  12.234  68.396  0.00  0.00    -0.265 NA
ATOM     22  C   UNL     1     -11.036  12.385  69.256  0.00  0.00    +0.090 C 
ATOM     23  C   UNL     1      -9.882  13.280  67.226  0.00  0.00    +0.137 C 
ATOM     24  C   UNL     1     -11.514  13.128  67.200  0.00  0.00    +0.027 C 
BRANCH  19  25
ATOM     25  C   UNL     1     -11.121  11.937  65.288  0.00  0.00    +0.001 C 
BRANCH  25  27
ATOM     26  C   UNL     1     -12.194  12.368  63.346  0.00  0.00    +0.000 C 
ATOM     27  C   UNL     1     -12.342  12.439  64.590  0.00  0.00    +0.000 C 
ENDBRANCH  25  27
ENDBRANCH  19  25
ENDBRANCH  16  23
ENDBRANCH   1  17
TORSDOF 7
ENDMDL
