MODEL 1
REMARK VINA RESULT:      -5.5      0.000      0.000
REMARK  Name = 
REMARK  3 active torsions:
REMARK  status: ('A' for Active; 'I' for Inactive)
REMARK    1  A    between atoms: C_5  and  C_6
REMARK    2  A    between atoms: C_6  and  C_7
REMARK    3  A    between atoms: C_6  and  C_14
REMARK                            x       y       z     vdW  Elec       q    Type
REMARK                         _______ _______ _______ _____ _____    ______ ____
ROOT
ATOM      1  C   UNL     1     -10.118  14.681  67.947  0.00  0.00    +0.076 C 
ENDROOT
BRANCH   1   6
ATOM      2 CL   UNL     1     -12.691  11.835  63.452  0.00  0.00    -0.082 Cl
ATOM      3  C   UNL     1     -11.944  13.112  64.406  0.00  0.00    +0.058 A 
ATOM      4  C   UNL     1     -12.699  13.948  65.223  0.00  0.00    +0.011 A 
ATOM      5  C   UNL     1     -12.154  14.159  66.485  0.00  0.00    -0.003 A 
ATOM      6  C   UNL     1     -10.844  14.523  66.498  0.00  0.00    -0.016 A 
ATOM      7  C   UNL     1     -10.053  13.773  65.624  0.00  0.00    -0.003 A 
ATOM      8  C   UNL     1     -10.572  13.335  64.406  0.00  0.00    +0.011 A 
ENDBRANCH   1   6
BRANCH   1   9
ATOM      9  C   UNL     1     -10.079  16.313  67.915  0.00  0.00    -0.005 A 
ATOM     10  C   UNL     1      -8.973  16.853  68.528  0.00  0.00    +0.054 A 
ATOM     11 CL   UNL     1      -7.726  15.942  69.320  0.00  0.00    -0.083 Cl
ATOM     12  C   UNL     1      -8.858  18.235  68.436  0.00  0.00    +0.011 A 
ATOM     13  C   UNL     1      -9.540  18.926  67.445  0.00  0.00    +0.001 A 
ATOM     14  C   UNL     1     -10.335  18.206  66.564  0.00  0.00    -0.000 A 
ATOM     15  C   UNL     1     -10.367  16.820  66.649  0.00  0.00    -0.003 A 
ENDBRANCH   1   9
BRANCH   1  16
ATOM     16  C   UNL     1     -11.566  14.580  68.742  0.00  0.00    +0.167 C 
ATOM     17 CL   UNL     1     -12.014  15.967  69.537  0.00  0.00    -0.096 Cl
ATOM     18 CL   UNL     1     -11.698  13.007  69.436  0.00  0.00    -0.096 Cl
ENDBRANCH   1  16
TORSDOF 3
ENDMDL
MODEL 2
REMARK VINA RESULT:      -5.4      3.995      5.961
REMARK  Name = 
REMARK  3 active torsions:
REMARK  status: ('A' for Active; 'I' for Inactive)
REMARK    1  A    between atoms: C_5  and  C_6
REMARK    2  A    between atoms: C_6  and  C_7
REMARK    3  A    between atoms: C_6  and  C_14
REMARK                            x       y       z     vdW  Elec       q    Type
REMARK                         _______ _______ _______ _____ _____    ______ ____
ROOT
ATOM      1  C   UNL     1     -11.864  11.617  68.585  0.00  0.00    +0.076 C 
ENDROOT
BRANCH   1   6
ATOM      2 CL   UNL     1     -11.543   7.121  72.406  0.00  0.00    -0.082 Cl
ATOM      3  C   UNL     1     -11.520   8.753  71.750  0.00  0.00    +0.058 A 
ATOM      4  C   UNL     1     -10.354   9.317  71.240  0.00  0.00    +0.011 A 
ATOM      5  C   UNL     1     -10.522   9.986  70.033  0.00  0.00    -0.003 A 
ATOM      6  C   UNL     1     -11.547  10.880  70.003  0.00  0.00    -0.016 A 
ATOM      7  C   UNL     1     -12.720  10.396  70.586  0.00  0.00    -0.003 A 
ATOM      8  C   UNL     1     -12.658   9.548  71.692  0.00  0.00    +0.011 A 
ENDBRANCH   1   6
BRANCH   1   9
ATOM      9  C   UNL     1     -11.562  13.125  69.133  0.00  0.00    -0.005 A 
ATOM     10  C   UNL     1     -11.809  14.112  68.207  0.00  0.00    +0.054 A 
ATOM     11 CL   UNL     1     -12.347  13.841  66.580  0.00  0.00    -0.083 Cl
ATOM     12  C   UNL     1     -11.656  15.413  68.670  0.00  0.00    +0.011 A 
ATOM     13  C   UNL     1     -11.697  15.679  70.031  0.00  0.00    +0.001 A 
ATOM     14  C   UNL     1     -11.888  14.617  70.906  0.00  0.00    -0.000 A 
ATOM     15  C   UNL     1     -12.107  13.343  70.397  0.00  0.00    -0.003 A 
ENDBRANCH   1   9
BRANCH   1  16
ATOM     16  C   UNL     1     -10.326  11.345  68.039  0.00  0.00    +0.167 C 
ATOM     17 CL   UNL     1      -9.256  12.577  68.346  0.00  0.00    -0.096 Cl
ATOM     18 CL   UNL     1     -10.424  10.532  66.521  0.00  0.00    -0.096 Cl
ENDBRANCH   1  16
TORSDOF 3
ENDMDL
MODEL 3
REMARK VINA RESULT:      -5.4      2.579      5.404
REMARK  Name = 
REMARK  3 active torsions:
REMARK  status: ('A' for Active; 'I' for Inactive)
REMARK    1  A    between atoms: C_5  and  C_6
REMARK    2  A    between atoms: C_6  and  C_7
REMARK    3  A    between atoms: C_6  and  C_14
REMARK                            x       y       z     vdW  Elec       q    Type
REMARK                         _______ _______ _______ _____ _____    ______ ____
ROOT
ATOM      1  C   UNL     1     -10.048  13.171  68.035  0.00  0.00    +0.076 C 
ENDROOT
BRANCH   1   6
ATOM      2 CL   UNL     1     -12.074  16.223  72.672  0.00  0.00    -0.082 Cl
ATOM      3  C   UNL     1     -11.943  15.545  71.053  0.00  0.00    +0.058 A 
ATOM      4  C   UNL     1     -11.238  16.197  70.046  0.00  0.00    +0.011 A 
ATOM      5  C   UNL     1     -10.408  15.368  69.299  0.00  0.00    -0.003 A 
ATOM      6  C   UNL     1     -10.994  14.235  68.826  0.00  0.00    -0.016 A 
ATOM      7  C   UNL     1     -11.789  13.587  69.774  0.00  0.00    -0.003 A 
ATOM      8  C   UNL     1     -12.514  14.327  70.708  0.00  0.00    +0.011 A 
ENDBRANCH   1   6
BRANCH   1   9
ATOM      9  C   UNL     1     -10.667  13.493  66.559  0.00  0.00    -0.005 A 
ATOM     10  C   UNL     1     -10.265  12.609  65.584  0.00  0.00    +0.054 A 
ATOM     11 CL   UNL     1      -9.169  11.286  65.827  0.00  0.00    -0.083 Cl
ATOM     12  C   UNL     1     -10.848  12.795  64.337  0.00  0.00    +0.011 A 
ATOM     13  C   UNL     1     -12.037  13.500  64.221  0.00  0.00    +0.001 A 
ATOM     14  C   UNL     1     -12.616  14.013  65.375  0.00  0.00    -0.000 A 
ATOM     15  C   UNL     1     -12.037  13.745  66.608  0.00  0.00    -0.003 A 
ENDBRANCH   1   9
BRANCH   1  16
ATOM     16  C   UNL     1      -8.815  14.268  67.924  0.00  0.00    +0.167 C 
ATOM     17 CL   UNL     1      -8.771  15.115  66.497  0.00  0.00    -0.096 Cl
ATOM     18 CL   UNL     1      -7.413  13.589  68.665  0.00  0.00    -0.096 Cl
ENDBRANCH   1  16
TORSDOF 3
ENDMDL
MODEL 4
REMARK VINA RESULT:      -5.3      1.914      2.723
REMARK  Name = 
REMARK  3 active torsions:
REMARK  status: ('A' for Active; 'I' for Inactive)
REMARK    1  A    between atoms: C_5  and  C_6
REMARK    2  A    between atoms: C_6  and  C_7
REMARK    3  A    between atoms: C_6  and  C_14
REMARK                            x       y       z     vdW  Elec       q    Type
REMARK                         _______ _______ _______ _____ _____    ______ ____
ROOT
ATOM      1  C   UNL     1      -8.533  16.321  66.223  0.00  0.00    +0.076 C 
ENDROOT
BRANCH   1   6
ATOM      2 CL   UNL     1     -12.834  12.491  64.895  0.00  0.00    -0.082 Cl
ATOM      3  C   UNL     1     -12.009  13.936  65.468  0.00  0.00    +0.058 A 
ATOM      4  C   UNL     1     -11.554  14.044  66.779  0.00  0.00    +0.011 A 
ATOM      5  C   UNL     1     -10.270  14.565  66.898  0.00  0.00    -0.003 A 
ATOM      6  C   UNL     1     -10.046  15.717  66.211  0.00  0.00    -0.016 A 
ATOM      7  C   UNL     1     -10.565  15.697  64.914  0.00  0.00    -0.003 A 
ATOM      8  C   UNL     1     -11.757  15.026  64.644  0.00  0.00    +0.011 A 
ENDBRANCH   1   6
BRANCH   1   9
ATOM      9  C   UNL     1      -8.953  17.756  66.876  0.00  0.00    -0.005 A 
ATOM     10  C   UNL     1      -8.085  18.779  66.572  0.00  0.00    +0.054 A 
ATOM     11 CL   UNL     1      -6.639  18.613  65.627  0.00  0.00    -0.083 Cl
ATOM     12  C   UNL     1      -8.462  20.035  67.031  0.00  0.00    +0.011 A 
ATOM     13  C   UNL     1      -9.786  20.290  67.356  0.00  0.00    +0.001 A 
ATOM     14  C   UNL     1     -10.710  19.262  67.217  0.00  0.00    -0.000 A 
ATOM     15  C   UNL     1     -10.303  18.044  66.688  0.00  0.00    -0.003 A 
ENDBRANCH   1   9
BRANCH   1  16
ATOM     16  C   UNL     1      -8.196  15.589  67.668  0.00  0.00    +0.167 C 
ATOM     17 CL   UNL     1      -8.371  16.572  68.995  0.00  0.00    -0.096 Cl
ATOM     18 CL   UNL     1      -6.852  14.533  67.443  0.00  0.00    -0.096 Cl
ENDBRANCH   1  16
TORSDOF 3
ENDMDL
MODEL 5
REMARK VINA RESULT:      -5.3      2.522      5.405
REMARK  Name = 
REMARK  3 active torsions:
REMARK  status: ('A' for Active; 'I' for Inactive)
REMARK    1  A    between atoms: C_5  and  C_6
REMARK    2  A    between atoms: C_6  and  C_7
REMARK    3  A    between atoms: C_6  and  C_14
REMARK                            x       y       z     vdW  Elec       q    Type
REMARK                         _______ _______ _______ _____ _____    ______ ____
ROOT
ATOM      1  C   UNL     1     -12.352  14.118  68.785  0.00  0.00    +0.076 C 
ENDROOT
BRANCH   1   6
ATOM      2 CL   UNL     1     -12.500  15.379  74.557  0.00  0.00    -0.082 Cl
ATOM      3  C   UNL     1     -12.515  15.577  72.808  0.00  0.00    +0.058 A 
ATOM      4  C   UNL     1     -11.340  15.762  72.085  0.00  0.00    +0.011 A 
ATOM      5  C   UNL     1     -11.256  15.002  70.924  0.00  0.00    -0.003 A 
ATOM      6  C   UNL     1     -12.343  15.068  70.108  0.00  0.00    -0.016 A 
ATOM      7  C   UNL     1     -13.556  14.978  70.795  0.00  0.00    -0.003 A 
ATOM      8  C   UNL     1     -13.689  15.539  72.065  0.00  0.00    +0.011 A 
ENDBRANCH   1   6
BRANCH   1   9
ATOM      9  C   UNL     1     -11.298  15.034  67.939  0.00  0.00    -0.005 A 
ATOM     10  C   UNL     1     -11.367  14.846  66.578  0.00  0.00    +0.054 A 
ATOM     11 CL   UNL     1     -12.421  13.723  65.779  0.00  0.00    -0.083 Cl
ATOM     12  C   UNL     1     -10.552  15.679  65.821  0.00  0.00    +0.011 A 
ATOM     13  C   UNL     1     -10.076  16.866  66.359  0.00  0.00    +0.001 A 
ATOM     14  C   UNL     1     -10.430  17.189  67.663  0.00  0.00    -0.000 A 
ATOM     15  C   UNL     1     -11.303  16.363  68.359  0.00  0.00    -0.003 A 
ENDBRANCH   1   9
BRANCH   1  16
ATOM     16  C   UNL     1     -11.201  13.119  69.429  0.00  0.00    +0.167 C 
ATOM     17 CL   UNL     1      -9.832  12.958  68.504  0.00  0.00    -0.096 Cl
ATOM     18 CL   UNL     1     -11.996  11.787  70.183  0.00  0.00    -0.096 Cl
ENDBRANCH   1  16
TORSDOF 3
ENDMDL
MODEL 6
REMARK VINA RESULT:      -5.2      2.295      4.462
REMARK  Name = 
REMARK  3 active torsions:
REMARK  status: ('A' for Active; 'I' for Inactive)
REMARK    1  A    between atoms: C_5  and  C_6
REMARK    2  A    between atoms: C_6  and  C_7
REMARK    3  A    between atoms: C_6  and  C_14
REMARK                            x       y       z     vdW  Elec       q    Type
REMARK                         _______ _______ _______ _____ _____    ______ ____
ROOT
ATOM      1  C   UNL     1     -11.246  15.925  67.760  0.00  0.00    +0.076 C 
ENDROOT
BRANCH   1   6
ATOM      2 CL   UNL     1     -13.925  13.373  72.367  0.00  0.00    -0.082 Cl
ATOM      3  C   UNL     1     -12.665  14.015  71.319  0.00  0.00    +0.058 A 
ATOM      4  C   UNL     1     -12.057  13.229  70.346  0.00  0.00    +0.011 A 
ATOM      5  C   UNL     1     -11.910  13.856  69.113  0.00  0.00    -0.003 A 
ATOM      6  C   UNL     1     -11.348  15.094  69.156  0.00  0.00    -0.016 A 
ATOM      7  C   UNL     1     -11.860  15.897  70.179  0.00  0.00    -0.003 A 
ATOM      8  C   UNL     1     -12.231  15.333  71.398  0.00  0.00    +0.011 A 
ENDBRANCH   1   6
BRANCH   1   9
ATOM      9  C   UNL     1      -9.662  16.288  67.920  0.00  0.00    -0.005 A 
ATOM     10  C   UNL     1      -9.389  17.633  67.823  0.00  0.00    +0.054 A 
ATOM     11 CL   UNL     1     -10.565  18.871  67.515  0.00  0.00    -0.083 Cl
ATOM     12  C   UNL     1      -8.065  17.987  68.051  0.00  0.00    +0.011 A 
ATOM     13  C   UNL     1      -7.223  17.131  68.746  0.00  0.00    +0.001 A 
ATOM     14  C   UNL     1      -7.736  15.921  69.196  0.00  0.00    -0.000 A 
ATOM     15  C   UNL     1      -9.083  15.638  69.008  0.00  0.00    -0.003 A 
ENDBRANCH   1   9
BRANCH   1  16
ATOM     16  C   UNL     1     -10.997  14.540  66.892  0.00  0.00    +0.167 C 
ATOM     17 CL   UNL     1      -9.489  14.416  66.208  0.00  0.00    -0.096 Cl
ATOM     18 CL   UNL     1     -12.452  14.155  66.049  0.00  0.00    -0.096 Cl
ENDBRANCH   1  16
TORSDOF 3
ENDMDL
MODEL 7
REMARK VINA RESULT:      -5.1      4.022      6.006
REMARK  Name = 
REMARK  3 active torsions:
REMARK  status: ('A' for Active; 'I' for Inactive)
REMARK    1  A    between atoms: C_5  and  C_6
REMARK    2  A    between atoms: C_6  and  C_7
REMARK    3  A    between atoms: C_6  and  C_14
REMARK                            x       y       z     vdW  Elec       q    Type
REMARK                         _______ _______ _______ _____ _____    ______ ____
ROOT
ATOM      1  C   UNL     1      -9.778  11.234  68.486  0.00  0.00    +0.076 C 
ENDROOT
BRANCH   1   6
ATOM      2 CL   UNL     1     -12.109  14.929  64.506  0.00  0.00    -0.082 Cl
ATOM      3  C   UNL     1     -11.960  13.840  65.880  0.00  0.00    +0.058 A 
ATOM      4  C   UNL     1     -12.141  12.467  65.745  0.00  0.00    +0.011 A 
ATOM      5  C   UNL     1     -11.186  11.696  66.397  0.00  0.00    -0.003 A 
ATOM      6  C   UNL     1     -10.961  12.029  67.697  0.00  0.00    -0.016 A 
ATOM      7  C   UNL     1     -10.860  13.407  67.905  0.00  0.00    -0.003 A 
ATOM      8  C   UNL     1     -11.637  14.289  67.155  0.00  0.00    +0.011 A 
ENDBRANCH   1   6
BRANCH   1   9
ATOM      9  C   UNL     1     -10.786  10.407  69.468  0.00  0.00    -0.005 A 
ATOM     10  C   UNL     1     -10.138   9.636  70.405  0.00  0.00    +0.054 A 
ATOM     11 CL   UNL     1      -8.416   9.478  70.550  0.00  0.00    -0.083 Cl
ATOM     12  C   UNL     1     -10.964   8.994  71.320  0.00  0.00    +0.011 A 
ATOM     13  C   UNL     1     -12.255   9.454  71.536  0.00  0.00    +0.001 A 
ATOM     14  C   UNL     1     -12.693  10.557  70.815  0.00  0.00    -0.000 A 
ATOM     15  C   UNL     1     -11.812  11.210  69.962  0.00  0.00    -0.003 A 
ENDBRANCH   1   9
BRANCH   1  16
ATOM     16  C   UNL     1      -9.712  10.064  67.318  0.00  0.00    +0.167 C 
ATOM     17 CL   UNL     1     -10.697   8.757  67.595  0.00  0.00    -0.096 Cl
ATOM     18 CL   UNL     1      -8.079   9.922  66.781  0.00  0.00    -0.096 Cl
ENDBRANCH   1  16
TORSDOF 3
ENDMDL
MODEL 8
REMARK VINA RESULT:      -5.0      2.749      4.770
REMARK  Name = 
REMARK  3 active torsions:
REMARK  status: ('A' for Active; 'I' for Inactive)
REMARK    1  A    between atoms: C_5  and  C_6
REMARK    2  A    between atoms: C_6  and  C_7
REMARK    3  A    between atoms: C_6  and  C_14
REMARK                            x       y       z     vdW  Elec       q    Type
REMARK                         _______ _______ _______ _____ _____    ______ ____
ROOT
ATOM      1  C   UNL     1      -9.913  13.347  67.812  0.00  0.00    +0.076 C 
ENDROOT
BRANCH   1   6
ATOM      2 CL   UNL     1     -11.364   9.198  71.762  0.00  0.00    -0.082 Cl
ATOM      3  C   UNL     1     -11.324  10.143  70.278  0.00  0.00    +0.058 A 
ATOM      4  C   UNL     1     -12.149  11.249  70.096  0.00  0.00    +0.011 A 
ATOM      5  C   UNL     1     -11.509  12.357  69.553  0.00  0.00    -0.003 A 
ATOM      6  C   UNL     1     -10.773  12.112  68.435  0.00  0.00    -0.016 A 
ATOM      7  C   UNL     1      -9.992  10.958  68.530  0.00  0.00    -0.003 A 
ATOM      8  C   UNL     1     -10.461   9.847  69.230  0.00  0.00    +0.011 A 
ENDBRANCH   1   6
BRANCH   1   9
ATOM      9  C   UNL     1     -10.995  13.705  66.643  0.00  0.00    -0.005 A 
ATOM     10  C   UNL     1     -10.579  14.697  65.787  0.00  0.00    +0.054 A 
ATOM     11 CL   UNL     1      -9.077  15.558  65.911  0.00  0.00    -0.083 Cl
ATOM     12  C   UNL     1     -11.433  14.961  64.723  0.00  0.00    +0.011 A 
ATOM     13  C   UNL     1     -12.365  14.014  64.325  0.00  0.00    +0.001 A 
ATOM     14  C   UNL     1     -12.422  12.811  65.018  0.00  0.00    -0.000 A 
ATOM     15  C   UNL     1     -11.503  12.561  66.030  0.00  0.00    -0.003 A 
ENDBRANCH   1   9
BRANCH   1  16
ATOM     16  C   UNL     1     -10.531  14.407  68.921  0.00  0.00    +0.167 C 
ATOM     17 CL   UNL     1     -11.954  15.132  68.464  0.00  0.00    -0.096 Cl
ATOM     18 CL   UNL     1      -9.221  15.265  69.643  0.00  0.00    -0.096 Cl
ENDBRANCH   1  16
TORSDOF 3
ENDMDL
MODEL 9
REMARK VINA RESULT:      -5.0      7.693     10.043
REMARK  Name = 
REMARK  3 active torsions:
REMARK  status: ('A' for Active; 'I' for Inactive)
REMARK    1  A    between atoms: C_5  and  C_6
REMARK    2  A    between atoms: C_6  and  C_7
REMARK    3  A    between atoms: C_6  and  C_14
REMARK                            x       y       z     vdW  Elec       q    Type
REMARK                         _______ _______ _______ _____ _____    ______ ____
ROOT
ATOM      1  C   UNL     1     -10.856   6.607  71.731  0.00  0.00    +0.076 C 
ENDROOT
BRANCH   1   6
ATOM      2 CL   UNL     1     -13.291  11.984  72.001  0.00  0.00    -0.082 Cl
ATOM      3  C   UNL     1     -12.819  10.398  71.403  0.00  0.00    +0.058 A 
ATOM      4  C   UNL     1     -11.631  10.207  70.705  0.00  0.00    +0.011 A 
ATOM      5  C   UNL     1     -10.907   9.088  71.101  0.00  0.00    -0.003 A 
ATOM      6  C   UNL     1     -11.620   7.931  71.171  0.00  0.00    -0.016 A 
ATOM      7  C   UNL     1     -12.866   8.086  71.784  0.00  0.00    -0.003 A 
ATOM      8  C   UNL     1     -13.593   9.263  71.612  0.00  0.00    +0.011 A 
ENDBRANCH   1   6
BRANCH   1   9
ATOM      9  C   UNL     1     -10.349   6.098  70.266  0.00  0.00    -0.005 A 
ATOM     10  C   UNL     1      -9.959   4.779  70.240  0.00  0.00    +0.054 A 
ATOM     11 CL   UNL     1      -9.941   3.718  71.613  0.00  0.00    -0.083 Cl
ATOM     12  C   UNL     1      -9.612   4.286  68.989  0.00  0.00    +0.011 A 
ATOM     13  C   UNL     1     -10.053   4.926  67.840  0.00  0.00    +0.001 A 
ATOM     14  C   UNL     1     -10.837   6.064  67.978  0.00  0.00    -0.000 A 
ATOM     15  C   UNL     1     -11.218   6.483  69.246  0.00  0.00    -0.003 A 
ENDBRANCH   1   9
BRANCH   1  16
ATOM     16  C   UNL     1      -9.489   7.474  72.072  0.00  0.00    +0.167 C 
ATOM     17 CL   UNL     1      -8.189   7.122  71.101  0.00  0.00    -0.096 Cl
ATOM     18 CL   UNL     1      -9.371   7.654  73.783  0.00  0.00    -0.096 Cl
ENDBRANCH   1  16
TORSDOF 3
ENDMDL
