MODEL 1
REMARK VINA RESULT:      -7.5      0.000      0.000
REMARK  Name = 
REMARK  3 active torsions:
REMARK  status: ('A' for Active; 'I' for Inactive)
REMARK    1  A    between atoms: C_6  and  O_8
REMARK    2  A    between atoms: O_8  and  C_9
REMARK    3  A    between atoms: N_18  and  C_19
REMARK                            x       y       z     vdW  Elec       q    Type
REMARK                         _______ _______ _______ _____ _____    ______ ____
ROOT
ATOM      1  C   UNL     1     -10.654  13.827  68.433  0.00  0.00    +0.299 C 
ATOM      2  N   UNL     1     -11.699  12.690  67.936  0.00  0.00    -0.200 N 
ATOM      3  C   UNL     1     -11.803  12.014  69.196  0.00  0.00    +0.276 C 
ATOM      4  O   UNL     1     -11.863  10.779  69.448  0.00  0.00    -0.268 OA
ATOM      5  C   UNL     1     -12.057  13.079  70.173  0.00  0.00    +0.154 A 
ATOM      6  N   UNL     1     -12.754  13.159  71.332  0.00  0.00    -0.236 NA
ATOM      7  C   UNL     1     -13.268  14.348  71.741  0.00  0.00    +0.120 A 
ATOM      8  C   UNL     1     -13.185  15.412  70.847  0.00  0.00    +0.119 A 
ATOM      9  N   UNL     1     -12.219  15.458  69.889  0.00  0.00    -0.239 NA
ATOM     10  C   UNL     1     -11.718  14.291  69.607  0.00  0.00    +0.141 A 
ENDROOT
BRANCH   2  11
ATOM     11  C   UNL     1     -11.450  12.006  66.734  0.00  0.00    +0.141 A 
ATOM     12  N   UNL     1     -10.210  11.479  66.576  0.00  0.00    -0.228 NA
ATOM     13  C   UNL     1      -9.601  11.381  65.383  0.00  0.00    +0.112 A 
ATOM     14  C   UNL     1     -10.332  11.505  64.209  0.00  0.00    +0.077 A 
ATOM     15 CL   UNL     1      -9.901  10.503  62.827  0.00  0.00    -0.081 Cl
ATOM     16  C   UNL     1     -11.564  12.136  64.314  0.00  0.00    +0.016 A 
ATOM     17  C   UNL     1     -12.063  12.455  65.571  0.00  0.00    +0.036 A 
ENDBRANCH   2  11
BRANCH   1  18
ATOM     18  O   UNL     1     -11.196  14.891  67.386  0.00  0.00    -0.412 OA
BRANCH  18  24
ATOM     19  C   UNL     1      -9.624  20.526  67.388  0.00  0.00    +0.090 C 
ATOM     20  N   UNL     1      -8.850  19.506  67.769  0.00  0.00    -0.269 NA
ATOM     21  C   UNL     1      -9.670  18.585  68.536  0.00  0.00    +0.094 C 
ATOM     22  C   UNL     1     -10.626  17.899  67.565  0.00  0.00    +0.114 C 
ATOM     23  N   UNL     1      -9.817  16.916  66.848  0.00  0.00    -0.243 N 
ATOM     24  C   UNL     1     -10.171  15.559  66.745  0.00  0.00    +0.407 C 
ATOM     25  O   UNL     1      -9.360  14.777  66.163  0.00  0.00    -0.226 OA
ATOM     26  C   UNL     1      -8.418  17.329  66.734  0.00  0.00    +0.114 C 
ATOM     27  C   UNL     1      -8.349  18.843  66.601  0.00  0.00    +0.094 C 
ENDBRANCH  18  24
ENDBRANCH   1  18
TORSDOF 3
ENDMDL
MODEL 2
REMARK VINA RESULT:      -7.4      1.784      5.269
REMARK  Name = 
REMARK  3 active torsions:
REMARK  status: ('A' for Active; 'I' for Inactive)
REMARK    1  A    between atoms: C_6  and  O_8
REMARK    2  A    between atoms: O_8  and  C_9
REMARK    3  A    between atoms: N_18  and  C_19
REMARK                            x       y       z     vdW  Elec       q    Type
REMARK                         _______ _______ _______ _____ _____    ______ ____
ROOT
ATOM      1  C   UNL     1     -11.389  15.536  67.657  0.00  0.00    +0.299 C 
ATOM      2  N   UNL     1     -10.250  15.276  66.531  0.00  0.00    -0.200 N 
ATOM      3  C   UNL     1     -10.611  16.379  65.688  0.00  0.00    +0.276 C 
ATOM      4  O   UNL     1     -10.661  16.450  64.429  0.00  0.00    -0.268 OA
ATOM      5  C   UNL     1     -10.708  17.528  66.595  0.00  0.00    +0.154 A 
ATOM      6  N   UNL     1     -10.469  18.856  66.475  0.00  0.00    -0.236 NA
ATOM      7  C   UNL     1     -10.120  19.589  67.563  0.00  0.00    +0.120 A 
ATOM      8  C   UNL     1      -9.865  18.891  68.739  0.00  0.00    +0.119 A 
ATOM      9  N   UNL     1     -10.425  17.672  68.975  0.00  0.00    -0.239 NA
ATOM     10  C   UNL     1     -10.808  17.064  67.890  0.00  0.00    +0.141 A 
ENDROOT
BRANCH   2  11
ATOM     11  C   UNL     1     -10.062  13.976  66.030  0.00  0.00    +0.141 A 
ATOM     12  N   UNL     1     -11.177  13.295  65.666  0.00  0.00    -0.228 NA
ATOM     13  C   UNL     1     -11.293  11.962  65.782  0.00  0.00    +0.112 A 
ATOM     14  C   UNL     1     -10.166  11.172  65.967  0.00  0.00    +0.077 A 
ATOM     15 CL   UNL     1     -10.097   9.592  65.195  0.00  0.00    -0.081 Cl
ATOM     16  C   UNL     1      -9.033  11.818  66.442  0.00  0.00    +0.016 A 
ATOM     17  C   UNL     1      -9.030  13.204  66.548  0.00  0.00    +0.036 A 
ENDBRANCH   2  11
BRANCH   1  18
ATOM     18  O   UNL     1     -10.495  14.915  68.813  0.00  0.00    -0.412 OA
BRANCH  18  24
ATOM     19  C   UNL     1     -12.523  15.522  74.267  0.00  0.00    +0.090 C 
ATOM     20  N   UNL     1     -13.269  15.277  73.186  0.00  0.00    -0.269 NA
ATOM     21  C   UNL     1     -12.759  16.092  72.098  0.00  0.00    +0.094 C 
ATOM     22  C   UNL     1     -11.412  15.512  71.678  0.00  0.00    +0.114 C 
ATOM     23  N   UNL     1     -11.725  14.308  70.913  0.00  0.00    -0.243 N 
ATOM     24  C   UNL     1     -11.215  14.061  69.626  0.00  0.00    +0.407 C 
ATOM     25  O   UNL     1     -11.611  13.020  69.021  0.00  0.00    -0.226 OA
ATOM     26  C   UNL     1     -12.978  13.688  71.346  0.00  0.00    +0.114 C 
ATOM     27  C   UNL     1     -13.149  13.890  72.844  0.00  0.00    +0.094 C 
ENDBRANCH  18  24
ENDBRANCH   1  18
TORSDOF 3
ENDMDL
MODEL 3
REMARK VINA RESULT:      -7.4      2.658      5.988
REMARK  Name = 
REMARK  3 active torsions:
REMARK  status: ('A' for Active; 'I' for Inactive)
REMARK    1  A    between atoms: C_6  and  O_8
REMARK    2  A    between atoms: O_8  and  C_9
REMARK    3  A    between atoms: N_18  and  C_19
REMARK                            x       y       z     vdW  Elec       q    Type
REMARK                         _______ _______ _______ _____ _____    ______ ____
ROOT
ATOM      1  C   UNL     1     -11.724  14.596  68.120  0.00  0.00    +0.299 C 
ATOM      2  N   UNL     1     -10.931  15.362  69.309  0.00  0.00    -0.200 N 
ATOM      3  C   UNL     1     -11.962  15.224  70.296  0.00  0.00    +0.276 C 
ATOM      4  O   UNL     1     -12.367  16.048  71.163  0.00  0.00    -0.268 OA
ATOM      5  C   UNL     1     -12.334  13.805  70.255  0.00  0.00    +0.154 A 
ATOM      6  N   UNL     1     -12.770  12.910  71.173  0.00  0.00    -0.236 NA
ATOM      7  C   UNL     1     -12.525  11.585  71.007  0.00  0.00    +0.120 A 
ATOM      8  C   UNL     1     -11.681  11.226  69.960  0.00  0.00    +0.119 A 
ATOM      9  N   UNL     1     -11.538  12.019  68.862  0.00  0.00    -0.239 NA
ATOM     10  C   UNL     1     -11.869  13.258  69.077  0.00  0.00    +0.141 A 
ENDROOT
BRANCH   2  11
ATOM     11  C   UNL     1     -10.308  16.592  69.040  0.00  0.00    +0.141 A 
ATOM     12  N   UNL     1     -10.977  17.453  68.233  0.00  0.00    -0.228 NA
ATOM     13  C   UNL     1     -10.362  18.300  67.391  0.00  0.00    +0.112 A 
ATOM     14  C   UNL     1      -9.009  18.577  67.539  0.00  0.00    +0.077 A 
ATOM     15 CL   UNL     1      -8.434  20.209  67.214  0.00  0.00    -0.081 Cl
ATOM     16  C   UNL     1      -8.269  17.660  68.272  0.00  0.00    +0.016 A 
ATOM     17  C   UNL     1      -8.923  16.630  68.939  0.00  0.00    +0.036 A 
ENDBRANCH   2  11
BRANCH   1  18
ATOM     18  O   UNL     1     -10.379  14.088  67.446  0.00  0.00    -0.412 OA
BRANCH  18  24
ATOM     19  C   UNL     1      -8.826   9.878  63.693  0.00  0.00    +0.090 C 
ATOM     20  N   UNL     1     -10.065  10.353  63.854  0.00  0.00    -0.269 NA
ATOM     21  C   UNL     1     -10.289  10.540  65.277  0.00  0.00    +0.094 C 
ATOM     22  C   UNL     1      -9.443  11.728  65.726  0.00  0.00    +0.114 C 
ATOM     23  N   UNL     1     -10.145  12.914  65.242  0.00  0.00    -0.243 N 
ATOM     24  C   UNL     1     -10.486  13.997  66.072  0.00  0.00    +0.407 C 
ATOM     25  O   UNL     1     -11.161  14.943  65.566  0.00  0.00    -0.226 OA
ATOM     26  C   UNL     1     -10.907  12.646  64.022  0.00  0.00    +0.114 C 
ATOM     27  C   UNL     1     -10.168  11.615  63.182  0.00  0.00    +0.094 C 
ENDBRANCH  18  24
ENDBRANCH   1  18
TORSDOF 3
ENDMDL
MODEL 4
REMARK VINA RESULT:      -7.2      3.626      7.470
REMARK  Name = 
REMARK  3 active torsions:
REMARK  status: ('A' for Active; 'I' for Inactive)
REMARK    1  A    between atoms: C_6  and  O_8
REMARK    2  A    between atoms: O_8  and  C_9
REMARK    3  A    between atoms: N_18  and  C_19
REMARK                            x       y       z     vdW  Elec       q    Type
REMARK                         _______ _______ _______ _____ _____    ______ ____
ROOT
ATOM      1  C   UNL     1     -11.150  13.491  68.596  0.00  0.00    +0.299 C 
ATOM      2  N   UNL     1     -11.987  14.863  68.818  0.00  0.00    -0.200 N 
ATOM      3  C   UNL     1     -11.278  15.636  67.841  0.00  0.00    +0.276 C 
ATOM      4  O   UNL     1     -10.898  16.840  67.883  0.00  0.00    -0.268 OA
ATOM      5  C   UNL     1     -11.261  14.798  66.637  0.00  0.00    +0.154 A 
ATOM      6  N   UNL     1     -11.280  15.046  65.306  0.00  0.00    -0.236 NA
ATOM      7  C   UNL     1     -11.794  14.128  64.446  0.00  0.00    +0.120 A 
ATOM      8  C   UNL     1     -12.433  13.027  65.007  0.00  0.00    +0.119 A 
ATOM      9  N   UNL     1     -12.121  12.588  66.258  0.00  0.00    -0.239 NA
ATOM     10  C   UNL     1     -11.560  13.500  66.997  0.00  0.00    +0.141 A 
ENDROOT
BRANCH   2  11
ATOM     11  C   UNL     1     -12.214  15.327  70.125  0.00  0.00    +0.141 A 
ATOM     12  N   UNL     1     -11.163  15.279  70.981  0.00  0.00    -0.228 NA
ATOM     13  C   UNL     1     -11.299  15.061  72.299  0.00  0.00    +0.112 A 
ATOM     14  C   UNL     1     -12.539  15.203  72.910  0.00  0.00    +0.077 A 
ATOM     15 CL   UNL     1     -12.615  15.871  74.537  0.00  0.00    -0.081 Cl
ATOM     16  C   UNL     1     -13.646  15.150  72.075  0.00  0.00    +0.016 A 
ATOM     17  C   UNL     1     -13.463  15.124  70.697  0.00  0.00    +0.036 A 
ENDBRANCH   2  11
BRANCH   1  18
ATOM     18  O   UNL     1     -12.384  12.581  69.008  0.00  0.00    -0.412 OA
BRANCH  18  24
ATOM     19  C   UNL     1      -9.666   7.514  67.936  0.00  0.00    +0.090 C 
ATOM     20  N   UNL     1      -9.231   8.465  68.767  0.00  0.00    -0.269 NA
ATOM     21  C   UNL     1      -9.464   9.751  68.135  0.00  0.00    +0.094 C 
ATOM     22  C   UNL     1     -10.969  10.002  68.141  0.00  0.00    +0.114 C 
ATOM     23  N   UNL     1     -11.298  10.378  69.514  0.00  0.00    -0.243 N 
ATOM     24  C   UNL     1     -12.012  11.544  69.841  0.00  0.00    +0.407 C 
ATOM     25  O   UNL     1     -12.178  11.813  71.069  0.00  0.00    -0.226 OA
ATOM     26  C   UNL     1     -10.393   9.765  70.487  0.00  0.00    +0.114 C 
ATOM     27  C   UNL     1      -9.976   8.388  69.989  0.00  0.00    +0.094 C 
ENDBRANCH  18  24
ENDBRANCH   1  18
TORSDOF 3
ENDMDL
MODEL 5
REMARK VINA RESULT:      -7.0      2.076      5.097
REMARK  Name = 
REMARK  3 active torsions:
REMARK  status: ('A' for Active; 'I' for Inactive)
REMARK    1  A    between atoms: C_6  and  O_8
REMARK    2  A    between atoms: O_8  and  C_9
REMARK    3  A    between atoms: N_18  and  C_19
REMARK                            x       y       z     vdW  Elec       q    Type
REMARK                         _______ _______ _______ _____ _____    ______ ____
ROOT
ATOM      1  C   UNL     1     -11.423  13.628  67.324  0.00  0.00    +0.299 C 
ATOM      2  N   UNL     1     -10.079  13.122  66.570  0.00  0.00    -0.200 N 
ATOM      3  C   UNL     1     -10.357  13.757  65.315  0.00  0.00    +0.276 C 
ATOM      4  O   UNL     1     -10.177  13.336  64.138  0.00  0.00    -0.268 OA
ATOM      5  C   UNL     1     -10.706  15.139  65.663  0.00  0.00    +0.154 A 
ATOM      6  N   UNL     1     -10.548  16.340  65.057  0.00  0.00    -0.236 NA
ATOM      7  C   UNL     1     -10.463  17.474  65.799  0.00  0.00    +0.120 A 
ATOM      8  C   UNL     1     -10.380  17.321  67.180  0.00  0.00    +0.119 A 
ATOM      9  N   UNL     1     -10.883  16.218  67.801  0.00  0.00    -0.239 NA
ATOM     10  C   UNL     1     -11.011  15.195  67.007  0.00  0.00    +0.141 A 
ENDROOT
BRANCH   2  11
ATOM     11  C   UNL     1      -9.706  11.770  66.662  0.00  0.00    +0.141 A 
ATOM     12  N   UNL     1      -8.405  11.477  66.416  0.00  0.00    -0.228 NA
ATOM     13  C   UNL     1      -8.006  10.326  65.851  0.00  0.00    +0.112 A 
ATOM     14  C   UNL     1      -8.867   9.237  65.792  0.00  0.00    +0.077 A 
ATOM     15 CL   UNL     1      -8.207   7.618  66.000  0.00  0.00    -0.081 Cl
ATOM     16  C   UNL     1     -10.219   9.514  65.934  0.00  0.00    +0.016 A 
ATOM     17  C   UNL     1     -10.622  10.798  66.281  0.00  0.00    +0.036 A 
ENDBRANCH   2  11
BRANCH   1  18
ATOM     18  O   UNL     1     -10.718  13.627  68.746  0.00  0.00    -0.412 OA
BRANCH  18  24
ATOM     19  C   UNL     1     -12.561  15.937  73.795  0.00  0.00    +0.090 C 
ATOM     20  N   UNL     1     -13.350  15.525  72.798  0.00  0.00    -0.269 NA
ATOM     21  C   UNL     1     -12.742  15.942  71.547  0.00  0.00    +0.094 C 
ATOM     22  C   UNL     1     -11.499  15.085  71.329  0.00  0.00    +0.114 C 
ATOM     23  N   UNL     1     -11.994  13.779  70.900  0.00  0.00    -0.243 N 
ATOM     24  C   UNL     1     -11.543  13.131  69.737  0.00  0.00    +0.407 C 
ATOM     25  O   UNL     1     -12.093  12.034  69.417  0.00  0.00    -0.226 OA
ATOM     26  C   UNL     1     -13.317  13.481  71.449  0.00  0.00    +0.114 C 
ATOM     27  C   UNL     1     -13.437  14.094  72.837  0.00  0.00    +0.094 C 
ENDBRANCH  18  24
ENDBRANCH   1  18
TORSDOF 3
ENDMDL
MODEL 6
REMARK VINA RESULT:      -6.8      3.716      7.781
REMARK  Name = 
REMARK  3 active torsions:
REMARK  status: ('A' for Active; 'I' for Inactive)
REMARK    1  A    between atoms: C_6  and  O_8
REMARK    2  A    between atoms: O_8  and  C_9
REMARK    3  A    between atoms: N_18  and  C_19
REMARK                            x       y       z     vdW  Elec       q    Type
REMARK                         _______ _______ _______ _____ _____    ______ ____
ROOT
ATOM      1  C   UNL     1     -10.480  13.074  68.247  0.00  0.00    +0.299 C 
ATOM      2  N   UNL     1     -11.612  14.048  68.882  0.00  0.00    -0.200 N 
ATOM      3  C   UNL     1     -11.468  15.101  67.920  0.00  0.00    +0.276 C 
ATOM      4  O   UNL     1     -11.485  16.352  68.083  0.00  0.00    -0.268 OA
ATOM      5  C   UNL     1     -11.513  14.427  66.617  0.00  0.00    +0.154 A 
ATOM      6  N   UNL     1     -11.964  14.769  65.386  0.00  0.00    -0.236 NA
ATOM      7  C   UNL     1     -12.376  13.810  64.518  0.00  0.00    +0.120 A 
ATOM      8  C   UNL     1     -12.466  12.510  65.009  0.00  0.00    +0.119 A 
ATOM      9  N   UNL     1     -11.710  12.099  66.065  0.00  0.00    -0.239 NA
ATOM     10  C   UNL     1     -11.285  13.080  66.805  0.00  0.00    +0.141 A 
ENDROOT
BRANCH   2  11
ATOM     11  C   UNL     1     -11.613  14.289  70.267  0.00  0.00    +0.141 A 
ATOM     12  N   UNL     1     -12.533  13.617  71.003  0.00  0.00    -0.228 NA
ATOM     13  C   UNL     1     -13.103  14.126  72.107  0.00  0.00    +0.112 A 
ATOM     14  C   UNL     1     -12.544  15.226  72.743  0.00  0.00    +0.077 A 
ATOM     15 CL   UNL     1     -12.590  15.309  74.501  0.00  0.00    -0.081 Cl
ATOM     16  C   UNL     1     -11.677  16.001  71.984  0.00  0.00    +0.016 A 
ATOM     17  C   UNL     1     -11.295  15.562  70.722  0.00  0.00    +0.036 A 
ENDBRANCH   2  11
BRANCH   1  18
ATOM     18  O   UNL     1     -11.212  11.762  68.761  0.00  0.00    -0.412 OA
BRANCH  18  24
ATOM     19  C   UNL     1     -11.111   7.690  72.960  0.00  0.00    +0.090 C 
ATOM     20  N   UNL     1     -11.143   7.447  71.646  0.00  0.00    -0.269 NA
ATOM     21  C   UNL     1     -12.067   8.389  71.040  0.00  0.00    +0.094 C 
ATOM     22  C   UNL     1     -11.414   9.768  71.082  0.00  0.00    +0.114 C 
ATOM     23  N   UNL     1     -10.403   9.754  70.028  0.00  0.00    -0.243 N 
ATOM     24  C   UNL     1     -10.322  10.740  69.029  0.00  0.00    +0.407 C 
ATOM     25  O   UNL     1      -9.452  10.592  68.119  0.00  0.00    -0.226 OA
ATOM     26  C   UNL     1      -9.868   8.413  69.792  0.00  0.00    +0.114 C 
ATOM     27  C   UNL     1      -9.830   7.647  71.106  0.00  0.00    +0.094 C 
ENDBRANCH  18  24
ENDBRANCH   1  18
TORSDOF 3
ENDMDL
MODEL 7
REMARK VINA RESULT:      -6.7      3.499      5.899
REMARK  Name = 
REMARK  3 active torsions:
REMARK  status: ('A' for Active; 'I' for Inactive)
REMARK    1  A    between atoms: C_6  and  O_8
REMARK    2  A    between atoms: O_8  and  C_9
REMARK    3  A    between atoms: N_18  and  C_19
REMARK                            x       y       z     vdW  Elec       q    Type
REMARK                         _______ _______ _______ _____ _____    ______ ____
ROOT
ATOM      1  C   UNL     1     -10.877  10.337  70.051  0.00  0.00    +0.299 C 
ATOM      2  N   UNL     1     -10.891  10.340  68.429  0.00  0.00    -0.200 N 
ATOM      3  C   UNL     1      -9.762   9.472  68.263  0.00  0.00    +0.276 C 
ATOM      4  O   UNL     1      -8.817   9.527  67.428  0.00  0.00    -0.268 OA
ATOM      5  C   UNL     1     -10.032   8.331  69.145  0.00  0.00    +0.154 A 
ATOM      6  N   UNL     1      -9.746   7.008  69.102  0.00  0.00    -0.236 NA
ATOM      7  C   UNL     1     -10.548   6.114  69.735  0.00  0.00    +0.120 A 
ATOM      8  C   UNL     1     -11.736   6.601  70.271  0.00  0.00    +0.119 A 
ATOM      9  N   UNL     1     -11.865   7.907  70.637  0.00  0.00    -0.239 NA
ATOM     10  C   UNL     1     -11.010   8.691  70.049  0.00  0.00    +0.141 A 
ENDROOT
BRANCH   2  11
ATOM     11  C   UNL     1     -11.007  11.562  67.745  0.00  0.00    +0.141 A 
ATOM     12  N   UNL     1     -11.631  11.532  66.541  0.00  0.00    -0.228 NA
ATOM     13  C   UNL     1     -11.304  12.345  65.524  0.00  0.00    +0.112 A 
ATOM     14  C   UNL     1     -10.541  13.483  65.752  0.00  0.00    +0.077 A 
ATOM     15 CL   UNL     1     -10.891  14.943  64.832  0.00  0.00    -0.081 Cl
ATOM     16  C   UNL     1      -9.804  13.504  66.928  0.00  0.00    +0.016 A 
ATOM     17  C   UNL     1      -9.985  12.495  67.867  0.00  0.00    +0.036 A 
ENDBRANCH   2  11
BRANCH   1  18
ATOM     18  O   UNL     1     -12.446  10.561  70.141  0.00  0.00    -0.412 OA
BRANCH  18  24
ATOM     19  C   UNL     1     -11.960  16.177  71.705  0.00  0.00    +0.090 C 
ATOM     20  N   UNL     1     -13.104  15.492  71.626  0.00  0.00    -0.269 NA
ATOM     21  C   UNL     1     -13.047  14.667  70.432  0.00  0.00    +0.094 C 
ATOM     22  C   UNL     1     -12.039  13.551  70.690  0.00  0.00    +0.114 C 
ATOM     23  N   UNL     1     -12.718  12.605  71.571  0.00  0.00    -0.243 N 
ATOM     24  C   UNL     1     -12.811  11.229  71.295  0.00  0.00    +0.407 C 
ATOM     25  O   UNL     1     -13.488  10.509  72.089  0.00  0.00    -0.226 OA
ATOM     26  C   UNL     1     -13.710  13.258  72.425  0.00  0.00    +0.114 C 
ATOM     27  C   UNL     1     -13.225  14.655  72.783  0.00  0.00    +0.094 C 
ENDBRANCH  18  24
ENDBRANCH   1  18
TORSDOF 3
ENDMDL
MODEL 8
REMARK VINA RESULT:      -6.7      1.645      2.424
REMARK  Name = 
REMARK  3 active torsions:
REMARK  status: ('A' for Active; 'I' for Inactive)
REMARK    1  A    between atoms: C_6  and  O_8
REMARK    2  A    between atoms: O_8  and  C_9
REMARK    3  A    between atoms: N_18  and  C_19
REMARK                            x       y       z     vdW  Elec       q    Type
REMARK                         _______ _______ _______ _____ _____    ______ ____
ROOT
ATOM      1  C   UNL     1     -10.911  14.869  69.379  0.00  0.00    +0.299 C 
ATOM      2  N   UNL     1     -11.733  13.773  68.511  0.00  0.00    -0.200 N 
ATOM      3  C   UNL     1     -11.860  12.806  69.562  0.00  0.00    +0.276 C 
ATOM      4  O   UNL     1     -11.768  11.548  69.518  0.00  0.00    -0.268 OA
ATOM      5  C   UNL     1     -12.353  13.568  70.715  0.00  0.00    +0.154 A 
ATOM      6  N   UNL     1     -13.160  13.286  71.766  0.00  0.00    -0.236 NA
ATOM      7  C   UNL     1     -13.872  14.274  72.366  0.00  0.00    +0.120 A 
ATOM      8  C   UNL     1     -13.856  15.524  71.754  0.00  0.00    +0.119 A 
ATOM      9  N   UNL     1     -12.820  15.911  70.959  0.00  0.00    -0.239 NA
ATOM     10  C   UNL     1     -12.135  14.911  70.486  0.00  0.00    +0.141 A 
ENDROOT
BRANCH   2  11
ATOM     11  C   UNL     1     -11.279  13.431  67.226  0.00  0.00    +0.141 A 
ATOM     12  N   UNL     1     -12.201  13.430  66.231  0.00  0.00    -0.228 NA
ATOM     13  C   UNL     1     -12.153  12.587  65.186  0.00  0.00    +0.112 A 
ATOM     14  C   UNL     1     -10.983  11.900  64.892  0.00  0.00    +0.077 A 
ATOM     15 CL   UNL     1     -10.554  11.630  63.206  0.00  0.00    -0.081 Cl
ATOM     16  C   UNL     1     -10.058  11.789  65.922  0.00  0.00    +0.016 A 
ATOM     17  C   UNL     1     -10.266  12.488  67.105  0.00  0.00    +0.036 A 
ENDBRANCH   2  11
BRANCH   1  18
ATOM     18  O   UNL     1     -11.496  16.084  68.541  0.00  0.00    -0.412 OA
BRANCH  18  24
ATOM     19  C   UNL     1      -5.702  15.658  67.858  0.00  0.00    +0.090 C 
ATOM     20  N   UNL     1      -6.558  16.114  66.939  0.00  0.00    -0.269 NA
ATOM     21  C   UNL     1      -7.735  15.263  66.965  0.00  0.00    +0.094 C 
ATOM     22  C   UNL     1      -8.488  15.557  68.260  0.00  0.00    +0.114 C 
ATOM     23  N   UNL     1      -9.156  16.837  68.042  0.00  0.00    -0.243 N 
ATOM     24  C   UNL     1     -10.533  17.032  68.256  0.00  0.00    +0.407 C 
ATOM     25  O   UNL     1     -11.024  18.164  67.964  0.00  0.00    -0.226 OA
ATOM     26  C   UNL     1      -8.423  17.692  67.108  0.00  0.00    +0.114 C 
ATOM     27  C   UNL     1      -6.929  17.457  67.276  0.00  0.00    +0.094 C 
ENDBRANCH  18  24
ENDBRANCH   1  18
TORSDOF 3
ENDMDL
MODEL 9
REMARK VINA RESULT:      -6.7      3.642      5.819
REMARK  Name = 
REMARK  3 active torsions:
REMARK  status: ('A' for Active; 'I' for Inactive)
REMARK    1  A    between atoms: C_6  and  O_8
REMARK    2  A    between atoms: O_8  and  C_9
REMARK    3  A    between atoms: N_18  and  C_19
REMARK                            x       y       z     vdW  Elec       q    Type
REMARK                         _______ _______ _______ _____ _____    ______ ____
ROOT
ATOM      1  C   UNL     1     -11.512  11.390  67.470  0.00  0.00    +0.299 C 
ATOM      2  N   UNL     1      -9.967  11.241  66.996  0.00  0.00    -0.200 N 
ATOM      3  C   UNL     1     -10.257  10.819  65.656  0.00  0.00    +0.276 C 
ATOM      4  O   UNL     1      -9.690   9.943  64.945  0.00  0.00    -0.268 OA
ATOM      5  C   UNL     1     -11.242  11.787  65.162  0.00  0.00    +0.154 A 
ATOM      6  N   UNL     1     -11.523  12.322  63.949  0.00  0.00    -0.236 NA
ATOM      7  C   UNL     1     -12.091  13.551  63.859  0.00  0.00    +0.120 A 
ATOM      8  C   UNL     1     -12.211  14.279  65.039  0.00  0.00    +0.119 A 
ATOM      9  N   UNL     1     -12.278  13.660  66.250  0.00  0.00    -0.239 NA
ATOM     10  C   UNL     1     -11.786  12.455  66.239  0.00  0.00    +0.141 A 
ENDROOT
BRANCH   2  11
ATOM     11  C   UNL     1      -9.058  10.557  67.820  0.00  0.00    +0.141 A 
ATOM     12  N   UNL     1      -9.574   9.623  68.657  0.00  0.00    -0.228 NA
ATOM     13  C   UNL     1      -9.056   9.355  69.867  0.00  0.00    +0.112 A 
ATOM     14  C   UNL     1      -7.773   9.778  70.191  0.00  0.00    +0.077 A 
ATOM     15 CL   UNL     1      -6.760   8.738  71.187  0.00  0.00    -0.081 Cl
ATOM     16  C   UNL     1      -7.252  10.808  69.421  0.00  0.00    +0.016 A 
ATOM     17  C   UNL     1      -7.946  11.240  68.297  0.00  0.00    +0.036 A 
ENDBRANCH   2  11
BRANCH   1  18
ATOM     18  O   UNL     1     -11.161  12.535  68.512  0.00  0.00    -0.412 OA
BRANCH  18  24
ATOM     19  C   UNL     1     -12.301  16.201  72.926  0.00  0.00    +0.090 C 
ATOM     20  N   UNL     1     -13.215  15.512  72.236  0.00  0.00    -0.269 NA
ATOM     21  C   UNL     1     -12.838  15.551  70.834  0.00  0.00    +0.094 C 
ATOM     22  C   UNL     1     -11.600  14.676  70.664  0.00  0.00    +0.114 C 
ATOM     23  N   UNL     1     -12.084  13.298  70.716  0.00  0.00    -0.243 N 
ATOM     24  C   UNL     1     -11.789  12.343  69.728  0.00  0.00    +0.407 C 
ATOM     25  O   UNL     1     -12.322  11.197  69.832  0.00  0.00    -0.226 OA
ATOM     26  C   UNL     1     -13.285  13.165  71.542  0.00  0.00    +0.114 C 
ATOM     27  C   UNL     1     -13.215  14.154  72.696  0.00  0.00    +0.094 C 
ENDBRANCH  18  24
ENDBRANCH   1  18
TORSDOF 3
ENDMDL
