MODEL 1
REMARK VINA RESULT:      -6.8      0.000      0.000
REMARK  Name = 
REMARK  6 active torsions:
REMARK  status: ('A' for Active; 'I' for Inactive)
REMARK    1  A    between atoms: C_2  and  C_3
REMARK    2  A    between atoms: C_11  and  O_12
REMARK    3  A    between atoms: C_31  and  C_32
REMARK    4  A    between atoms: C_34  and  C_35
REMARK    5  A    between atoms: C_40  and  O_41
REMARK    6  A    between atoms: C_54  and  O_55
REMARK                            x       y       z     vdW  Elec       q    Type
REMARK                         _______ _______ _______ _____ _____    ______ ____
ROOT
ATOM      1  C   UNL     1      -2.216  13.226  68.172  0.00  0.00    +0.079 C 
ATOM      2  C   UNL     1      -3.555  12.678  67.464  0.00  0.00    +0.157 C 
ATOM      3  O   UNL     1      -3.205  12.718  66.284  0.00  0.00    -0.296 OA
ATOM      4  C   UNL     1      -4.531  11.932  68.149  0.00  0.00    +0.098 C 
ATOM      5  C   UNL     1      -5.262  10.814  67.215  0.00  0.00    +0.163 C 
ATOM      6  O   UNL     1      -5.207  11.649  65.959  0.00  0.00    -0.223 OA
ATOM      7  C   UNL     1      -6.865  11.280  67.607  0.00  0.00    +0.075 C 
ATOM      8  C   UNL     1      -6.603  12.834  67.306  0.00  0.00    +0.007 C 
ATOM      9  C   UNL     1      -7.483  10.917  66.071  0.00  0.00    +0.189 C 
ATOM     10  O   UNL     1      -8.687  11.836  66.019  0.00  0.00    -0.447 OA
ATOM     11  C   UNL     1      -9.914  11.431  66.486  0.00  0.00    +0.335 C 
ATOM     12  O   UNL     1     -10.920  11.427  65.700  0.00  0.00    -0.248 OA
ATOM     13  C   UNL     1      -9.711  12.716  67.441  0.00  0.00    +0.175 C 
ATOM     14  N   UNL     1     -11.250  12.985  67.498  0.00  0.00    -0.265 N 
ATOM     15  C   UNL     1     -12.048  12.889  68.609  0.00  0.00    +0.094 C 
ATOM     16  C   UNL     1     -11.967  11.708  69.500  0.00  0.00    +0.022 C 
ATOM     17  C   UNL     1     -10.860  10.898  68.826  0.00  0.00    +0.004 C 
ATOM     18  C   UNL     1     -11.669  13.789  66.388  0.00  0.00    +0.289 C 
ATOM     19  O   UNL     1     -12.825  13.543  65.932  0.00  0.00    -0.267 OA
ATOM     20  C   UNL     1     -10.552  14.435  65.687  0.00  0.00    +0.279 C 
ATOM     21  O   UNL     1     -10.708  14.505  64.418  0.00  0.00    -0.281 OA
ATOM     22  C   UNL     1      -9.742  15.300  66.412  0.00  0.00    +0.279 C 
ATOM     23  C   UNL     1     -10.919  16.432  66.699  0.00  0.00    +0.065 C 
ATOM     24  C   UNL     1     -10.032  17.783  66.843  0.00  0.00    +0.038 C 
ATOM     25  C   UNL     1      -9.386  17.389  68.292  0.00  0.00    +0.145 C 
ATOM     26  C   UNL     1      -8.200  16.575  67.375  0.00  0.00    +0.172 C 
ATOM     27  C   UNL     1      -7.180  16.349  68.735  0.00  0.00    +0.145 C 
ATOM     28  C   UNL     1      -6.563  15.025  68.028  0.00  0.00    +0.032 C 
ATOM     29  C   UNL     1      -5.228  15.547  67.262  0.00  0.00    +0.007 C 
ATOM     30  C   UNL     1      -5.736  17.037  66.840  0.00  0.00    +0.000 C 
ATOM     31  C   UNL     1      -4.508  16.115  68.615  0.00  0.00    +0.022 C 
ATOM     32  C   UNL     1      -3.120  15.611  68.266  0.00  0.00    -0.048 C 
ATOM     33  C   UNL     1      -2.177  16.777  68.090  0.00  0.00    +0.026 C 
ATOM     34  C   UNL     1     -11.197  16.788  65.126  0.00  0.00    +0.006 C 
ATOM     35  O   UNL     1      -8.956  15.913  65.393  0.00  0.00    -0.187 OA
ATOM     36  O   UNL     1      -8.982  15.304  67.448  0.00  0.00    -0.324 OA
ATOM     37  C   UNL     1      -9.729  11.868  68.845  0.00  0.00    +0.031 C 
ATOM     38  C   UNL     1      -2.896  14.501  68.871  0.00  0.00    -0.028 C 
ENDROOT
BRANCH   9  39
ATOM     39  C   UNL     1      -8.294   9.570  66.361  0.00  0.00    -0.009 C 
ATOM     40  C   UNL     1      -8.461   8.710  67.209  0.00  0.00    -0.031 C 
ATOM     41  C   UNL     1      -8.281   9.153  64.895  0.00  0.00    +0.030 C 
BRANCH  40  42
ATOM     42  C   UNL     1      -9.090   7.364  66.512  0.00  0.00    +0.024 C 
ATOM     43  C   UNL     1      -8.169   6.431  67.437  0.00  0.00    +0.035 C 
ATOM     44  C   UNL     1      -8.615   6.335  68.990  0.00  0.00    +0.131 C 
ATOM     45  C   UNL     1      -9.791   5.217  68.529  0.00  0.00    +0.107 C 
ATOM     46 CL   UNL     1     -10.532   5.000  70.225  0.00  0.00    -0.112 Cl
ATOM     47  C   UNL     1     -10.892   6.132  67.912  0.00  0.00    +0.019 C 
ATOM     48  C   UNL     1     -10.522   7.325  67.272  0.00  0.00    +0.006 C 
BRANCH  44  49
ATOM     49  O   UNL     1      -9.505   7.547  69.145  0.00  0.00    -0.352 OA
ATOM     50  C   UNL     1      -9.039   8.035  70.416  0.00  0.00    +0.174 C 
ENDBRANCH  44  49
ENDBRANCH  40  42
ENDBRANCH   9  39
BRANCH   1  52
ATOM     51  C   UNL     1      -1.938  13.145  70.531  0.00  0.00    +0.001 C 
ATOM     52  C   UNL     1      -2.349  12.348  69.554  0.00  0.00    +0.012 C 
ENDBRANCH   1  52
BRANCH  27  53
ATOM     53  O   UNL     1      -8.162  15.556  69.568  0.00  0.00    -0.351 OA
ATOM     54  C   UNL     1      -7.282  14.716  70.268  0.00  0.00    +0.174 C 
ENDBRANCH  27  53
BRANCH  25  55
ATOM     55  O   UNL     1      -8.566  18.653  68.328  0.00  0.00    -0.351 OA
ATOM     56  C   UNL     1      -9.530  19.639  68.410  0.00  0.00    +0.174 C 
ENDBRANCH  25  55
TORSDOF 6
ENDMDL
MODEL 2
REMARK VINA RESULT:      -6.3      4.007      8.389
REMARK  Name = 
REMARK  6 active torsions:
REMARK  status: ('A' for Active; 'I' for Inactive)
REMARK    1  A    between atoms: C_2  and  C_3
REMARK    2  A    between atoms: C_11  and  O_12
REMARK    3  A    between atoms: C_31  and  C_32
REMARK    4  A    between atoms: C_34  and  C_35
REMARK    5  A    between atoms: C_40  and  O_41
REMARK    6  A    between atoms: C_54  and  O_55
REMARK                            x       y       z     vdW  Elec       q    Type
REMARK                         _______ _______ _______ _____ _____    ______ ____
ROOT
ATOM      1  C   UNL     1     -11.691  14.662  67.207  0.00  0.00    +0.079 C 
ATOM      2  C   UNL     1     -11.294  13.366  66.336  0.00  0.00    +0.157 C 
ATOM      3  O   UNL     1     -12.397  13.074  65.873  0.00  0.00    -0.296 OA
ATOM      4  C   UNL     1      -9.977  13.102  65.916  0.00  0.00    +0.098 C 
ATOM      5  C   UNL     1      -9.900  12.363  64.466  0.00  0.00    +0.163 C 
ATOM      6  O   UNL     1     -11.163  11.564  64.667  0.00  0.00    -0.223 OA
ATOM      7  C   UNL     1      -8.864  11.094  64.972  0.00  0.00    +0.075 C 
ATOM      8  C   UNL     1      -9.764  10.723  66.249  0.00  0.00    +0.007 C 
ATOM      9  C   UNL     1      -9.560   9.942  63.941  0.00  0.00    +0.189 C 
ATOM     10  O   UNL     1      -9.237   8.659  64.680  0.00  0.00    -0.447 OA
ATOM     11  C   UNL     1      -8.061   7.984  64.458  0.00  0.00    +0.335 C 
ATOM     12  O   UNL     1      -8.093   6.773  64.058  0.00  0.00    -0.248 OA
ATOM     13  C   UNL     1      -7.885   8.249  66.040  0.00  0.00    +0.175 C 
ATOM     14  N   UNL     1      -7.073   6.927  66.226  0.00  0.00    -0.265 N 
ATOM     15  C   UNL     1      -5.753   6.831  66.586  0.00  0.00    +0.094 C 
ATOM     16  C   UNL     1      -4.724   7.664  65.921  0.00  0.00    +0.022 C 
ATOM     17  C   UNL     1      -5.580   8.485  64.956  0.00  0.00    +0.004 C 
ATOM     18  C   UNL     1      -7.950   5.814  66.440  0.00  0.00    +0.289 C 
ATOM     19  O   UNL     1      -7.567   4.706  65.960  0.00  0.00    -0.267 OA
ATOM     20  C   UNL     1      -9.324   6.215  66.770  0.00  0.00    +0.279 C 
ATOM     21  O   UNL     1     -10.222   5.453  66.269  0.00  0.00    -0.281 OA
ATOM     22  C   UNL     1      -9.519   6.991  67.907  0.00  0.00    +0.279 C 
ATOM     23  C   UNL     1      -9.027   5.834  68.987  0.00  0.00    +0.065 C 
ATOM     24  C   UNL     1      -9.869   6.255  70.309  0.00  0.00    +0.038 C 
ATOM     25  C   UNL     1      -8.999   7.602  70.624  0.00  0.00    +0.145 C 
ATOM     26  C   UNL     1     -10.082   8.372  69.553  0.00  0.00    +0.172 C 
ATOM     27  C   UNL     1      -9.545   9.937  69.999  0.00  0.00    +0.145 C 
ATOM     28  C   UNL     1      -9.979  10.483  68.533  0.00  0.00    +0.032 C 
ATOM     29  C   UNL     1     -11.481  11.069  68.735  0.00  0.00    +0.007 C 
ATOM     30  C   UNL     1     -12.020  10.021  69.861  0.00  0.00    +0.000 C 
ATOM     31  C   UNL     1     -11.050  12.158  69.875  0.00  0.00    +0.022 C 
ATOM     32  C   UNL     1     -11.920  13.281  69.342  0.00  0.00    -0.048 C 
ATOM     33  C   UNL     1     -12.973  13.645  70.360  0.00  0.00    +0.026 C 
ATOM     34  C   UNL     1     -10.182   4.742  68.603  0.00  0.00    +0.006 C 
ATOM     35  O   UNL     1     -10.938   6.975  68.051  0.00  0.00    -0.187 OA
ATOM     36  O   UNL     1      -9.160   8.121  68.403  0.00  0.00    -0.324 OA
ATOM     37  C   UNL     1      -6.525   9.155  65.893  0.00  0.00    +0.031 C 
ATOM     38  C   UNL     1     -11.212  14.075  68.623  0.00  0.00    -0.028 C 
ENDROOT
BRANCH   9  39
ATOM     39  C   UNL     1      -8.432   9.794  62.817  0.00  0.00    -0.009 C 
ATOM     40  C   UNL     1      -7.365  10.259  62.458  0.00  0.00    -0.031 C 
ATOM     41  C   UNL     1      -9.437   9.372  61.753  0.00  0.00    +0.030 C 
BRANCH  40  42
ATOM     42  C   UNL     1      -7.104   9.884  60.881  0.00  0.00    +0.024 C 
ATOM     43  C   UNL     1      -6.490  11.343  60.617  0.00  0.00    +0.035 C 
ATOM     44  C   UNL     1      -5.013  11.598  61.226  0.00  0.00    +0.131 C 
ATOM     45  C   UNL     1      -4.379  10.770  59.901  0.00  0.00    +0.107 C 
ATOM     46 CL   UNL     1      -2.598  10.866  60.441  0.00  0.00    -0.112 Cl
ATOM     47  C   UNL     1      -4.654   9.283  60.277  0.00  0.00    +0.019 C 
ATOM     48  C   UNL     1      -5.781   8.962  61.051  0.00  0.00    +0.006 C 
BRANCH  44  49
ATOM     49  O   UNL     1      -4.896  10.497  62.256  0.00  0.00    -0.352 OA
ATOM     50  C   UNL     1      -4.166  11.194  63.282  0.00  0.00    +0.174 C 
ENDBRANCH  44  49
ENDBRANCH  40  42
ENDBRANCH   9  39
BRANCH   1  52
ATOM     51  C   UNL     1     -10.374  16.558  67.769  0.00  0.00    +0.001 C 
ATOM     52  C   UNL     1     -10.273  15.470  67.018  0.00  0.00    +0.012 C 
ENDBRANCH   1  52
BRANCH  27  53
ATOM     53  O   UNL     1      -8.098   9.753  69.601  0.00  0.00    -0.351 OA
ATOM     54  C   UNL     1      -7.757  11.072  69.261  0.00  0.00    +0.174 C 
ENDBRANCH  27  53
BRANCH  25  55
ATOM     55  O   UNL     1      -9.857   7.939  71.816  0.00  0.00    -0.351 OA
ATOM     56  C   UNL     1      -9.051   7.583  72.880  0.00  0.00    +0.174 C 
ENDBRANCH  25  55
TORSDOF 6
ENDMDL
MODEL 3
REMARK VINA RESULT:      -6.2      4.367      9.162
REMARK  Name = 
REMARK  6 active torsions:
REMARK  status: ('A' for Active; 'I' for Inactive)
REMARK    1  A    between atoms: C_2  and  C_3
REMARK    2  A    between atoms: C_11  and  O_12
REMARK    3  A    between atoms: C_31  and  C_32
REMARK    4  A    between atoms: C_34  and  C_35
REMARK    5  A    between atoms: C_40  and  O_41
REMARK    6  A    between atoms: C_54  and  O_55
REMARK                            x       y       z     vdW  Elec       q    Type
REMARK                         _______ _______ _______ _____ _____    ______ ____
ROOT
ATOM      1  C   UNL     1     -11.434  13.105  67.891  0.00  0.00    +0.079 C 
ATOM      2  C   UNL     1     -10.969  12.081  66.738  0.00  0.00    +0.157 C 
ATOM      3  O   UNL     1     -12.062  11.812  66.238  0.00  0.00    -0.296 OA
ATOM      4  C   UNL     1      -9.652  12.029  66.247  0.00  0.00    +0.098 C 
ATOM      5  C   UNL     1      -9.568  11.651  64.664  0.00  0.00    +0.163 C 
ATOM      6  O   UNL     1     -10.759  10.725  64.696  0.00  0.00    -0.223 OA
ATOM      7  C   UNL     1      -8.422  10.389  64.847  0.00  0.00    +0.075 C 
ATOM      8  C   UNL     1      -9.246   9.662  66.018  0.00  0.00    +0.007 C 
ATOM      9  C   UNL     1      -9.062   9.450  63.589  0.00  0.00    +0.189 C 
ATOM     10  O   UNL     1      -8.617   8.063  64.007  0.00  0.00    -0.447 OA
ATOM     11  C   UNL     1      -7.402   7.556  63.616  0.00  0.00    +0.335 C 
ATOM     12  O   UNL     1      -7.355   6.470  62.947  0.00  0.00    -0.248 OA
ATOM     13  C   UNL     1      -7.191   7.466  65.213  0.00  0.00    +0.175 C 
ATOM     14  N   UNL     1      -6.275   6.208  65.076  0.00  0.00    -0.265 N 
ATOM     15  C   UNL     1      -4.939   6.141  65.382  0.00  0.00    +0.094 C 
ATOM     16  C   UNL     1      -4.001   7.186  64.911  0.00  0.00    +0.022 C 
ATOM     17  C   UNL     1      -4.950   8.133  64.175  0.00  0.00    +0.004 C 
ATOM     18  C   UNL     1      -7.056   5.007  65.040  0.00  0.00    +0.289 C 
ATOM     19  O   UNL     1      -6.606   4.074  64.311  0.00  0.00    -0.267 OA
ATOM     20  C   UNL     1      -8.444   5.208  65.477  0.00  0.00    +0.279 C 
ATOM     21  O   UNL     1      -9.298   4.508  64.828  0.00  0.00    -0.281 OA
ATOM     22  C   UNL     1      -8.659   5.684  66.765  0.00  0.00    +0.279 C 
ATOM     23  C   UNL     1      -8.042   4.355  67.540  0.00  0.00    +0.065 C 
ATOM     24  C   UNL     1      -8.868   4.391  68.937  0.00  0.00    +0.038 C 
ATOM     25  C   UNL     1      -8.093   5.697  69.541  0.00  0.00    +0.145 C 
ATOM     26  C   UNL     1      -9.268   6.599  68.694  0.00  0.00    +0.172 C 
ATOM     27  C   UNL     1      -8.837   8.060  69.481  0.00  0.00    +0.145 C 
ATOM     28  C   UNL     1      -9.362   8.889  68.188  0.00  0.00    +0.032 C 
ATOM     29  C   UNL     1     -10.897   9.288  68.544  0.00  0.00    +0.007 C 
ATOM     30  C   UNL     1     -11.315   7.969  69.406  0.00  0.00    +0.000 C 
ATOM     31  C   UNL     1     -10.511  10.118  69.898  0.00  0.00    +0.022 C 
ATOM     32  C   UNL     1     -11.482  11.259  69.652  0.00  0.00    -0.048 C 
ATOM     33  C   UNL     1     -12.524  11.292  70.745  0.00  0.00    +0.026 C 
ATOM     34  C   UNL     1      -9.123   3.288  66.933  0.00  0.00    +0.006 C 
ATOM     35  O   UNL     1     -10.066   5.518  66.924  0.00  0.00    -0.187 OA
ATOM     36  O   UNL     1      -8.370   6.695  67.503  0.00  0.00    -0.324 OA
ATOM     37  C   UNL     1      -5.911   8.490  65.257  0.00  0.00    +0.031 C 
ATOM     38  C   UNL     1     -10.863  12.251  69.125  0.00  0.00    -0.028 C 
ENDROOT
BRANCH   9  39
ATOM     39  C   UNL     1      -7.967   9.657  62.443  0.00  0.00    -0.009 C 
ATOM     40  C   UNL     1      -6.977  10.311  62.164  0.00  0.00    -0.031 C 
ATOM     41  C   UNL     1      -8.951   9.316  61.331  0.00  0.00    +0.030 C 
BRANCH  40  42
ATOM     42  C   UNL     1      -6.730  10.272  60.543  0.00  0.00    +0.024 C 
ATOM     43  C   UNL     1      -6.283  11.812  60.554  0.00  0.00    +0.035 C 
ATOM     44  C   UNL     1      -4.822  12.109  61.184  0.00  0.00    +0.131 C 
ATOM     45  C   UNL     1      -4.147  11.621  59.717  0.00  0.00    +0.107 C 
ATOM     46 CL   UNL     1      -2.370  11.808  60.244  0.00  0.00    -0.112 Cl
ATOM     47  C   UNL     1      -4.252  10.068  59.806  0.00  0.00    +0.019 C 
ATOM     48  C   UNL     1      -5.312   9.485  60.517  0.00  0.00    +0.006 C 
BRANCH  44  49
ATOM     49  O   UNL     1      -4.556  10.853  61.983  0.00  0.00    -0.352 OA
ATOM     50  C   UNL     1      -3.898  11.424  63.129  0.00  0.00    +0.174 C 
ENDBRANCH  44  49
ENDBRANCH  40  42
ENDBRANCH   9  39
BRANCH   1  52
ATOM     51  C   UNL     1     -10.167  14.813  68.952  0.00  0.00    +0.001 C 
ATOM     52  C   UNL     1     -10.090  14.049  67.871  0.00  0.00    +0.012 C 
ENDBRANCH   1  52
BRANCH  27  53
ATOM     53  O   UNL     1      -7.395   8.092  69.028  0.00  0.00    -0.351 OA
ATOM     54  C   UNL     1      -6.969   9.293  69.619  0.00  0.00    +0.174 C 
ENDBRANCH  27  53
BRANCH  25  55
ATOM     55  O   UNL     1      -8.932   5.680  70.792  0.00  0.00    -0.351 OA
ATOM     56  C   UNL     1      -8.104   5.056  71.705  0.00  0.00    +0.174 C 
ENDBRANCH  25  55
TORSDOF 6
ENDMDL
MODEL 4
REMARK VINA RESULT:      -6.0      2.957      6.948
REMARK  Name = 
REMARK  6 active torsions:
REMARK  status: ('A' for Active; 'I' for Inactive)
REMARK    1  A    between atoms: C_2  and  C_3
REMARK    2  A    between atoms: C_11  and  O_12
REMARK    3  A    between atoms: C_31  and  C_32
REMARK    4  A    between atoms: C_34  and  C_35
REMARK    5  A    between atoms: C_40  and  O_41
REMARK    6  A    between atoms: C_54  and  O_55
REMARK                            x       y       z     vdW  Elec       q    Type
REMARK                         _______ _______ _______ _____ _____    ______ ____
ROOT
ATOM      1  C   UNL     1     -11.763  13.098  66.749  0.00  0.00    +0.079 C 
ATOM      2  C   UNL     1     -11.111  12.169  67.892  0.00  0.00    +0.157 C 
ATOM      3  O   UNL     1     -11.722  12.584  68.878  0.00  0.00    -0.296 OA
ATOM      4  C   UNL     1     -10.455  10.957  67.611  0.00  0.00    +0.098 C 
ATOM      5  C   UNL     1     -10.646   9.836  68.778  0.00  0.00    +0.163 C 
ATOM      6  O   UNL     1     -10.657  10.835  69.908  0.00  0.00    -0.223 OA
ATOM      7  C   UNL     1      -8.979   9.472  68.945  0.00  0.00    +0.075 C 
ATOM      8  C   UNL     1      -8.546  11.012  69.083  0.00  0.00    +0.007 C 
ATOM      9  C   UNL     1      -9.077   9.180  70.612  0.00  0.00    +0.189 C 
ATOM     10  O   UNL     1      -7.655   9.475  71.043  0.00  0.00    -0.447 OA
ATOM     11  C   UNL     1      -6.691   8.495  71.041  0.00  0.00    +0.335 C 
ATOM     12  O   UNL     1      -6.081   8.206  72.124  0.00  0.00    -0.248 OA
ATOM     13  C   UNL     1      -5.977   9.530  70.029  0.00  0.00    +0.175 C 
ATOM     14  N   UNL     1      -4.552   9.086  70.495  0.00  0.00    -0.265 N 
ATOM     15  C   UNL     1      -3.614   8.441  69.730  0.00  0.00    +0.094 C 
ATOM     16  C   UNL     1      -3.985   7.266  68.908  0.00  0.00    +0.022 C 
ATOM     17  C   UNL     1      -5.485   7.164  69.188  0.00  0.00    +0.004 C 
ATOM     18  C   UNL     1      -4.140   9.824  71.652  0.00  0.00    +0.289 C 
ATOM     19  O   UNL     1      -3.425   9.193  72.486  0.00  0.00    -0.267 OA
ATOM     20  C   UNL     1      -4.964  11.013  71.904  0.00  0.00    +0.279 C 
ATOM     21  O   UNL     1      -5.166  11.252  73.145  0.00  0.00    -0.281 OA
ATOM     22  C   UNL     1      -5.020  11.987  70.914  0.00  0.00    +0.279 C 
ATOM     23  C   UNL     1      -3.422  12.416  71.010  0.00  0.00    +0.065 C 
ATOM     24  C   UNL     1      -3.478  13.963  70.521  0.00  0.00    +0.038 C 
ATOM     25  C   UNL     1      -3.786  13.618  68.954  0.00  0.00    +0.145 C 
ATOM     26  C   UNL     1      -5.423  13.595  69.435  0.00  0.00    +0.172 C 
ATOM     27  C   UNL     1      -5.988  13.577  67.817  0.00  0.00    +0.145 C 
ATOM     28  C   UNL     1      -7.333  12.818  68.314  0.00  0.00    +0.032 C 
ATOM     29  C   UNL     1      -8.416  14.005  68.556  0.00  0.00    +0.007 C 
ATOM     30  C   UNL     1      -7.408  15.176  69.074  0.00  0.00    +0.000 C 
ATOM     31  C   UNL     1      -8.357  14.557  67.019  0.00  0.00    +0.022 C 
ATOM     32  C   UNL     1      -9.852  14.784  66.887  0.00  0.00    -0.048 C 
ATOM     33  C   UNL     1     -10.134  16.254  66.686  0.00  0.00    +0.026 C 
ATOM     34  C   UNL     1      -3.473  12.911  72.568  0.00  0.00    +0.006 C 
ATOM     35  O   UNL     1      -5.676  13.065  71.579  0.00  0.00    -0.187 OA
ATOM     36  O   UNL     1      -5.354  12.122  69.680  0.00  0.00    -0.324 OA
ATOM     37  C   UNL     1      -5.961   8.506  68.748  0.00  0.00    +0.031 C 
ATOM     38  C   UNL     1     -10.391  13.789  66.281  0.00  0.00    -0.028 C 
ENDROOT
BRANCH   9  39
ATOM     39  C   UNL     1      -8.958   7.586  70.666  0.00  0.00    -0.009 C 
ATOM     40  C   UNL     1      -8.966   6.595  69.956  0.00  0.00    -0.031 C 
ATOM     41  C   UNL     1      -9.619   7.504  72.036  0.00  0.00    +0.030 C 
BRANCH  40  42
ATOM     42  C   UNL     1      -9.301   5.270  70.864  0.00  0.00    +0.024 C 
ATOM     43  C   UNL     1     -10.234   4.684  69.697  0.00  0.00    +0.035 C 
ATOM     44  C   UNL     1      -9.452   4.107  68.404  0.00  0.00    +0.131 C 
ATOM     45  C   UNL     1      -9.156   2.695  69.277  0.00  0.00    +0.107 C 
ATOM     46 CL   UNL     1      -8.146   1.854  67.957  0.00  0.00    -0.112 Cl
ATOM     47  C   UNL     1      -7.991   3.127  70.219  0.00  0.00    +0.019 C 
ATOM     48  C   UNL     1      -7.913   4.458  70.657  0.00  0.00    +0.006 C 
BRANCH  44  49
ATOM     49  O   UNL     1      -8.089   4.746  68.541  0.00  0.00    -0.352 OA
ATOM     50  C   UNL     1      -7.867   5.150  67.178  0.00  0.00    +0.174 C 
ENDBRANCH  44  49
ENDBRANCH  40  42
ENDBRANCH   9  39
BRANCH   1  52
ATOM     51  C   UNL     1     -12.362  12.521  64.522  0.00  0.00    +0.001 C 
ATOM     52  C   UNL     1     -11.671  12.002  65.528  0.00  0.00    +0.012 C 
ENDBRANCH   1  52
BRANCH  27  53
ATOM     53  O   UNL     1      -5.308  12.293  67.400  0.00  0.00    -0.351 OA
ATOM     54  C   UNL     1      -6.290  11.745  66.560  0.00  0.00    +0.174 C 
ENDBRANCH  27  53
BRANCH  25  55
ATOM     55  O   UNL     1      -3.859  15.080  68.594  0.00  0.00    -0.351 OA
ATOM     56  C   UNL     1      -2.618  15.318  68.036  0.00  0.00    +0.174 C 
ENDBRANCH  25  55
TORSDOF 6
ENDMDL
MODEL 5
REMARK VINA RESULT:      -6.0      3.257      9.380
REMARK  Name = 
REMARK  6 active torsions:
REMARK  status: ('A' for Active; 'I' for Inactive)
REMARK    1  A    between atoms: C_2  and  C_3
REMARK    2  A    between atoms: C_11  and  O_12
REMARK    3  A    between atoms: C_31  and  C_32
REMARK    4  A    between atoms: C_34  and  C_35
REMARK    5  A    between atoms: C_40  and  O_41
REMARK    6  A    between atoms: C_54  and  O_55
REMARK                            x       y       z     vdW  Elec       q    Type
REMARK                         _______ _______ _______ _____ _____    ______ ____
ROOT
ATOM      1  C   UNL     1     -10.937   6.635  72.626  0.00  0.00    +0.079 C 
ATOM      2  C   UNL     1     -10.902   7.492  71.263  0.00  0.00    +0.157 C 
ATOM      3  O   UNL     1     -11.994   7.181  70.787  0.00  0.00    -0.296 OA
ATOM      4  C   UNL     1     -10.058   8.603  71.080  0.00  0.00    +0.098 C 
ATOM      5  C   UNL     1     -10.713   9.762  70.140  0.00  0.00    +0.163 C 
ATOM      6  O   UNL     1     -11.454   8.795  69.251  0.00  0.00    -0.223 OA
ATOM      7  C   UNL     1      -9.371   9.907  69.082  0.00  0.00    +0.075 C 
ATOM      8  C   UNL     1      -9.272   8.327  68.816  0.00  0.00    +0.007 C 
ATOM      9  C   UNL     1     -10.320  10.242  67.717  0.00  0.00    +0.189 C 
ATOM     10  O   UNL     1      -9.405   9.772  66.605  0.00  0.00    -0.447 OA
ATOM     11  C   UNL     1      -8.484  10.616  66.034  0.00  0.00    +0.335 C 
ATOM     12  O   UNL     1      -8.528  10.845  64.779  0.00  0.00    -0.248 OA
ATOM     13  C   UNL     1      -7.467   9.477  66.556  0.00  0.00    +0.175 C 
ATOM     14  N   UNL     1      -6.481   9.739  65.372  0.00  0.00    -0.265 N 
ATOM     15  C   UNL     1      -5.208  10.241  65.474  0.00  0.00    +0.094 C 
ATOM     16  C   UNL     1      -4.930  11.438  66.301  0.00  0.00    +0.022 C 
ATOM     17  C   UNL     1      -6.318  11.741  66.868  0.00  0.00    +0.004 C 
ATOM     18  C   UNL     1      -6.853   8.976  64.218  0.00  0.00    +0.289 C 
ATOM     19  O   UNL     1      -6.634   9.524  63.097  0.00  0.00    -0.267 OA
ATOM     20  C   UNL     1      -7.819   7.911  64.515  0.00  0.00    +0.279 C 
ATOM     21  O   UNL     1      -8.687   7.725  63.593  0.00  0.00    -0.281 OA
ATOM     22  C   UNL     1      -7.447   6.933  65.431  0.00  0.00    +0.279 C 
ATOM     23  C   UNL     1      -6.221   6.300  64.512  0.00  0.00    +0.065 C 
ATOM     24  C   UNL     1      -6.190   4.765  65.038  0.00  0.00    +0.038 C 
ATOM     25  C   UNL     1      -5.556   5.116  66.503  0.00  0.00    +0.145 C 
ATOM     26  C   UNL     1      -7.176   5.364  66.979  0.00  0.00    +0.172 C 
ATOM     27  C   UNL     1      -6.768   5.423  68.643  0.00  0.00    +0.145 C 
ATOM     28  C   UNL     1      -8.065   6.362  68.907  0.00  0.00    +0.032 C 
ATOM     29  C   UNL     1      -9.240   5.333  69.353  0.00  0.00    +0.007 C 
ATOM     30  C   UNL     1      -8.823   4.050  68.439  0.00  0.00    +0.000 C 
ATOM     31  C   UNL     1      -8.427   4.747  70.644  0.00  0.00    +0.022 C 
ATOM     32  C   UNL     1      -9.626   4.715  71.573  0.00  0.00    -0.048 C 
ATOM     33  C   UNL     1      -9.930   3.292  71.973  0.00  0.00    +0.026 C 
ATOM     34  C   UNL     1      -7.167   5.848  63.257  0.00  0.00    +0.006 C 
ATOM     35  O   UNL     1      -8.483   5.965  65.284  0.00  0.00    -0.187 OA
ATOM     36  O   UNL     1      -7.073   6.820  66.655  0.00  0.00    -0.324 OA
ATOM     37  C   UNL     1      -6.637  10.465  67.569  0.00  0.00    +0.031 C 
ATOM     38  C   UNL     1      -9.627   5.760  72.318  0.00  0.00    -0.028 C 
ENDROOT
BRANCH   9  39
ATOM     39  C   UNL     1     -10.058  11.807  67.521  0.00  0.00    -0.009 C 
ATOM     40  C   UNL     1      -9.582  12.781  68.078  0.00  0.00    -0.031 C 
ATOM     41  C   UNL     1     -11.315  11.993  66.680  0.00  0.00    +0.030 C 
BRANCH  40  42
ATOM     42  C   UNL     1     -10.176  14.150  67.397  0.00  0.00    +0.024 C 
ATOM     43  C   UNL     1     -10.178  14.882  68.825  0.00  0.00    +0.035 C 
ATOM     44  C   UNL     1      -8.724  15.305  69.393  0.00  0.00    +0.131 C 
ATOM     45  C   UNL     1      -8.776  16.651  68.377  0.00  0.00    +0.107 C 
ATOM     46 CL   UNL     1      -7.082  17.294  68.813  0.00  0.00    -0.112 Cl
ATOM     47  C   UNL     1      -8.436  16.029  66.988  0.00  0.00    +0.019 C 
ATOM     48  C   UNL     1      -8.818  14.708  66.709  0.00  0.00    +0.006 C 
BRANCH  44  49
ATOM     49  O   UNL     1      -7.794  14.440  68.573  0.00  0.00    -0.352 OA
ATOM     50  C   UNL     1      -6.808  14.121  69.571  0.00  0.00    +0.174 C 
ENDBRANCH  44  49
ENDBRANCH  40  42
ENDBRANCH   9  39
BRANCH   1  52
ATOM     51  C   UNL     1      -9.357   6.938  74.375  0.00  0.00    +0.001 C 
ATOM     52  C   UNL     1     -10.068   7.685  73.543  0.00  0.00    +0.012 C 
ENDBRANCH   1  52
BRANCH  27  53
ATOM     53  O   UNL     1      -5.822   6.599  68.556  0.00  0.00    -0.351 OA
ATOM     54  C   UNL     1      -5.472   6.744  69.908  0.00  0.00    +0.174 C 
ENDBRANCH  27  53
BRANCH  25  55
ATOM     55  O   UNL     1      -5.599   3.670  66.924  0.00  0.00    -0.351 OA
ATOM     56  C   UNL     1      -4.311   3.241  66.667  0.00  0.00    +0.174 C 
ENDBRANCH  25  55
TORSDOF 6
ENDMDL
MODEL 6
REMARK VINA RESULT:      -5.7      3.153      9.463
REMARK  Name = 
REMARK  6 active torsions:
REMARK  status: ('A' for Active; 'I' for Inactive)
REMARK    1  A    between atoms: C_2  and  C_3
REMARK    2  A    between atoms: C_11  and  O_12
REMARK    3  A    between atoms: C_31  and  C_32
REMARK    4  A    between atoms: C_34  and  C_35
REMARK    5  A    between atoms: C_40  and  O_41
REMARK    6  A    between atoms: C_54  and  O_55
REMARK                            x       y       z     vdW  Elec       q    Type
REMARK                         _______ _______ _______ _____ _____    ______ ____
ROOT
ATOM      1  C   UNL     1      -7.672   6.938  61.864  0.00  0.00    +0.079 C 
ATOM      2  C   UNL     1      -7.314   7.776  63.192  0.00  0.00    +0.157 C 
ATOM      3  O   UNL     1      -6.084   7.747  63.138  0.00  0.00    -0.296 OA
ATOM      4  C   UNL     1      -8.227   8.647  63.815  0.00  0.00    +0.098 C 
ATOM      5  C   UNL     1      -7.515   9.942  64.501  0.00  0.00    +0.163 C 
ATOM      6  O   UNL     1      -6.267   9.197  64.905  0.00  0.00    -0.223 OA
ATOM      7  C   UNL     1      -8.269   9.765  66.031  0.00  0.00    +0.075 C 
ATOM      8  C   UNL     1      -7.884   8.213  66.163  0.00  0.00    +0.007 C 
ATOM      9  C   UNL     1      -6.932  10.340  66.901  0.00  0.00    +0.189 C 
ATOM     10  O   UNL     1      -7.150   9.672  68.243  0.00  0.00    -0.447 OA
ATOM     11  C   UNL     1      -7.904  10.271  69.224  0.00  0.00    +0.335 C 
ATOM     12  O   UNL     1      -7.380  10.518  70.361  0.00  0.00    -0.248 OA
ATOM     13  C   UNL     1      -8.758   8.911  69.068  0.00  0.00    +0.175 C 
ATOM     14  N   UNL     1      -9.175   8.936  70.574  0.00  0.00    -0.265 N 
ATOM     15  C   UNL     1     -10.446   9.109  71.060  0.00  0.00    +0.094 C 
ATOM     16  C   UNL     1     -11.314  10.191  70.542  0.00  0.00    +0.022 C 
ATOM     17  C   UNL     1     -10.411  10.819  69.479  0.00  0.00    +0.004 C 
ATOM     18  C   UNL     1      -8.182   8.302  71.390  0.00  0.00    +0.289 C 
ATOM     19  O   UNL     1      -8.019   8.792  72.547  0.00  0.00    -0.267 OA
ATOM     20  C   UNL     1      -7.222   7.503  70.617  0.00  0.00    +0.279 C 
ATOM     21  O   UNL     1      -6.026   7.547  71.071  0.00  0.00    -0.281 OA
ATOM     22  C   UNL     1      -7.717   6.454  69.852  0.00  0.00    +0.279 C 
ATOM     23  C   UNL     1      -8.254   5.549  71.134  0.00  0.00    +0.065 C 
ATOM     24  C   UNL     1      -8.157   4.048  70.526  0.00  0.00    +0.038 C 
ATOM     25  C   UNL     1      -9.418   4.215  69.500  0.00  0.00    +0.145 C 
ATOM     26  C   UNL     1      -8.260   4.847  68.417  0.00  0.00    +0.172 C 
ATOM     27  C   UNL     1      -9.342   4.785  67.089  0.00  0.00    +0.145 C 
ATOM     28  C   UNL     1      -8.534   6.011  66.398  0.00  0.00    +0.032 C 
ATOM     29  C   UNL     1      -7.462   5.297  65.407  0.00  0.00    +0.007 C 
ATOM     30  C   UNL     1      -7.145   3.962  66.286  0.00  0.00    +0.000 C 
ATOM     31  C   UNL     1      -8.593   4.514  64.524  0.00  0.00    +0.022 C 
ATOM     32  C   UNL     1      -7.933   4.767  63.181  0.00  0.00    -0.048 C 
ATOM     33  C   UNL     1      -7.516   3.457  62.558  0.00  0.00    +0.026 C 
ATOM     34  C   UNL     1      -6.787   5.358  71.831  0.00  0.00    +0.006 C 
ATOM     35  O   UNL     1      -6.528   5.771  69.460  0.00  0.00    -0.187 OA
ATOM     36  O   UNL     1      -8.542   6.237  68.891  0.00  0.00    -0.324 OA
ATOM     37  C   UNL     1     -10.142   9.652  68.592  0.00  0.00    +0.031 C 
ATOM     38  C   UNL     1      -8.488   5.771  62.606  0.00  0.00    -0.028 C 
ENDROOT
BRANCH   9  39
ATOM     39  C   UNL     1      -7.432  11.795  67.336  0.00  0.00    -0.009 C 
ATOM     40  C   UNL     1      -8.300  12.621  67.112  0.00  0.00    -0.031 C 
ATOM     41  C   UNL     1      -6.017  12.283  67.619  0.00  0.00    +0.030 C 
BRANCH  40  42
ATOM     42  C   UNL     1      -7.800  14.097  67.628  0.00  0.00    +0.024 C 
ATOM     43  C   UNL     1      -8.687  14.813  66.500  0.00  0.00    +0.035 C 
ATOM     44  C   UNL     1     -10.284  14.807  66.761  0.00  0.00    +0.131 C 
ATOM     45  C   UNL     1     -10.063  16.099  67.822  0.00  0.00    +0.107 C 
ATOM     46 CL   UNL     1     -11.847  16.234  68.344  0.00  0.00    -0.112 Cl
ATOM     47  C   UNL     1      -9.504  15.392  69.094  0.00  0.00    +0.019 C 
ATOM     48  C   UNL     1      -8.725  14.233  68.954  0.00  0.00    +0.006 C 
BRANCH  44  49
ATOM     49  O   UNL     1     -10.438  13.702  67.782  0.00  0.00    -0.352 OA
ATOM     50  C   UNL     1     -11.648  13.088  67.302  0.00  0.00    +0.174 C 
ENDBRANCH  44  49
ENDBRANCH  40  42
ENDBRANCH   9  39
BRANCH   1  52
ATOM     51  C   UNL     1      -9.615   7.054  60.500  0.00  0.00    +0.001 C 
ATOM     52  C   UNL     1      -9.063   7.731  61.497  0.00  0.00    +0.012 C 
ENDBRANCH   1  52
BRANCH  27  53
ATOM     53  O   UNL     1     -10.400   5.694  67.673  0.00  0.00    -0.351 OA
ATOM     54  C   UNL     1     -10.938   6.246  66.500  0.00  0.00    +0.174 C 
ENDBRANCH  27  53
BRANCH  25  55
ATOM     55  O   UNL     1      -9.233   2.819  68.964  0.00  0.00    -0.351 OA
ATOM     56  C   UNL     1      -9.438   2.035  70.082  0.00  0.00    +0.174 C 
ENDBRANCH  25  55
TORSDOF 6
ENDMDL
MODEL 7
REMARK VINA RESULT:      -5.6      3.482      9.197
REMARK  Name = 
REMARK  6 active torsions:
REMARK  status: ('A' for Active; 'I' for Inactive)
REMARK    1  A    between atoms: C_2  and  C_3
REMARK    2  A    between atoms: C_11  and  O_12
REMARK    3  A    between atoms: C_31  and  C_32
REMARK    4  A    between atoms: C_34  and  C_35
REMARK    5  A    between atoms: C_40  and  O_41
REMARK    6  A    between atoms: C_54  and  O_55
REMARK                            x       y       z     vdW  Elec       q    Type
REMARK                         _______ _______ _______ _____ _____    ______ ____
ROOT
ATOM      1  C   UNL     1     -11.873   6.945  71.357  0.00  0.00    +0.079 C 
ATOM      2  C   UNL     1     -11.126   7.726  70.162  0.00  0.00    +0.157 C 
ATOM      3  O   UNL     1     -11.420   6.997  69.214  0.00  0.00    -0.296 OA
ATOM      4  C   UNL     1     -10.752   9.079  70.251  0.00  0.00    +0.098 C 
ATOM      5  C   UNL     1     -10.839   9.866  68.826  0.00  0.00    +0.163 C 
ATOM      6  O   UNL     1     -10.431   8.672  68.000  0.00  0.00    -0.223 OA
ATOM      7  C   UNL     1      -9.256  10.522  68.893  0.00  0.00    +0.075 C 
ATOM      8  C   UNL     1      -8.568   9.111  69.227  0.00  0.00    +0.007 C 
ATOM      9  C   UNL     1      -9.009  10.432  67.218  0.00  0.00    +0.189 C 
ATOM     10  O   UNL     1      -7.497  10.352  67.151  0.00  0.00    -0.447 OA
ATOM     11  C   UNL     1      -6.725  11.488  67.091  0.00  0.00    +0.335 C 
ATOM     12  O   UNL     1      -5.934  11.663  66.105  0.00  0.00    -0.248 OA
ATOM     13  C   UNL     1      -6.113  10.859  68.445  0.00  0.00    +0.175 C 
ATOM     14  N   UNL     1      -4.707  11.478  68.161  0.00  0.00    -0.265 N 
ATOM     15  C   UNL     1      -4.084  12.449  68.904  0.00  0.00    +0.094 C 
ATOM     16  C   UNL     1      -4.815  13.668  69.321  0.00  0.00    +0.022 C 
ATOM     17  C   UNL     1      -6.206  13.397  68.746  0.00  0.00    +0.004 C 
ATOM     18  C   UNL     1      -3.927  10.615  67.324  0.00  0.00    +0.289 C 
ATOM     19  O   UNL     1      -3.146  11.190  66.509  0.00  0.00    -0.267 OA
ATOM     20  C   UNL     1      -4.475   9.255  67.226  0.00  0.00    +0.279 C 
ATOM     21  O   UNL     1      -4.342   8.725  66.068  0.00  0.00    -0.281 OA
ATOM     22  C   UNL     1      -4.606   8.521  68.398  0.00  0.00    +0.279 C 
ATOM     23  C   UNL     1      -2.982   8.421  68.717  0.00  0.00    +0.065 C 
ATOM     24  C   UNL     1      -2.908   7.034  69.556  0.00  0.00    +0.038 C 
ATOM     25  C   UNL     1      -3.621   7.629  70.901  0.00  0.00    +0.145 C 
ATOM     26  C   UNL     1      -5.085   7.213  70.128  0.00  0.00    +0.172 C 
ATOM     27  C   UNL     1      -6.006   7.453  71.554  0.00  0.00    +0.145 C 
ATOM     28  C   UNL     1      -7.300   7.797  70.637  0.00  0.00    +0.032 C 
ATOM     29  C   UNL     1      -8.099   6.388  70.500  0.00  0.00    +0.007 C 
ATOM     30  C   UNL     1      -6.828   5.368  70.490  0.00  0.00    +0.000 C 
ATOM     31  C   UNL     1      -8.313   6.195  72.108  0.00  0.00    +0.022 C 
ATOM     32  C   UNL     1      -9.743   5.698  72.007  0.00  0.00    -0.048 C 
ATOM     33  C   UNL     1      -9.831   4.277  72.511  0.00  0.00    +0.026 C 
ATOM     34  C   UNL     1      -2.592   7.610  67.350  0.00  0.00    +0.006 C 
ATOM     35  O   UNL     1      -4.913   7.217  67.912  0.00  0.00    -0.187 OA
ATOM     36  O   UNL     1      -5.191   8.583  69.540  0.00  0.00    -0.324 OA
ATOM     37  C   UNL     1      -6.555  12.109  69.409  0.00  0.00    +0.031 C 
ATOM     38  C   UNL     1     -10.557   6.664  72.233  0.00  0.00    -0.028 C 
ENDROOT
BRANCH   9  39
ATOM     39  C   UNL     1      -9.131  11.968  66.791  0.00  0.00    -0.009 C 
ATOM     40  C   UNL     1      -9.467  13.060  67.214  0.00  0.00    -0.031 C 
ATOM     41  C   UNL     1      -9.441  11.622  65.340  0.00  0.00    +0.030 C 
BRANCH  40  42
ATOM     42  C   UNL     1      -9.773  14.067  65.955  0.00  0.00    +0.024 C 
ATOM     43  C   UNL     1     -11.093  14.612  66.686  0.00  0.00    +0.035 C 
ATOM     44  C   UNL     1     -10.836  15.596  67.944  0.00  0.00    +0.131 C 
ATOM     45  C   UNL     1     -10.575  16.848  66.845  0.00  0.00    +0.107 C 
ATOM     46 CL   UNL     1     -10.161  18.145  68.118  0.00  0.00    -0.112 Cl
ATOM     47  C   UNL     1      -9.130  16.550  66.342  0.00  0.00    +0.019 C 
ATOM     48  C   UNL     1      -8.681  15.222  66.277  0.00  0.00    +0.006 C 
BRANCH  44  49
ATOM     49  O   UNL     1      -9.396  15.300  68.295  0.00  0.00    -0.352 OA
ATOM     50  C   UNL     1      -9.477  15.339  69.731  0.00  0.00    +0.174 C 
ENDBRANCH  44  49
ENDBRANCH  40  42
ENDBRANCH   9  39
BRANCH   1  52
ATOM     51  C   UNL     1     -13.540   8.466  72.100  0.00  0.00    +0.001 C 
ATOM     52  C   UNL     1     -12.239   8.267  72.260  0.00  0.00    +0.012 C 
ENDBRANCH   1  52
BRANCH  27  53
ATOM     53  O   UNL     1      -5.650   8.908  71.757  0.00  0.00    -0.351 OA
ATOM     54  C   UNL     1      -5.936   9.051  73.124  0.00  0.00    +0.174 C 
ENDBRANCH  27  53
BRANCH  25  55
ATOM     55  O   UNL     1      -3.547   6.292  71.593  0.00  0.00    -0.351 OA
ATOM     56  C   UNL     1      -2.412   6.416  72.371  0.00  0.00    +0.174 C 
ENDBRANCH  25  55
TORSDOF 6
ENDMDL
MODEL 8
REMARK VINA RESULT:      -5.1      4.677      8.658
REMARK  Name = 
REMARK  6 active torsions:
REMARK  status: ('A' for Active; 'I' for Inactive)
REMARK    1  A    between atoms: C_2  and  C_3
REMARK    2  A    between atoms: C_11  and  O_12
REMARK    3  A    between atoms: C_31  and  C_32
REMARK    4  A    between atoms: C_34  and  C_35
REMARK    5  A    between atoms: C_40  and  O_41
REMARK    6  A    between atoms: C_54  and  O_55
REMARK                            x       y       z     vdW  Elec       q    Type
REMARK                         _______ _______ _______ _____ _____    ______ ____
ROOT
ATOM      1  C   UNL     1     -12.230   8.809  72.239  0.00  0.00    +0.079 C 
ATOM      2  C   UNL     1     -10.841   8.078  71.875  0.00  0.00    +0.157 C 
ATOM      3  O   UNL     1     -10.089   8.640  72.671  0.00  0.00    -0.296 OA
ATOM      4  C   UNL     1     -10.781   6.840  71.208  0.00  0.00    +0.098 C 
ATOM      5  C   UNL     1      -9.522   5.917  71.677  0.00  0.00    +0.163 C 
ATOM      6  O   UNL     1      -8.592   7.083  71.902  0.00  0.00    -0.223 OA
ATOM      7  C   UNL     1      -8.944   5.596  70.095  0.00  0.00    +0.075 C 
ATOM      8  C   UNL     1      -8.957   7.140  69.659  0.00  0.00    +0.007 C 
ATOM      9  C   UNL     1      -7.313   5.571  70.557  0.00  0.00    +0.189 C 
ATOM     10  O   UNL     1      -6.636   5.939  69.253  0.00  0.00    -0.447 OA
ATOM     11  C   UNL     1      -6.276   4.978  68.339  0.00  0.00    +0.335 C 
ATOM     12  O   UNL     1      -5.055   4.868  67.985  0.00  0.00    -0.248 OA
ATOM     13  C   UNL     1      -7.258   5.843  67.396  0.00  0.00    +0.175 C 
ATOM     14  N   UNL     1      -6.431   5.489  66.118  0.00  0.00    -0.265 N 
ATOM     15  C   UNL     1      -6.864   4.736  65.056  0.00  0.00    +0.094 C 
ATOM     16  C   UNL     1      -7.553   3.443  65.275  0.00  0.00    +0.022 C 
ATOM     17  C   UNL     1      -7.592   3.378  66.802  0.00  0.00    +0.004 C 
ATOM     18  C   UNL     1      -5.342   6.404  65.943  0.00  0.00    +0.289 C 
ATOM     19  O   UNL     1      -4.285   5.918  65.442  0.00  0.00    -0.267 OA
ATOM     20  C   UNL     1      -5.464   7.612  66.768  0.00  0.00    +0.279 C 
ATOM     21  O   UNL     1      -4.348   8.044  67.225  0.00  0.00    -0.281 OA
ATOM     22  C   UNL     1      -6.582   8.416  66.583  0.00  0.00    +0.279 C 
ATOM     23  C   UNL     1      -6.211   8.865  65.031  0.00  0.00    +0.065 C 
ATOM     24  C   UNL     1      -6.935  10.314  64.937  0.00  0.00    +0.038 C 
ATOM     25  C   UNL     1      -8.459   9.723  64.910  0.00  0.00    +0.145 C 
ATOM     26  C   UNL     1      -8.346   9.766  66.612  0.00  0.00    +0.172 C 
ATOM     27  C   UNL     1     -10.025   9.488  66.817  0.00  0.00    +0.145 C 
ATOM     28  C   UNL     1      -9.718   8.809  68.258  0.00  0.00    +0.032 C 
ATOM     29  C   UNL     1      -9.906  10.012  69.334  0.00  0.00    +0.007 C 
ATOM     30  C   UNL     1      -9.371  11.257  68.428  0.00  0.00    +0.000 C 
ATOM     31  C   UNL     1     -11.460  10.314  68.931  0.00  0.00    +0.022 C 
ATOM     32  C   UNL     1     -11.947  10.508  70.356  0.00  0.00    -0.048 C 
ATOM     33  C   UNL     1     -12.431  11.926  70.546  0.00  0.00    +0.026 C 
ATOM     34  C   UNL     1      -4.797   9.601  65.401  0.00  0.00    +0.006 C 
ATOM     35  O   UNL     1      -6.252   9.582  67.336  0.00  0.00    -0.187 OA
ATOM     36  O   UNL     1      -7.864   8.351  66.639  0.00  0.00    -0.324 OA
ATOM     37  C   UNL     1      -8.329   4.629  67.134  0.00  0.00    +0.031 C 
ATOM     38  C   UNL     1     -12.492   9.426  70.780  0.00  0.00    -0.028 C 
ENDROOT
BRANCH   9  39
ATOM     39  C   UNL     1      -6.986   4.007  70.498  0.00  0.00    -0.009 C 
ATOM     40  C   UNL     1      -7.518   2.916  70.389  0.00  0.00    -0.031 C 
ATOM     41  C   UNL     1      -5.786   4.142  71.427  0.00  0.00    +0.030 C 
BRANCH  40  42
ATOM     42  C   UNL     1      -6.502   1.751  70.941  0.00  0.00    +0.024 C 
ATOM     43  C   UNL     1      -7.738   0.944  71.569  0.00  0.00    +0.035 C 
ATOM     44  C   UNL     1      -8.689   0.186  70.502  0.00  0.00    +0.131 C 
ATOM     45  C   UNL     1      -7.541  -1.048  70.433  0.00  0.00    +0.107 C 
ATOM     46 CL   UNL     1      -8.418  -2.062  69.139  0.00  0.00    -0.112 Cl
ATOM     47  C   UNL     1      -6.438  -0.422  69.526  0.00  0.00    +0.019 C 
ATOM     48  C   UNL     1      -6.229   0.965  69.548  0.00  0.00    +0.006 C 
BRANCH  44  49
ATOM     49  O   UNL     1      -8.344   0.887  69.208  0.00  0.00    -0.352 OA
ATOM     50  C   UNL     1      -9.652   0.975  68.617  0.00  0.00    +0.174 C 
ENDBRANCH  44  49
ENDBRANCH  40  42
ENDBRANCH   9  39
BRANCH   1  52
ATOM     51  C   UNL     1     -14.427   8.045  71.750  0.00  0.00    +0.001 C 
ATOM     52  C   UNL     1     -13.215   7.534  71.918  0.00  0.00    +0.012 C 
ENDBRANCH   1  52
BRANCH  27  53
ATOM     53  O   UNL     1     -10.078   8.158  66.100  0.00  0.00    -0.351 OA
ATOM     54  C   UNL     1     -10.939   7.445  66.949  0.00  0.00    +0.174 C 
ENDBRANCH  27  53
BRANCH  25  55
ATOM     55  O   UNL     1      -9.050  11.109  64.863  0.00  0.00    -0.351 OA
ATOM     56  C   UNL     1      -9.579  11.170  63.588  0.00  0.00    +0.174 C 
ENDBRANCH  25  55
TORSDOF 6
ENDMDL
MODEL 9
REMARK VINA RESULT:      -5.1      3.642      9.653
REMARK  Name = 
REMARK  6 active torsions:
REMARK  status: ('A' for Active; 'I' for Inactive)
REMARK    1  A    between atoms: C_2  and  C_3
REMARK    2  A    between atoms: C_11  and  O_12
REMARK    3  A    between atoms: C_31  and  C_32
REMARK    4  A    between atoms: C_34  and  C_35
REMARK    5  A    between atoms: C_40  and  O_41
REMARK    6  A    between atoms: C_54  and  O_55
REMARK                            x       y       z     vdW  Elec       q    Type
REMARK                         _______ _______ _______ _____ _____    ______ ____
ROOT
ATOM      1  C   UNL     1      -8.880   6.874  74.504  0.00  0.00    +0.079 C 
ATOM      2  C   UNL     1      -9.356   7.316  73.030  0.00  0.00    +0.157 C 
ATOM      3  O   UNL     1     -10.486   6.825  73.015  0.00  0.00    -0.296 OA
ATOM      4  C   UNL     1      -8.762   8.375  72.320  0.00  0.00    +0.098 C 
ATOM      5  C   UNL     1      -9.812   9.188  71.375  0.00  0.00    +0.163 C 
ATOM      6  O   UNL     1     -10.637   7.972  71.035  0.00  0.00    -0.223 OA
ATOM      7  C   UNL     1      -8.865   9.103  69.948  0.00  0.00    +0.075 C 
ATOM      8  C   UNL     1      -8.630   7.519  70.069  0.00  0.00    +0.007 C 
ATOM      9  C   UNL     1     -10.202   8.991  68.913  0.00  0.00    +0.189 C 
ATOM     10  O   UNL     1      -9.590   8.278  67.724  0.00  0.00    -0.447 OA
ATOM     11  C   UNL     1      -8.997   8.978  66.701  0.00  0.00    +0.335 C 
ATOM     12  O   UNL     1      -9.431   8.843  65.508  0.00  0.00    -0.248 OA
ATOM     13  C   UNL     1      -7.727   8.087  67.144  0.00  0.00    +0.175 C 
ATOM     14  N   UNL     1      -7.168   8.060  65.685  0.00  0.00    -0.265 N 
ATOM     15  C   UNL     1      -6.001   8.638  65.253  0.00  0.00    +0.094 C 
ATOM     16  C   UNL     1      -5.664  10.032  65.625  0.00  0.00    +0.022 C 
ATOM     17  C   UNL     1      -6.858  10.406  66.504  0.00  0.00    +0.004 C 
ATOM     18  C   UNL     1      -7.748   6.986  64.935  0.00  0.00    +0.289 C 
ATOM     19  O   UNL     1      -7.937   7.209  63.702  0.00  0.00    -0.267 OA
ATOM     20  C   UNL     1      -8.431   5.995  65.777  0.00  0.00    +0.279 C 
ATOM     21  O   UNL     1      -9.494   5.512  65.251  0.00  0.00    -0.281 OA
ATOM     22  C   UNL     1      -7.682   5.335  66.743  0.00  0.00    +0.279 C 
ATOM     23  C   UNL     1      -6.696   4.537  65.674  0.00  0.00    +0.065 C 
ATOM     24  C   UNL     1      -6.305   3.215  66.529  0.00  0.00    +0.038 C 
ATOM     25  C   UNL     1      -5.331   3.996  67.584  0.00  0.00    +0.145 C 
ATOM     26  C   UNL     1      -6.764   4.279  68.467  0.00  0.00    +0.172 C 
ATOM     27  C   UNL     1      -5.907   4.823  69.849  0.00  0.00    +0.145 C 
ATOM     28  C   UNL     1      -7.189   5.728  70.264  0.00  0.00    +0.032 C 
ATOM     29  C   UNL     1      -8.033   4.802  71.299  0.00  0.00    +0.007 C 
ATOM     30  C   UNL     1      -7.725   3.339  70.650  0.00  0.00    +0.000 C 
ATOM     31  C   UNL     1      -6.811   4.646  72.371  0.00  0.00    +0.022 C 
ATOM     32  C   UNL     1      -7.677   4.810  73.607  0.00  0.00    -0.048 C 
ATOM     33  C   UNL     1      -7.653   3.541  74.425  0.00  0.00    +0.026 C 
ATOM     34  C   UNL     1      -7.891   3.701  64.934  0.00  0.00    +0.006 C 
ATOM     35  O   UNL     1      -8.573   4.309  67.176  0.00  0.00    -0.187 OA
ATOM     36  O   UNL     1      -6.960   5.589  67.775  0.00  0.00    -0.324 OA
ATOM     37  C   UNL     1      -6.784   9.362  67.564  0.00  0.00    +0.031 C 
ATOM     38  C   UNL     1      -7.606   6.021  74.029  0.00  0.00    -0.028 C 
ENDROOT
BRANCH   9  39
ATOM     39  C   UNL     1     -10.225  10.450  68.259  0.00  0.00    -0.009 C 
ATOM     40  C   UNL     1      -9.743  11.564  68.373  0.00  0.00    -0.031 C 
ATOM     41  C   UNL     1     -11.688  10.329  67.848  0.00  0.00    +0.030 C 
BRANCH  40  42
ATOM     42  C   UNL     1     -10.693  12.657  67.601  0.00  0.00    +0.024 C 
ATOM     43  C   UNL     1     -10.412  13.741  68.750  0.00  0.00    +0.035 C 
ATOM     44  C   UNL     1      -8.935  14.401  68.738  0.00  0.00    +0.131 C 
ATOM     45  C   UNL     1      -9.456  15.419  67.498  0.00  0.00    +0.107 C 
ATOM     46 CL   UNL     1      -7.820  16.273  67.241  0.00  0.00    -0.112 Cl
ATOM     47  C   UNL     1      -9.421  14.475  66.258  0.00  0.00    +0.019 C 
ATOM     48  C   UNL     1      -9.669  13.104  66.426  0.00  0.00    +0.006 C 
BRANCH  44  49
ATOM     49  O   UNL     1      -8.149  13.416  67.904  0.00  0.00    -0.352 OA
ATOM     50  C   UNL     1      -6.936  13.349  68.676  0.00  0.00    +0.174 C 
ENDBRANCH  44  49
ENDBRANCH  40  42
ENDBRANCH   9  39
BRANCH   1  52
ATOM     51  C   UNL     1      -7.187   7.857  75.852  0.00  0.00    +0.001 C 
ATOM     52  C   UNL     1      -7.937   8.185  74.808  0.00  0.00    +0.012 C 
ENDBRANCH   1  52
BRANCH  27  53
ATOM     53  O   UNL     1      -5.196   5.977  69.178  0.00  0.00    -0.351 OA
ATOM     54  C   UNL     1      -4.496   6.514  70.270  0.00  0.00    +0.174 C 
ENDBRANCH  27  53
BRANCH  25  55
ATOM     55  O   UNL     1      -5.051   2.725  68.345  0.00  0.00    -0.351 OA
ATOM     56  C   UNL     1      -3.893   2.264  67.751  0.00  0.00    +0.174 C 
ENDBRANCH  25  55
TORSDOF 6
ENDMDL
