MODEL 1
REMARK VINA RESULT:      -4.5      0.000      0.000
REMARK  Name = 
REMARK  37 active torsions:
REMARK  status: ('A' for Active; 'I' for Inactive)
REMARK    1  A    between atoms: C_2  and  C_3
REMARK    2  A    between atoms: C_3  and  C_4
REMARK    3  A    between atoms: C_4  and  C_5
REMARK    4  A    between atoms: C_5  and  C_6
REMARK    5  A    between atoms: C_6  and  C_7
REMARK    6  A    between atoms: C_7  and  C_8
REMARK    7  A    between atoms: C_8  and  C_9
REMARK    8  A    between atoms: C_9  and  C_10
REMARK    9  A    between atoms: C_10  and  C_11
REMARK   10  A    between atoms: C_11  and  C_12
REMARK   11  A    between atoms: C_12  and  O_13
REMARK   12  A    between atoms: O_13  and  C_14
REMARK   13  A    between atoms: C_14  and  C_15
REMARK   14  A    between atoms: C_15  and  O_16
REMARK   15  A    between atoms: O_16  and  C_17
REMARK   16  A    between atoms: C_17  and  C_18
REMARK   17  A    between atoms: C_18  and  O_19
REMARK   18  A    between atoms: O_19  and  C_20
REMARK   19  A    between atoms: C_20  and  C_21
REMARK   20  A    between atoms: C_21  and  O_22
REMARK   21  A    between atoms: O_22  and  C_23
REMARK   22  A    between atoms: C_23  and  C_24
REMARK   23  A    between atoms: C_24  and  O_25
REMARK   24  A    between atoms: O_25  and  C_26
REMARK   25  A    between atoms: C_26  and  C_27
REMARK   26  A    between atoms: C_27  and  O_28
REMARK   27  A    between atoms: O_28  and  C_29
REMARK   28  A    between atoms: C_29  and  C_30
REMARK   29  A    between atoms: C_30  and  O_31
REMARK   30  A    between atoms: O_31  and  C_32
REMARK   31  A    between atoms: C_32  and  C_33
REMARK   32  A    between atoms: C_33  and  O_34
REMARK   33  A    between atoms: O_34  and  C_35
REMARK   34  A    between atoms: C_35  and  C_36
REMARK   35  A    between atoms: C_36  and  O_37
REMARK   36  A    between atoms: O_37  and  C_38
REMARK   37  A    between atoms: C_38  and  C_39
REMARK                            x       y       z     vdW  Elec       q    Type
REMARK                         _______ _______ _______ _____ _____    ______ ____
ROOT
ATOM      1  C   UNL     1     -12.160  13.586  66.515  0.00  0.00    +0.174 C 
ENDROOT
BRANCH   1   2
ATOM      2  O   UNL     1     -11.013  14.359  66.749  0.00  0.00    -0.348 OA
BRANCH   2   3
ATOM      3  C   UNL     1     -10.819  15.118  65.596  0.00  0.00    +0.174 C 
BRANCH   3   4
ATOM      4  C   UNL     1      -9.444  15.767  65.701  0.00  0.00    +0.174 C 
BRANCH   4   5
ATOM      5  O   UNL     1      -9.675  17.151  65.667  0.00  0.00    -0.348 OA
BRANCH   5   6
ATOM      6  C   UNL     1      -9.282  17.627  66.929  0.00  0.00    +0.174 C 
BRANCH   6   7
ATOM      7  C   UNL     1     -10.523  18.280  67.526  0.00  0.00    +0.174 C 
BRANCH   7   8
ATOM      8  O   UNL     1     -11.111  17.311  68.350  0.00  0.00    -0.351 OA
BRANCH   8   9
ATOM      9  C   UNL     1     -10.098  16.891  69.227  0.00  0.00    +0.142 C 
BRANCH   9  10
ATOM     10  C   UNL     1     -10.514  15.558  69.817  0.00  0.00    +0.032 C 
BRANCH  10  11
ATOM     11  C   UNL     1     -11.942  15.708  70.314  0.00  0.00    +0.003 C 
BRANCH  11  12
ATOM     12  C   UNL     1     -11.863  16.062  71.782  0.00  0.00    +0.000 C 
BRANCH  12  13
ATOM     13  C   UNL     1     -12.654  14.996  72.528  0.00  0.00    +0.000 C 
BRANCH  13  14
ATOM     14  C   UNL     1     -13.300  14.095  71.490  0.00  0.00    +0.000 C 
BRANCH  14  15
ATOM     15  C   UNL     1     -13.474  12.731  72.134  0.00  0.00    +0.000 C 
BRANCH  15  16
ATOM     16  C   UNL     1     -12.689  11.717  71.316  0.00  0.00    +0.000 C 
BRANCH  16  17
ATOM     17  C   UNL     1     -13.178  10.349  71.729  0.00  0.00    +0.000 C 
BRANCH  17  18
ATOM     18  C   UNL     1     -12.122   9.285  71.601  0.00  0.00    +0.000 C 
BRANCH  18  20
ATOM     19  C   UNL     1     -10.792   9.146  69.474  0.00  0.00    +0.000 C 
ATOM     20  C   UNL     1     -10.903   9.743  70.850  0.00  0.00    +0.000 C 
ENDBRANCH  18  20
ENDBRANCH  17  18
ENDBRANCH  16  17
ENDBRANCH  15  16
ENDBRANCH  14  15
ENDBRANCH  13  14
ENDBRANCH  12  13
ENDBRANCH  11  12
ENDBRANCH  10  11
ENDBRANCH   9  10
ENDBRANCH   8   9
ENDBRANCH   7   8
ENDBRANCH   6   7
ENDBRANCH   5   6
ENDBRANCH   4   5
ENDBRANCH   3   4
ENDBRANCH   2   3
ENDBRANCH   1   2
BRANCH   1  21
ATOM     21  C   UNL     1     -12.502  13.694  65.040  0.00  0.00    +0.174 C 
BRANCH  21  22
ATOM     22  O   UNL     1     -13.064  12.471  64.657  0.00  0.00    -0.348 OA
BRANCH  22  23
ATOM     23  C   UNL     1     -12.503  12.012  63.459  0.00  0.00    +0.174 C 
BRANCH  23  24
ATOM     24  C   UNL     1     -10.987  12.115  63.546  0.00  0.00    +0.174 C 
BRANCH  24  25
ATOM     25  O   UNL     1     -10.486  10.824  63.564  0.00  0.00    -0.348 OA
BRANCH  25  26
ATOM     26  C   UNL     1     -10.042  10.554  64.858  0.00  0.00    +0.174 C 
BRANCH  26  27
ATOM     27  C   UNL     1      -8.520  10.484  64.857  0.00  0.00    +0.174 C 
BRANCH  27  28
ATOM     28  O   UNL     1      -8.063  10.920  66.104  0.00  0.00    -0.348 OA
BRANCH  28  29
ATOM     29  C   UNL     1      -9.134  11.206  66.962  0.00  0.00    +0.174 C 
BRANCH  29  30
ATOM     30  C   UNL     1      -8.757  12.317  67.911  0.00  0.00    +0.174 C 
BRANCH  30  31
ATOM     31  O   UNL     1      -7.625  12.969  67.433  0.00  0.00    -0.348 OA
BRANCH  31  32
ATOM     32  C   UNL     1      -7.356  14.043  68.271  0.00  0.00    +0.174 C 
BRANCH  32  33
ATOM     33  C   UNL     1      -5.975  14.588  67.931  0.00  0.00    +0.174 C 
BRANCH  33  34
ATOM     34  O   UNL     1      -5.378  14.999  69.109  0.00  0.00    -0.348 OA
BRANCH  34  35
ATOM     35  C   UNL     1      -6.049  16.070  69.669  0.00  0.00    +0.174 C 
BRANCH  35  36
ATOM     36  C   UNL     1      -5.174  16.830  70.626  0.00  0.00    +0.174 C 
BRANCH  36  37
ATOM     37  O   UNL     1      -4.948  18.098  70.080  0.00  0.00    -0.348 OA
BRANCH  37  38
ATOM     38  C   UNL     1      -6.153  18.470  69.464  0.00  0.00    +0.178 C 
BRANCH  38  39
ATOM     39  C   UNL     1      -6.361  19.973  69.596  0.00  0.00    +0.214 C 
ATOM     40  O   UNL     1      -6.376  20.382  70.925  0.00  0.00    -0.218 OA
ENDBRANCH  38  39
ENDBRANCH  37  38
ENDBRANCH  36  37
ENDBRANCH  35  36
ENDBRANCH  34  35
ENDBRANCH  33  34
ENDBRANCH  32  33
ENDBRANCH  31  32
ENDBRANCH  30  31
ENDBRANCH  29  30
ENDBRANCH  28  29
ENDBRANCH  27  28
ENDBRANCH  26  27
ENDBRANCH  25  26
ENDBRANCH  24  25
ENDBRANCH  23  24
ENDBRANCH  22  23
ENDBRANCH  21  22
ENDBRANCH   1  21
TORSDOF 37
ENDMDL
MODEL 2
REMARK VINA RESULT:      -4.4      2.357      6.879
REMARK  Name = 
REMARK  37 active torsions:
REMARK  status: ('A' for Active; 'I' for Inactive)
REMARK    1  A    between atoms: C_2  and  C_3
REMARK    2  A    between atoms: C_3  and  C_4
REMARK    3  A    between atoms: C_4  and  C_5
REMARK    4  A    between atoms: C_5  and  C_6
REMARK    5  A    between atoms: C_6  and  C_7
REMARK    6  A    between atoms: C_7  and  C_8
REMARK    7  A    between atoms: C_8  and  C_9
REMARK    8  A    between atoms: C_9  and  C_10
REMARK    9  A    between atoms: C_10  and  C_11
REMARK   10  A    between atoms: C_11  and  C_12
REMARK   11  A    between atoms: C_12  and  O_13
REMARK   12  A    between atoms: O_13  and  C_14
REMARK   13  A    between atoms: C_14  and  C_15
REMARK   14  A    between atoms: C_15  and  O_16
REMARK   15  A    between atoms: O_16  and  C_17
REMARK   16  A    between atoms: C_17  and  C_18
REMARK   17  A    between atoms: C_18  and  O_19
REMARK   18  A    between atoms: O_19  and  C_20
REMARK   19  A    between atoms: C_20  and  C_21
REMARK   20  A    between atoms: C_21  and  O_22
REMARK   21  A    between atoms: O_22  and  C_23
REMARK   22  A    between atoms: C_23  and  C_24
REMARK   23  A    between atoms: C_24  and  O_25
REMARK   24  A    between atoms: O_25  and  C_26
REMARK   25  A    between atoms: C_26  and  C_27
REMARK   26  A    between atoms: C_27  and  O_28
REMARK   27  A    between atoms: O_28  and  C_29
REMARK   28  A    between atoms: C_29  and  C_30
REMARK   29  A    between atoms: C_30  and  O_31
REMARK   30  A    between atoms: O_31  and  C_32
REMARK   31  A    between atoms: C_32  and  C_33
REMARK   32  A    between atoms: C_33  and  O_34
REMARK   33  A    between atoms: O_34  and  C_35
REMARK   34  A    between atoms: C_35  and  C_36
REMARK   35  A    between atoms: C_36  and  O_37
REMARK   36  A    between atoms: O_37  and  C_38
REMARK   37  A    between atoms: C_38  and  C_39
REMARK                            x       y       z     vdW  Elec       q    Type
REMARK                         _______ _______ _______ _____ _____    ______ ____
ROOT
ATOM      1  C   UNL     1     -12.033  14.053  66.655  0.00  0.00    +0.174 C 
ENDROOT
BRANCH   1   2
ATOM      2  O   UNL     1     -11.337  15.226  66.979  0.00  0.00    -0.348 OA
BRANCH   2   3
ATOM      3  C   UNL     1     -10.766  15.004  68.231  0.00  0.00    +0.174 C 
BRANCH   3   4
ATOM      4  C   UNL     1     -10.837  16.314  69.007  0.00  0.00    +0.174 C 
BRANCH   4   5
ATOM      5  O   UNL     1     -11.322  17.266  68.097  0.00  0.00    -0.348 OA
BRANCH   5   6
ATOM      6  C   UNL     1     -10.344  18.274  68.053  0.00  0.00    +0.174 C 
BRANCH   6   7
ATOM      7  C   UNL     1     -10.292  18.731  66.599  0.00  0.00    +0.174 C 
BRANCH   7   8
ATOM      8  O   UNL     1      -9.302  17.953  65.984  0.00  0.00    -0.351 OA
BRANCH   8   9
ATOM      9  C   UNL     1      -8.171  18.052  66.810  0.00  0.00    +0.142 C 
BRANCH   9  10
ATOM     10  C   UNL     1      -6.941  18.000  65.927  0.00  0.00    +0.032 C 
BRANCH  10  11
ATOM     11  C   UNL     1      -6.070  19.190  66.291  0.00  0.00    +0.003 C 
BRANCH  11  12
ATOM     12  C   UNL     1      -6.660  19.802  67.541  0.00  0.00    +0.000 C 
BRANCH  12  13
ATOM     13  C   UNL     1      -5.910  21.105  67.782  0.00  0.00    +0.000 C 
BRANCH  13  14
ATOM     14  C   UNL     1      -4.463  20.752  68.077  0.00  0.00    +0.000 C 
BRANCH  14  15
ATOM     15  C   UNL     1      -4.290  20.814  69.584  0.00  0.00    +0.000 C 
BRANCH  15  16
ATOM     16  C   UNL     1      -3.303  19.731  69.993  0.00  0.00    +0.000 C 
BRANCH  16  17
ATOM     17  C   UNL     1      -3.597  18.523  69.135  0.00  0.00    +0.000 C 
BRANCH  17  18
ATOM     18  C   UNL     1      -4.126  17.357  69.924  0.00  0.00    +0.000 C 
BRANCH  18  20
ATOM     19  C   UNL     1      -6.273  16.168  69.385  0.00  0.00    +0.000 C 
ATOM     20  C   UNL     1      -5.624  17.351  70.049  0.00  0.00    +0.000 C 
ENDBRANCH  18  20
ENDBRANCH  17  18
ENDBRANCH  16  17
ENDBRANCH  15  16
ENDBRANCH  14  15
ENDBRANCH  13  14
ENDBRANCH  12  13
ENDBRANCH  11  12
ENDBRANCH  10  11
ENDBRANCH   9  10
ENDBRANCH   8   9
ENDBRANCH   7   8
ENDBRANCH   6   7
ENDBRANCH   5   6
ENDBRANCH   4   5
ENDBRANCH   3   4
ENDBRANCH   2   3
ENDBRANCH   1   2
BRANCH   1  21
ATOM     21  C   UNL     1     -12.523  14.183  65.224  0.00  0.00    +0.174 C 
BRANCH  21  22
ATOM     22  O   UNL     1     -12.678  12.886  64.723  0.00  0.00    -0.348 OA
BRANCH  22  23
ATOM     23  C   UNL     1     -12.101  12.765  63.452  0.00  0.00    +0.174 C 
BRANCH  23  24
ATOM     24  C   UNL     1     -10.692  12.207  63.595  0.00  0.00    +0.174 C 
BRANCH  24  25
ATOM     25  O   UNL     1     -10.761  11.128  64.461  0.00  0.00    -0.348 OA
BRANCH  25  26
ATOM     26  C   UNL     1      -9.524  11.007  65.093  0.00  0.00    +0.174 C 
BRANCH  26  27
ATOM     27  C   UNL     1      -9.747  10.631  66.553  0.00  0.00    +0.174 C 
BRANCH  27  28
ATOM     28  O   UNL     1     -11.124  10.635  66.799  0.00  0.00    -0.348 OA
BRANCH  28  29
ATOM     29  C   UNL     1     -11.395  10.949  68.137  0.00  0.00    +0.174 C 
BRANCH  29  30
ATOM     30  C   UNL     1     -10.847   9.874  69.044  0.00  0.00    +0.174 C 
BRANCH  30  31
ATOM     31  O   UNL     1     -11.219  10.143  70.357  0.00  0.00    -0.348 OA
BRANCH  31  32
ATOM     32  C   UNL     1     -12.515  10.645  70.347  0.00  0.00    +0.174 C 
BRANCH  32  33
ATOM     33  C   UNL     1     -12.597  11.792  71.345  0.00  0.00    +0.174 C 
BRANCH  33  34
ATOM     34  O   UNL     1     -12.215  12.950  70.694  0.00  0.00    -0.348 OA
BRANCH  34  35
ATOM     35  C   UNL     1     -13.044  14.009  71.017  0.00  0.00    +0.174 C 
BRANCH  35  36
ATOM     36  C   UNL     1     -13.924  13.682  72.191  0.00  0.00    +0.174 C 
BRANCH  36  37
ATOM     37  O   UNL     1     -14.056  14.845  72.958  0.00  0.00    -0.348 OA
BRANCH  37  38
ATOM     38  C   UNL     1     -12.768  15.394  73.046  0.00  0.00    +0.178 C 
BRANCH  38  39
ATOM     39  C   UNL     1     -12.375  15.564  74.508  0.00  0.00    +0.214 C 
ATOM     40  O   UNL     1     -12.410  16.896  74.905  0.00  0.00    -0.218 OA
ENDBRANCH  38  39
ENDBRANCH  37  38
ENDBRANCH  36  37
ENDBRANCH  35  36
ENDBRANCH  34  35
ENDBRANCH  33  34
ENDBRANCH  32  33
ENDBRANCH  31  32
ENDBRANCH  30  31
ENDBRANCH  29  30
ENDBRANCH  28  29
ENDBRANCH  27  28
ENDBRANCH  26  27
ENDBRANCH  25  26
ENDBRANCH  24  25
ENDBRANCH  23  24
ENDBRANCH  22  23
ENDBRANCH  21  22
ENDBRANCH   1  21
TORSDOF 37
ENDMDL
MODEL 3
REMARK VINA RESULT:      -4.3      2.549      6.420
REMARK  Name = 
REMARK  37 active torsions:
REMARK  status: ('A' for Active; 'I' for Inactive)
REMARK    1  A    between atoms: C_2  and  C_3
REMARK    2  A    between atoms: C_3  and  C_4
REMARK    3  A    between atoms: C_4  and  C_5
REMARK    4  A    between atoms: C_5  and  C_6
REMARK    5  A    between atoms: C_6  and  C_7
REMARK    6  A    between atoms: C_7  and  C_8
REMARK    7  A    between atoms: C_8  and  C_9
REMARK    8  A    between atoms: C_9  and  C_10
REMARK    9  A    between atoms: C_10  and  C_11
REMARK   10  A    between atoms: C_11  and  C_12
REMARK   11  A    between atoms: C_12  and  O_13
REMARK   12  A    between atoms: O_13  and  C_14
REMARK   13  A    between atoms: C_14  and  C_15
REMARK   14  A    between atoms: C_15  and  O_16
REMARK   15  A    between atoms: O_16  and  C_17
REMARK   16  A    between atoms: C_17  and  C_18
REMARK   17  A    between atoms: C_18  and  O_19
REMARK   18  A    between atoms: O_19  and  C_20
REMARK   19  A    between atoms: C_20  and  C_21
REMARK   20  A    between atoms: C_21  and  O_22
REMARK   21  A    between atoms: O_22  and  C_23
REMARK   22  A    between atoms: C_23  and  C_24
REMARK   23  A    between atoms: C_24  and  O_25
REMARK   24  A    between atoms: O_25  and  C_26
REMARK   25  A    between atoms: C_26  and  C_27
REMARK   26  A    between atoms: C_27  and  O_28
REMARK   27  A    between atoms: O_28  and  C_29
REMARK   28  A    between atoms: C_29  and  C_30
REMARK   29  A    between atoms: C_30  and  O_31
REMARK   30  A    between atoms: O_31  and  C_32
REMARK   31  A    between atoms: C_32  and  C_33
REMARK   32  A    between atoms: C_33  and  O_34
REMARK   33  A    between atoms: O_34  and  C_35
REMARK   34  A    between atoms: C_35  and  C_36
REMARK   35  A    between atoms: C_36  and  O_37
REMARK   36  A    between atoms: O_37  and  C_38
REMARK   37  A    between atoms: C_38  and  C_39
REMARK                            x       y       z     vdW  Elec       q    Type
REMARK                         _______ _______ _______ _____ _____    ______ ____
ROOT
ATOM      1  C   UNL     1     -11.883  15.580  64.391  0.00  0.00    +0.174 C 
ENDROOT
BRANCH   1   2
ATOM      2  O   UNL     1     -12.659  14.466  64.042  0.00  0.00    -0.348 OA
BRANCH   2   3
ATOM      3  C   UNL     1     -11.895  13.346  64.366  0.00  0.00    +0.174 C 
BRANCH   3   4
ATOM      4  C   UNL     1     -12.308  12.221  63.425  0.00  0.00    +0.174 C 
BRANCH   4   5
ATOM      5  O   UNL     1     -11.170  11.411  63.282  0.00  0.00    -0.348 OA
BRANCH   5   6
ATOM      6  C   UNL     1     -10.502  11.481  64.516  0.00  0.00    +0.174 C 
BRANCH   6   7
ATOM      7  C   UNL     1      -9.814  10.132  64.687  0.00  0.00    +0.174 C 
BRANCH   7   8
ATOM      8  O   UNL     1     -10.214   9.650  65.940  0.00  0.00    -0.351 OA
BRANCH   8   9
ATOM      9  C   UNL     1     -10.455  10.787  66.727  0.00  0.00    +0.142 C 
BRANCH   9  10
ATOM     10  C   UNL     1     -10.968  10.323  68.076  0.00  0.00    +0.032 C 
BRANCH  10  11
ATOM     11  C   UNL     1     -10.138   9.119  68.486  0.00  0.00    +0.003 C 
BRANCH  11  12
ATOM     12  C   UNL     1      -9.972   9.189  69.988  0.00  0.00    +0.000 C 
BRANCH  12  13
ATOM     13  C   UNL     1     -11.274   9.754  70.542  0.00  0.00    +0.000 C 
BRANCH  13  14
ATOM     14  C   UNL     1     -11.575   9.020  71.837  0.00  0.00    +0.000 C 
BRANCH  14  15
ATOM     15  C   UNL     1     -12.577   7.929  71.505  0.00  0.00    +0.000 C 
BRANCH  15  16
ATOM     16  C   UNL     1     -11.804   6.688  71.082  0.00  0.00    +0.000 C 
BRANCH  16  17
ATOM     17  C   UNL     1     -10.977   6.261  72.271  0.00  0.00    +0.000 C 
BRANCH  17  18
ATOM     18  C   UNL     1     -10.772   4.773  72.340  0.00  0.00    +0.000 C 
BRANCH  18  20
ATOM     19  C   UNL     1     -10.153   5.083  74.756  0.00  0.00    +0.000 C 
ATOM     20  C   UNL     1     -10.852   4.224  73.738  0.00  0.00    +0.000 C 
ENDBRANCH  18  20
ENDBRANCH  17  18
ENDBRANCH  16  17
ENDBRANCH  15  16
ENDBRANCH  14  15
ENDBRANCH  13  14
ENDBRANCH  12  13
ENDBRANCH  11  12
ENDBRANCH  10  11
ENDBRANCH   9  10
ENDBRANCH   8   9
ENDBRANCH   7   8
ENDBRANCH   6   7
ENDBRANCH   5   6
ENDBRANCH   4   5
ENDBRANCH   3   4
ENDBRANCH   2   3
ENDBRANCH   1   2
BRANCH   1  21
ATOM     21  C   UNL     1     -10.744  15.097  65.271  0.00  0.00    +0.174 C 
BRANCH  21  22
ATOM     22  O   UNL     1      -9.852  16.165  65.412  0.00  0.00    -0.348 OA
BRANCH  22  23
ATOM     23  C   UNL     1     -10.534  17.388  65.458  0.00  0.00    +0.174 C 
BRANCH  23  24
ATOM     24  C   UNL     1     -10.354  18.007  66.837  0.00  0.00    +0.174 C 
BRANCH  24  25
ATOM     25  O   UNL     1      -9.551  19.126  66.685  0.00  0.00    -0.348 OA
BRANCH  25  26
ATOM     26  C   UNL     1      -8.254  18.776  67.060  0.00  0.00    +0.174 C 
BRANCH  26  27
ATOM     27  C   UNL     1      -8.248  18.395  68.535  0.00  0.00    +0.174 C 
BRANCH  27  28
ATOM     28  O   UNL     1      -7.127  17.593  68.774  0.00  0.00    -0.348 OA
BRANCH  28  29
ATOM     29  C   UNL     1      -7.305  16.308  68.243  0.00  0.00    +0.174 C 
BRANCH  29  30
ATOM     30  C   UNL     1      -8.135  15.468  69.183  0.00  0.00    +0.174 C 
BRANCH  30  31
ATOM     31  O   UNL     1      -9.320  15.104  68.553  0.00  0.00    -0.348 OA
BRANCH  31  32
ATOM     32  C   UNL     1     -10.372  15.372  69.419  0.00  0.00    +0.174 C 
BRANCH  32  33
ATOM     33  C   UNL     1     -11.679  15.049  68.708  0.00  0.00    +0.174 C 
BRANCH  33  34
ATOM     34  O   UNL     1     -12.407  14.200  69.521  0.00  0.00    -0.348 OA
BRANCH  34  35
ATOM     35  C   UNL     1     -12.356  14.599  70.844  0.00  0.00    +0.174 C 
BRANCH  35  36
ATOM     36  C   UNL     1     -13.730  14.859  71.395  0.00  0.00    +0.174 C 
BRANCH  36  37
ATOM     37  O   UNL     1     -13.639  15.953  72.263  0.00  0.00    -0.348 OA
BRANCH  37  38
ATOM     38  C   UNL     1     -12.358  15.885  72.832  0.00  0.00    +0.178 C 
BRANCH  38  39
ATOM     39  C   UNL     1     -12.466  15.557  74.316  0.00  0.00    +0.214 C 
ATOM     40  O   UNL     1     -12.436  16.702  75.105  0.00  0.00    -0.218 OA
ENDBRANCH  38  39
ENDBRANCH  37  38
ENDBRANCH  36  37
ENDBRANCH  35  36
ENDBRANCH  34  35
ENDBRANCH  33  34
ENDBRANCH  32  33
ENDBRANCH  31  32
ENDBRANCH  30  31
ENDBRANCH  29  30
ENDBRANCH  28  29
ENDBRANCH  27  28
ENDBRANCH  26  27
ENDBRANCH  25  26
ENDBRANCH  24  25
ENDBRANCH  23  24
ENDBRANCH  22  23
ENDBRANCH  21  22
ENDBRANCH   1  21
TORSDOF 37
ENDMDL
MODEL 4
REMARK VINA RESULT:      -4.3      1.661      5.579
REMARK  Name = 
REMARK  37 active torsions:
REMARK  status: ('A' for Active; 'I' for Inactive)
REMARK    1  A    between atoms: C_2  and  C_3
REMARK    2  A    between atoms: C_3  and  C_4
REMARK    3  A    between atoms: C_4  and  C_5
REMARK    4  A    between atoms: C_5  and  C_6
REMARK    5  A    between atoms: C_6  and  C_7
REMARK    6  A    between atoms: C_7  and  C_8
REMARK    7  A    between atoms: C_8  and  C_9
REMARK    8  A    between atoms: C_9  and  C_10
REMARK    9  A    between atoms: C_10  and  C_11
REMARK   10  A    between atoms: C_11  and  C_12
REMARK   11  A    between atoms: C_12  and  O_13
REMARK   12  A    between atoms: O_13  and  C_14
REMARK   13  A    between atoms: C_14  and  C_15
REMARK   14  A    between atoms: C_15  and  O_16
REMARK   15  A    between atoms: O_16  and  C_17
REMARK   16  A    between atoms: C_17  and  C_18
REMARK   17  A    between atoms: C_18  and  O_19
REMARK   18  A    between atoms: O_19  and  C_20
REMARK   19  A    between atoms: C_20  and  C_21
REMARK   20  A    between atoms: C_21  and  O_22
REMARK   21  A    between atoms: O_22  and  C_23
REMARK   22  A    between atoms: C_23  and  C_24
REMARK   23  A    between atoms: C_24  and  O_25
REMARK   24  A    between atoms: O_25  and  C_26
REMARK   25  A    between atoms: C_26  and  C_27
REMARK   26  A    between atoms: C_27  and  O_28
REMARK   27  A    between atoms: O_28  and  C_29
REMARK   28  A    between atoms: C_29  and  C_30
REMARK   29  A    between atoms: C_30  and  O_31
REMARK   30  A    between atoms: O_31  and  C_32
REMARK   31  A    between atoms: C_32  and  C_33
REMARK   32  A    between atoms: C_33  and  O_34
REMARK   33  A    between atoms: O_34  and  C_35
REMARK   34  A    between atoms: C_35  and  C_36
REMARK   35  A    between atoms: C_36  and  O_37
REMARK   36  A    between atoms: O_37  and  C_38
REMARK   37  A    between atoms: C_38  and  C_39
REMARK                            x       y       z     vdW  Elec       q    Type
REMARK                         _______ _______ _______ _____ _____    ______ ____
ROOT
ATOM      1  C   UNL     1     -10.540  15.342  65.525  0.00  0.00    +0.174 C 
ENDROOT
BRANCH   1   2
ATOM      2  O   UNL     1     -11.053  14.516  66.535  0.00  0.00    -0.348 OA
BRANCH   2   3
ATOM      3  C   UNL     1     -12.375  14.248  66.182  0.00  0.00    +0.174 C 
BRANCH   3   4
ATOM      4  C   UNL     1     -12.406  14.002  64.678  0.00  0.00    +0.174 C 
BRANCH   4   5
ATOM      5  O   UNL     1     -12.962  12.723  64.517  0.00  0.00    -0.348 OA
BRANCH   5   6
ATOM      6  C   UNL     1     -12.266  12.144  63.442  0.00  0.00    +0.174 C 
BRANCH   6   7
ATOM      7  C   UNL     1     -10.828  11.985  63.923  0.00  0.00    +0.174 C 
BRANCH   7   8
ATOM      8  O   UNL     1     -10.547  10.614  63.856  0.00  0.00    -0.351 OA
BRANCH   8   9
ATOM      9  C   UNL     1      -9.792  10.323  65.003  0.00  0.00    +0.142 C 
BRANCH   9  10
ATOM     10  C   UNL     1     -10.439  11.025  66.180  0.00  0.00    +0.032 C 
BRANCH  10  11
ATOM     11  C   UNL     1      -9.338  11.357  67.172  0.00  0.00    +0.003 C 
BRANCH  11  12
ATOM     12  C   UNL     1      -9.813  10.892  68.530  0.00  0.00    +0.000 C 
BRANCH  12  13
ATOM     13  C   UNL     1     -11.172  11.541  68.760  0.00  0.00    +0.000 C 
BRANCH  13  14
ATOM     14  C   UNL     1     -11.669  11.090  70.122  0.00  0.00    +0.000 C 
BRANCH  14  15
ATOM     15  C   UNL     1     -12.424  12.261  70.727  0.00  0.00    +0.000 C 
BRANCH  15  16
ATOM     16  C   UNL     1     -12.209  13.475  69.835  0.00  0.00    +0.000 C 
BRANCH  16  17
ATOM     17  C   UNL     1     -12.649  14.683  70.629  0.00  0.00    +0.000 C 
BRANCH  17  18
ATOM     18  C   UNL     1     -11.525  15.315  71.404  0.00  0.00    +0.000 C 
BRANCH  18  20
ATOM     19  C   UNL     1     -12.778  15.237  73.581  0.00  0.00    +0.000 C 
ATOM     20  C   UNL     1     -11.991  16.078  72.613  0.00  0.00    +0.000 C 
ENDBRANCH  18  20
ENDBRANCH  17  18
ENDBRANCH  16  17
ENDBRANCH  15  16
ENDBRANCH  14  15
ENDBRANCH  13  14
ENDBRANCH  12  13
ENDBRANCH  11  12
ENDBRANCH  10  11
ENDBRANCH   9  10
ENDBRANCH   8   9
ENDBRANCH   7   8
ENDBRANCH   6   7
ENDBRANCH   5   6
ENDBRANCH   4   5
ENDBRANCH   3   4
ENDBRANCH   2   3
ENDBRANCH   1   2
BRANCH   1  21
ATOM     21  C   UNL     1     -10.181  16.677  66.154  0.00  0.00    +0.174 C 
BRANCH  21  22
ATOM     22  O   UNL     1     -10.685  17.676  65.314  0.00  0.00    -0.348 OA
BRANCH  22  23
ATOM     23  C   UNL     1     -10.568  18.939  65.907  0.00  0.00    +0.174 C 
BRANCH  23  24
ATOM     24  C   UNL     1     -10.274  18.769  67.391  0.00  0.00    +0.174 C 
BRANCH  24  25
ATOM     25  O   UNL     1      -9.145  19.519  67.676  0.00  0.00    -0.348 OA
BRANCH  25  26
ATOM     26  C   UNL     1      -8.519  18.946  68.783  0.00  0.00    +0.174 C 
BRANCH  26  27
ATOM     27  C   UNL     1      -7.475  17.946  68.302  0.00  0.00    +0.174 C 
BRANCH  27  28
ATOM     28  O   UNL     1      -7.817  16.685  68.800  0.00  0.00    -0.348 OA
BRANCH  28  29
ATOM     29  C   UNL     1      -6.799  15.754  68.557  0.00  0.00    +0.174 C 
BRANCH  29  30
ATOM     30  C   UNL     1      -6.410  15.062  69.840  0.00  0.00    +0.174 C 
BRANCH  30  31
ATOM     31  O   UNL     1      -5.491  15.847  70.528  0.00  0.00    -0.348 OA
BRANCH  31  32
ATOM     32  C   UNL     1      -4.356  15.980  69.738  0.00  0.00    +0.174 C 
BRANCH  32  33
ATOM     33  C   UNL     1      -3.826  17.400  69.888  0.00  0.00    +0.174 C 
BRANCH  33  34
ATOM     34  O   UNL     1      -4.679  18.085  70.734  0.00  0.00    -0.348 OA
BRANCH  34  35
ATOM     35  C   UNL     1      -4.359  19.429  70.793  0.00  0.00    +0.174 C 
BRANCH  35  36
ATOM     36  C   UNL     1      -5.524  20.292  70.394  0.00  0.00    +0.174 C 
BRANCH  36  37
ATOM     37  O   UNL     1      -5.050  21.256  69.498  0.00  0.00    -0.348 OA
BRANCH  37  38
ATOM     38  C   UNL     1      -4.685  20.556  68.338  0.00  0.00    +0.178 C 
BRANCH  38  39
ATOM     39  C   UNL     1      -5.269  21.244  67.111  0.00  0.00    +0.214 C 
ATOM     40  O   UNL     1      -6.587  21.639  67.313  0.00  0.00    -0.218 OA
ENDBRANCH  38  39
ENDBRANCH  37  38
ENDBRANCH  36  37
ENDBRANCH  35  36
ENDBRANCH  34  35
ENDBRANCH  33  34
ENDBRANCH  32  33
ENDBRANCH  31  32
ENDBRANCH  30  31
ENDBRANCH  29  30
ENDBRANCH  28  29
ENDBRANCH  27  28
ENDBRANCH  26  27
ENDBRANCH  25  26
ENDBRANCH  24  25
ENDBRANCH  23  24
ENDBRANCH  22  23
ENDBRANCH  21  22
ENDBRANCH   1  21
TORSDOF 37
ENDMDL
MODEL 5
REMARK VINA RESULT:      -4.2      2.203      6.535
REMARK  Name = 
REMARK  37 active torsions:
REMARK  status: ('A' for Active; 'I' for Inactive)
REMARK    1  A    between atoms: C_2  and  C_3
REMARK    2  A    between atoms: C_3  and  C_4
REMARK    3  A    between atoms: C_4  and  C_5
REMARK    4  A    between atoms: C_5  and  C_6
REMARK    5  A    between atoms: C_6  and  C_7
REMARK    6  A    between atoms: C_7  and  C_8
REMARK    7  A    between atoms: C_8  and  C_9
REMARK    8  A    between atoms: C_9  and  C_10
REMARK    9  A    between atoms: C_10  and  C_11
REMARK   10  A    between atoms: C_11  and  C_12
REMARK   11  A    between atoms: C_12  and  O_13
REMARK   12  A    between atoms: O_13  and  C_14
REMARK   13  A    between atoms: C_14  and  C_15
REMARK   14  A    between atoms: C_15  and  O_16
REMARK   15  A    between atoms: O_16  and  C_17
REMARK   16  A    between atoms: C_17  and  C_18
REMARK   17  A    between atoms: C_18  and  O_19
REMARK   18  A    between atoms: O_19  and  C_20
REMARK   19  A    between atoms: C_20  and  C_21
REMARK   20  A    between atoms: C_21  and  O_22
REMARK   21  A    between atoms: O_22  and  C_23
REMARK   22  A    between atoms: C_23  and  C_24
REMARK   23  A    between atoms: C_24  and  O_25
REMARK   24  A    between atoms: O_25  and  C_26
REMARK   25  A    between atoms: C_26  and  C_27
REMARK   26  A    between atoms: C_27  and  O_28
REMARK   27  A    between atoms: O_28  and  C_29
REMARK   28  A    between atoms: C_29  and  C_30
REMARK   29  A    between atoms: C_30  and  O_31
REMARK   30  A    between atoms: O_31  and  C_32
REMARK   31  A    between atoms: C_32  and  C_33
REMARK   32  A    between atoms: C_33  and  O_34
REMARK   33  A    between atoms: O_34  and  C_35
REMARK   34  A    between atoms: C_35  and  C_36
REMARK   35  A    between atoms: C_36  and  O_37
REMARK   36  A    between atoms: O_37  and  C_38
REMARK   37  A    between atoms: C_38  and  C_39
REMARK                            x       y       z     vdW  Elec       q    Type
REMARK                         _______ _______ _______ _____ _____    ______ ____
ROOT
ATOM      1  C   UNL     1     -12.047  13.942  64.252  0.00  0.00    +0.174 C 
ENDROOT
BRANCH   1   2
ATOM      2  O   UNL     1     -11.916  14.854  65.309  0.00  0.00    -0.348 OA
BRANCH   2   3
ATOM      3  C   UNL     1     -10.900  15.733  64.938  0.00  0.00    +0.174 C 
BRANCH   3   4
ATOM      4  C   UNL     1     -10.162  16.144  66.206  0.00  0.00    +0.174 C 
BRANCH   4   5
ATOM      5  O   UNL     1      -9.122  15.213  66.356  0.00  0.00    -0.348 OA
BRANCH   5   6
ATOM      6  C   UNL     1      -8.045  15.938  66.893  0.00  0.00    +0.174 C 
BRANCH   6   7
ATOM      7  C   UNL     1      -8.541  16.480  68.229  0.00  0.00    +0.174 C 
BRANCH   7   8
ATOM      8  O   UNL     1      -7.450  16.408  69.105  0.00  0.00    -0.351 OA
BRANCH   8   9
ATOM      9  C   UNL     1      -6.363  15.979  68.326  0.00  0.00    +0.142 C 
BRANCH   9  10
ATOM     10  C   UNL     1      -5.098  16.555  68.930  0.00  0.00    +0.032 C 
BRANCH  10  11
ATOM     11  C   UNL     1      -5.455  17.085  70.309  0.00  0.00    +0.003 C 
BRANCH  11  12
ATOM     12  C   UNL     1      -4.803  18.443  70.440  0.00  0.00    +0.000 C 
BRANCH  12  13
ATOM     13  C   UNL     1      -5.902  19.474  70.217  0.00  0.00    +0.000 C 
BRANCH  13  14
ATOM     14  C   UNL     1      -5.255  20.707  69.609  0.00  0.00    +0.000 C 
BRANCH  14  15
ATOM     15  C   UNL     1      -5.841  20.874  68.219  0.00  0.00    +0.000 C 
BRANCH  15  16
ATOM     16  C   UNL     1      -6.819  19.733  67.976  0.00  0.00    +0.000 C 
BRANCH  16  17
ATOM     17  C   UNL     1      -7.052  19.666  66.485  0.00  0.00    +0.000 C 
BRANCH  17  18
ATOM     18  C   UNL     1      -8.497  19.850  66.109  0.00  0.00    +0.000 C 
BRANCH  18  20
ATOM     19  C   UNL     1     -10.771  19.529  67.128  0.00  0.00    +0.000 C 
ATOM     20  C   UNL     1      -9.392  20.107  67.289  0.00  0.00    +0.000 C 
ENDBRANCH  18  20
ENDBRANCH  17  18
ENDBRANCH  16  17
ENDBRANCH  15  16
ENDBRANCH  14  15
ENDBRANCH  13  14
ENDBRANCH  12  13
ENDBRANCH  11  12
ENDBRANCH  10  11
ENDBRANCH   9  10
ENDBRANCH   8   9
ENDBRANCH   7   8
ENDBRANCH   6   7
ENDBRANCH   5   6
ENDBRANCH   4   5
ENDBRANCH   3   4
ENDBRANCH   2   3
ENDBRANCH   1   2
BRANCH   1  21
ATOM     21  C   UNL     1     -12.437  12.598  64.842  0.00  0.00    +0.174 C 
BRANCH  21  22
ATOM     22  O   UNL     1     -11.349  11.738  64.659  0.00  0.00    -0.348 OA
BRANCH  22  23
ATOM     23  C   UNL     1     -10.628  12.075  63.507  0.00  0.00    +0.174 C 
BRANCH  23  24
ATOM     24  C   UNL     1      -9.540  11.036  63.277  0.00  0.00    +0.174 C 
BRANCH  24  25
ATOM     25  O   UNL     1      -9.867   9.922  64.033  0.00  0.00    -0.348 OA
BRANCH  25  26
ATOM     26  C   UNL     1      -8.681   9.372  64.520  0.00  0.00    +0.174 C 
BRANCH  26  27
ATOM     27  C   UNL     1      -8.953   8.724  65.871  0.00  0.00    +0.174 C 
BRANCH  27  28
ATOM     28  O   UNL     1     -10.166   9.222  66.358  0.00  0.00    -0.348 OA
BRANCH  28  29
ATOM     29  C   UNL     1      -9.969   9.979  67.521  0.00  0.00    +0.174 C 
BRANCH  29  30
ATOM     30  C   UNL     1     -11.223   9.974  68.361  0.00  0.00    +0.174 C 
BRANCH  30  31
ATOM     31  O   UNL     1     -11.938  11.144  68.129  0.00  0.00    -0.348 OA
BRANCH  31  32
ATOM     32  C   UNL     1     -11.539  12.090  69.064  0.00  0.00    +0.174 C 
BRANCH  32  33
ATOM     33  C   UNL     1     -11.483  13.451  68.383  0.00  0.00    +0.174 C 
BRANCH  33  34
ATOM     34  O   UNL     1     -12.297  14.315  69.091  0.00  0.00    -0.348 OA
BRANCH  34  35
ATOM     35  C   UNL     1     -11.557  15.162  69.895  0.00  0.00    +0.174 C 
BRANCH  35  36
ATOM     36  C   UNL     1     -12.385  15.719  71.020  0.00  0.00    +0.174 C 
BRANCH  36  37
ATOM     37  O   UNL     1     -12.673  14.666  71.895  0.00  0.00    -0.348 OA
BRANCH  37  38
ATOM     38  C   UNL     1     -13.350  15.244  72.981  0.00  0.00    +0.178 C 
BRANCH  38  39
ATOM     39  C   UNL     1     -12.410  16.166  73.746  0.00  0.00    +0.214 C 
ATOM     40  O   UNL     1     -12.557  16.034  75.123  0.00  0.00    -0.218 OA
ENDBRANCH  38  39
ENDBRANCH  37  38
ENDBRANCH  36  37
ENDBRANCH  35  36
ENDBRANCH  34  35
ENDBRANCH  33  34
ENDBRANCH  32  33
ENDBRANCH  31  32
ENDBRANCH  30  31
ENDBRANCH  29  30
ENDBRANCH  28  29
ENDBRANCH  27  28
ENDBRANCH  26  27
ENDBRANCH  25  26
ENDBRANCH  24  25
ENDBRANCH  23  24
ENDBRANCH  22  23
ENDBRANCH  21  22
ENDBRANCH   1  21
TORSDOF 37
ENDMDL
MODEL 6
REMARK VINA RESULT:      -4.2      2.654      7.383
REMARK  Name = 
REMARK  37 active torsions:
REMARK  status: ('A' for Active; 'I' for Inactive)
REMARK    1  A    between atoms: C_2  and  C_3
REMARK    2  A    between atoms: C_3  and  C_4
REMARK    3  A    between atoms: C_4  and  C_5
REMARK    4  A    between atoms: C_5  and  C_6
REMARK    5  A    between atoms: C_6  and  C_7
REMARK    6  A    between atoms: C_7  and  C_8
REMARK    7  A    between atoms: C_8  and  C_9
REMARK    8  A    between atoms: C_9  and  C_10
REMARK    9  A    between atoms: C_10  and  C_11
REMARK   10  A    between atoms: C_11  and  C_12
REMARK   11  A    between atoms: C_12  and  O_13
REMARK   12  A    between atoms: O_13  and  C_14
REMARK   13  A    between atoms: C_14  and  C_15
REMARK   14  A    between atoms: C_15  and  O_16
REMARK   15  A    between atoms: O_16  and  C_17
REMARK   16  A    between atoms: C_17  and  C_18
REMARK   17  A    between atoms: C_18  and  O_19
REMARK   18  A    between atoms: O_19  and  C_20
REMARK   19  A    between atoms: C_20  and  C_21
REMARK   20  A    between atoms: C_21  and  O_22
REMARK   21  A    between atoms: O_22  and  C_23
REMARK   22  A    between atoms: C_23  and  C_24
REMARK   23  A    between atoms: C_24  and  O_25
REMARK   24  A    between atoms: O_25  and  C_26
REMARK   25  A    between atoms: C_26  and  C_27
REMARK   26  A    between atoms: C_27  and  O_28
REMARK   27  A    between atoms: O_28  and  C_29
REMARK   28  A    between atoms: C_29  and  C_30
REMARK   29  A    between atoms: C_30  and  O_31
REMARK   30  A    between atoms: O_31  and  C_32
REMARK   31  A    between atoms: C_32  and  C_33
REMARK   32  A    between atoms: C_33  and  O_34
REMARK   33  A    between atoms: O_34  and  C_35
REMARK   34  A    between atoms: C_35  and  C_36
REMARK   35  A    between atoms: C_36  and  O_37
REMARK   36  A    between atoms: O_37  and  C_38
REMARK   37  A    between atoms: C_38  and  C_39
REMARK                            x       y       z     vdW  Elec       q    Type
REMARK                         _______ _______ _______ _____ _____    ______ ____
ROOT
ATOM      1  C   UNL     1      -9.652  13.197  66.372  0.00  0.00    +0.174 C 
ENDROOT
BRANCH   1   2
ATOM      2  O   UNL     1      -9.349  13.015  67.729  0.00  0.00    -0.348 OA
BRANCH   2   3
ATOM      3  C   UNL     1     -10.557  12.724  68.360  0.00  0.00    +0.174 C 
BRANCH   3   4
ATOM      4  C   UNL     1     -11.253  11.643  67.542  0.00  0.00    +0.174 C 
BRANCH   4   5
ATOM      5  O   UNL     1     -12.200  11.068  68.404  0.00  0.00    -0.348 OA
BRANCH   5   6
ATOM      6  C   UNL     1     -11.483  10.694  69.553  0.00  0.00    +0.174 C 
BRANCH   6   7
ATOM      7  C   UNL     1     -12.480  10.777  70.703  0.00  0.00    +0.174 C 
BRANCH   7   8
ATOM      8  O   UNL     1     -12.611  12.139  71.005  0.00  0.00    -0.351 OA
BRANCH   8   9
ATOM      9  C   UNL     1     -13.486  12.204  72.102  0.00  0.00    +0.142 C 
BRANCH   9  10
ATOM     10  C   UNL     1     -14.018  13.621  72.192  0.00  0.00    +0.032 C 
BRANCH  10  11
ATOM     11  C   UNL     1     -12.823  14.544  72.357  0.00  0.00    +0.003 C 
BRANCH  11  12
ATOM     12  C   UNL     1     -12.926  15.595  71.276  0.00  0.00    +0.000 C 
BRANCH  12  13
ATOM     13  C   UNL     1     -11.527  16.170  71.094  0.00  0.00    +0.000 C 
BRANCH  13  14
ATOM     14  C   UNL     1     -11.255  16.249  69.602  0.00  0.00    +0.000 C 
BRANCH  14  15
ATOM     15  C   UNL     1      -9.769  16.005  69.410  0.00  0.00    +0.000 C 
BRANCH  15  16
ATOM     16  C   UNL     1      -9.194  17.177  68.628  0.00  0.00    +0.000 C 
BRANCH  16  17
ATOM     17  C   UNL     1     -10.367  17.977  68.112  0.00  0.00    +0.000 C 
BRANCH  17  18
ATOM     18  C   UNL     1     -10.035  18.779  66.884  0.00  0.00    +0.000 C 
BRANCH  18  20
ATOM     19  C   UNL     1      -8.102  20.334  67.286  0.00  0.00    +0.000 C 
ATOM     20  C   UNL     1      -9.596  20.184  67.190  0.00  0.00    +0.000 C 
ENDBRANCH  18  20
ENDBRANCH  17  18
ENDBRANCH  16  17
ENDBRANCH  15  16
ENDBRANCH  14  15
ENDBRANCH  13  14
ENDBRANCH  12  13
ENDBRANCH  11  12
ENDBRANCH  10  11
ENDBRANCH   9  10
ENDBRANCH   8   9
ENDBRANCH   7   8
ENDBRANCH   6   7
ENDBRANCH   5   6
ENDBRANCH   4   5
ENDBRANCH   3   4
ENDBRANCH   2   3
ENDBRANCH   1   2
BRANCH   1  21
ATOM     21  C   UNL     1      -9.562  14.683  66.071  0.00  0.00    +0.174 C 
BRANCH  21  22
ATOM     22  O   UNL     1     -10.871  15.177  66.046  0.00  0.00    -0.348 OA
BRANCH  22  23
ATOM     23  C   UNL     1     -11.548  14.753  64.895  0.00  0.00    +0.174 C 
BRANCH  23  24
ATOM     24  C   UNL     1     -12.870  14.116  65.300  0.00  0.00    +0.174 C 
BRANCH  24  25
ATOM     25  O   UNL     1     -12.952  12.892  64.659  0.00  0.00    -0.348 OA
BRANCH  25  26
ATOM     26  C   UNL     1     -12.069  12.913  63.579  0.00  0.00    +0.174 C 
BRANCH  26  27
ATOM     27  C   UNL     1     -11.387  11.556  63.467  0.00  0.00    +0.174 C 
BRANCH  27  28
ATOM     28  O   UNL     1     -10.051  11.767  63.110  0.00  0.00    -0.348 OA
BRANCH  28  29
ATOM     29  C   UNL     1      -9.259  10.661  63.445  0.00  0.00    +0.174 C 
BRANCH  29  30
ATOM     30  C   UNL     1      -9.817   9.974  64.668  0.00  0.00    +0.174 C 
BRANCH  30  31
ATOM     31  O   UNL     1      -8.810   9.830  65.617  0.00  0.00    -0.348 OA
BRANCH  31  32
ATOM     32  C   UNL     1      -8.495   8.480  65.713  0.00  0.00    +0.174 C 
BRANCH  32  33
ATOM     33  C   UNL     1      -9.611   7.775  66.471  0.00  0.00    +0.174 C 
BRANCH  33  34
ATOM     34  O   UNL     1      -9.728   8.375  67.712  0.00  0.00    -0.348 OA
BRANCH  34  35
ATOM     35  C   UNL     1      -9.006   7.692  68.673  0.00  0.00    +0.174 C 
BRANCH  35  36
ATOM     36  C   UNL     1      -9.829   6.612  69.318  0.00  0.00    +0.174 C 
BRANCH  36  37
ATOM     37  O   UNL     1     -11.053   7.177  69.690  0.00  0.00    -0.348 OA
BRANCH  37  38
ATOM     38  C   UNL     1     -10.982   7.365  71.079  0.00  0.00    +0.178 C 
BRANCH  38  39
ATOM     39  C   UNL     1     -11.801   6.295  71.791  0.00  0.00    +0.214 C 
ATOM     40  O   UNL     1     -10.993   5.360  72.429  0.00  0.00    -0.218 OA
ENDBRANCH  38  39
ENDBRANCH  37  38
ENDBRANCH  36  37
ENDBRANCH  35  36
ENDBRANCH  34  35
ENDBRANCH  33  34
ENDBRANCH  32  33
ENDBRANCH  31  32
ENDBRANCH  30  31
ENDBRANCH  29  30
ENDBRANCH  28  29
ENDBRANCH  27  28
ENDBRANCH  26  27
ENDBRANCH  25  26
ENDBRANCH  24  25
ENDBRANCH  23  24
ENDBRANCH  22  23
ENDBRANCH  21  22
ENDBRANCH   1  21
TORSDOF 37
ENDMDL
MODEL 7
REMARK VINA RESULT:      -4.2      1.859      2.584
REMARK  Name = 
REMARK  37 active torsions:
REMARK  status: ('A' for Active; 'I' for Inactive)
REMARK    1  A    between atoms: C_2  and  C_3
REMARK    2  A    between atoms: C_3  and  C_4
REMARK    3  A    between atoms: C_4  and  C_5
REMARK    4  A    between atoms: C_5  and  C_6
REMARK    5  A    between atoms: C_6  and  C_7
REMARK    6  A    between atoms: C_7  and  C_8
REMARK    7  A    between atoms: C_8  and  C_9
REMARK    8  A    between atoms: C_9  and  C_10
REMARK    9  A    between atoms: C_10  and  C_11
REMARK   10  A    between atoms: C_11  and  C_12
REMARK   11  A    between atoms: C_12  and  O_13
REMARK   12  A    between atoms: O_13  and  C_14
REMARK   13  A    between atoms: C_14  and  C_15
REMARK   14  A    between atoms: C_15  and  O_16
REMARK   15  A    between atoms: O_16  and  C_17
REMARK   16  A    between atoms: C_17  and  C_18
REMARK   17  A    between atoms: C_18  and  O_19
REMARK   18  A    between atoms: O_19  and  C_20
REMARK   19  A    between atoms: C_20  and  C_21
REMARK   20  A    between atoms: C_21  and  O_22
REMARK   21  A    between atoms: O_22  and  C_23
REMARK   22  A    between atoms: C_23  and  C_24
REMARK   23  A    between atoms: C_24  and  O_25
REMARK   24  A    between atoms: O_25  and  C_26
REMARK   25  A    between atoms: C_26  and  C_27
REMARK   26  A    between atoms: C_27  and  O_28
REMARK   27  A    between atoms: O_28  and  C_29
REMARK   28  A    between atoms: C_29  and  C_30
REMARK   29  A    between atoms: C_30  and  O_31
REMARK   30  A    between atoms: O_31  and  C_32
REMARK   31  A    between atoms: C_32  and  C_33
REMARK   32  A    between atoms: C_33  and  O_34
REMARK   33  A    between atoms: O_34  and  C_35
REMARK   34  A    between atoms: C_35  and  C_36
REMARK   35  A    between atoms: C_36  and  O_37
REMARK   36  A    between atoms: O_37  and  C_38
REMARK   37  A    between atoms: C_38  and  C_39
REMARK                            x       y       z     vdW  Elec       q    Type
REMARK                         _______ _______ _______ _____ _____    ______ ____
ROOT
ATOM      1  C   UNL     1     -12.181  13.384  66.463  0.00  0.00    +0.174 C 
ENDROOT
BRANCH   1   2
ATOM      2  O   UNL     1     -11.078  14.183  66.796  0.00  0.00    -0.348 OA
BRANCH   2   3
ATOM      3  C   UNL     1     -10.932  15.094  65.752  0.00  0.00    +0.174 C 
BRANCH   3   4
ATOM      4  C   UNL     1      -9.513  15.647  65.821  0.00  0.00    +0.174 C 
BRANCH   4   5
ATOM      5  O   UNL     1      -9.652  17.044  65.827  0.00  0.00    -0.348 OA
BRANCH   5   6
ATOM      6  C   UNL     1      -9.293  17.450  67.123  0.00  0.00    +0.174 C 
BRANCH   6   7
ATOM      7  C   UNL     1     -10.514  18.173  67.680  0.00  0.00    +0.174 C 
BRANCH   7   8
ATOM      8  O   UNL     1     -11.210  17.225  68.442  0.00  0.00    -0.351 OA
BRANCH   8   9
ATOM      9  C   UNL     1     -10.278  16.714  69.359  0.00  0.00    +0.142 C 
BRANCH   9  10
ATOM     10  C   UNL     1     -10.858  15.451  69.962  0.00  0.00    +0.032 C 
BRANCH  10  11
ATOM     11  C   UNL     1     -12.199  15.816  70.575  0.00  0.00    +0.003 C 
BRANCH  11  12
ATOM     12  C   UNL     1     -11.935  16.212  72.010  0.00  0.00    +0.000 C 
BRANCH  12  13
ATOM     13  C   UNL     1     -12.613  15.163  72.882  0.00  0.00    +0.000 C 
BRANCH  13  14
ATOM     14  C   UNL     1     -13.747  14.560  72.072  0.00  0.00    +0.000 C 
BRANCH  14  15
ATOM     15  C   UNL     1     -13.752  13.069  72.360  0.00  0.00    +0.000 C 
BRANCH  15  16
ATOM     16  C   UNL     1     -12.995  12.368  71.242  0.00  0.00    +0.000 C 
BRANCH  16  17
ATOM     17  C   UNL     1     -12.781  10.940  71.687  0.00  0.00    +0.000 C 
BRANCH  17  18
ATOM     18  C   UNL     1     -12.274  10.052  70.585  0.00  0.00    +0.000 C 
BRANCH  18  20
ATOM     19  C   UNL     1     -10.115   8.993  71.314  0.00  0.00    +0.000 C 
ATOM     20  C   UNL     1     -11.590   8.810  71.086  0.00  0.00    +0.000 C 
ENDBRANCH  18  20
ENDBRANCH  17  18
ENDBRANCH  16  17
ENDBRANCH  15  16
ENDBRANCH  14  15
ENDBRANCH  13  14
ENDBRANCH  12  13
ENDBRANCH  11  12
ENDBRANCH  10  11
ENDBRANCH   9  10
ENDBRANCH   8   9
ENDBRANCH   7   8
ENDBRANCH   6   7
ENDBRANCH   5   6
ENDBRANCH   4   5
ENDBRANCH   3   4
ENDBRANCH   2   3
ENDBRANCH   1   2
BRANCH   1  21
ATOM     21  C   UNL     1     -12.446  13.552  64.977  0.00  0.00    +0.174 C 
BRANCH  21  22
ATOM     22  O   UNL     1     -13.174  12.433  64.560  0.00  0.00    -0.348 OA
BRANCH  22  23
ATOM     23  C   UNL     1     -12.573  11.826  63.450  0.00  0.00    +0.174 C 
BRANCH  23  24
ATOM     24  C   UNL     1     -11.092  12.175  63.431  0.00  0.00    +0.174 C 
BRANCH  24  25
ATOM     25  O   UNL     1     -10.389  10.986  63.346  0.00  0.00    -0.348 OA
BRANCH  25  26
ATOM     26  C   UNL     1     -10.155  10.531  64.643  0.00  0.00    +0.174 C 
BRANCH  26  27
ATOM     27  C   UNL     1      -8.656  10.350  64.845  0.00  0.00    +0.174 C 
BRANCH  27  28
ATOM     28  O   UNL     1      -8.432  10.032  66.188  0.00  0.00    -0.348 OA
BRANCH  28  29
ATOM     29  C   UNL     1      -9.600  10.192  66.945  0.00  0.00    +0.174 C 
BRANCH  29  30
ATOM     30  C   UNL     1      -9.429  11.321  67.931  0.00  0.00    +0.174 C 
BRANCH  30  31
ATOM     31  O   UNL     1      -8.141  11.835  67.827  0.00  0.00    -0.348 OA
BRANCH  31  32
ATOM     32  C   UNL     1      -8.155  13.141  68.300  0.00  0.00    +0.174 C 
BRANCH  32  33
ATOM     33  C   UNL     1      -6.716  13.612  68.463  0.00  0.00    +0.174 C 
BRANCH  33  34
ATOM     34  O   UNL     1      -6.269  13.193  69.702  0.00  0.00    -0.348 OA
BRANCH  34  35
ATOM     35  C   UNL     1      -5.077  13.805  70.044  0.00  0.00    +0.174 C 
BRANCH  35  36
ATOM     36  C   UNL     1      -5.029  14.143  71.507  0.00  0.00    +0.174 C 
BRANCH  36  37
ATOM     37  O   UNL     1      -5.467  13.020  72.217  0.00  0.00    -0.348 OA
BRANCH  37  38
ATOM     38  C   UNL     1      -4.352  12.562  72.936  0.00  0.00    +0.178 C 
BRANCH  38  39
ATOM     39  C   UNL     1      -4.670  12.535  74.426  0.00  0.00    +0.214 C 
ATOM     40  O   UNL     1      -5.908  13.105  74.704  0.00  0.00    -0.218 OA
ENDBRANCH  38  39
ENDBRANCH  37  38
ENDBRANCH  36  37
ENDBRANCH  35  36
ENDBRANCH  34  35
ENDBRANCH  33  34
ENDBRANCH  32  33
ENDBRANCH  31  32
ENDBRANCH  30  31
ENDBRANCH  29  30
ENDBRANCH  28  29
ENDBRANCH  27  28
ENDBRANCH  26  27
ENDBRANCH  25  26
ENDBRANCH  24  25
ENDBRANCH  23  24
ENDBRANCH  22  23
ENDBRANCH  21  22
ENDBRANCH   1  21
TORSDOF 37
ENDMDL
MODEL 8
REMARK VINA RESULT:      -4.2      2.874      8.423
REMARK  Name = 
REMARK  37 active torsions:
REMARK  status: ('A' for Active; 'I' for Inactive)
REMARK    1  A    between atoms: C_2  and  C_3
REMARK    2  A    between atoms: C_3  and  C_4
REMARK    3  A    between atoms: C_4  and  C_5
REMARK    4  A    between atoms: C_5  and  C_6
REMARK    5  A    between atoms: C_6  and  C_7
REMARK    6  A    between atoms: C_7  and  C_8
REMARK    7  A    between atoms: C_8  and  C_9
REMARK    8  A    between atoms: C_9  and  C_10
REMARK    9  A    between atoms: C_10  and  C_11
REMARK   10  A    between atoms: C_11  and  C_12
REMARK   11  A    between atoms: C_12  and  O_13
REMARK   12  A    between atoms: O_13  and  C_14
REMARK   13  A    between atoms: C_14  and  C_15
REMARK   14  A    between atoms: C_15  and  O_16
REMARK   15  A    between atoms: O_16  and  C_17
REMARK   16  A    between atoms: C_17  and  C_18
REMARK   17  A    between atoms: C_18  and  O_19
REMARK   18  A    between atoms: O_19  and  C_20
REMARK   19  A    between atoms: C_20  and  C_21
REMARK   20  A    between atoms: C_21  and  O_22
REMARK   21  A    between atoms: O_22  and  C_23
REMARK   22  A    between atoms: C_23  and  C_24
REMARK   23  A    between atoms: C_24  and  O_25
REMARK   24  A    between atoms: O_25  and  C_26
REMARK   25  A    between atoms: C_26  and  C_27
REMARK   26  A    between atoms: C_27  and  O_28
REMARK   27  A    between atoms: O_28  and  C_29
REMARK   28  A    between atoms: C_29  and  C_30
REMARK   29  A    between atoms: C_30  and  O_31
REMARK   30  A    between atoms: O_31  and  C_32
REMARK   31  A    between atoms: C_32  and  C_33
REMARK   32  A    between atoms: C_33  and  O_34
REMARK   33  A    between atoms: O_34  and  C_35
REMARK   34  A    between atoms: C_35  and  C_36
REMARK   35  A    between atoms: C_36  and  O_37
REMARK   36  A    between atoms: O_37  and  C_38
REMARK   37  A    between atoms: C_38  and  C_39
REMARK                            x       y       z     vdW  Elec       q    Type
REMARK                         _______ _______ _______ _____ _____    ______ ____
ROOT
ATOM      1  C   UNL     1     -13.176  14.783  72.970  0.00  0.00    +0.174 C 
ENDROOT
BRANCH   1   2
ATOM      2  O   UNL     1     -11.987  15.093  72.294  0.00  0.00    -0.348 OA
BRANCH   2   3
ATOM      3  C   UNL     1     -12.358  15.863  71.193  0.00  0.00    +0.174 C 
BRANCH   3   4
ATOM      4  C   UNL     1     -11.187  15.867  70.219  0.00  0.00    +0.174 C 
BRANCH   4   5
ATOM      5  O   UNL     1     -11.649  16.534  69.074  0.00  0.00    -0.348 OA
BRANCH   5   6
ATOM      6  C   UNL     1     -10.582  16.498  68.162  0.00  0.00    +0.174 C 
BRANCH   6   7
ATOM      7  C   UNL     1     -10.533  17.886  67.532  0.00  0.00    +0.174 C 
BRANCH   7   8
ATOM      8  O   UNL     1      -9.187  18.276  67.560  0.00  0.00    -0.351 OA
BRANCH   8   9
ATOM      9  C   UNL     1      -8.499  17.327  66.788  0.00  0.00    +0.142 C 
BRANCH   9  10
ATOM     10  C   UNL     1      -7.346  18.030  66.101  0.00  0.00    +0.032 C 
BRANCH  10  11
ATOM     11  C   UNL     1      -7.738  19.487  65.934  0.00  0.00    +0.003 C 
BRANCH  11  12
ATOM     12  C   UNL     1      -6.522  20.213  65.403  0.00  0.00    +0.000 C 
BRANCH  12  13
ATOM     13  C   UNL     1      -5.352  19.246  65.526  0.00  0.00    +0.000 C 
BRANCH  13  14
ATOM     14  C   UNL     1      -4.154  20.038  66.019  0.00  0.00    +0.000 C 
BRANCH  14  15
ATOM     15  C   UNL     1      -4.674  21.043  67.032  0.00  0.00    +0.000 C 
BRANCH  15  16
ATOM     16  C   UNL     1      -3.915  20.841  68.335  0.00  0.00    +0.000 C 
BRANCH  16  17
ATOM     17  C   UNL     1      -4.938  20.865  69.446  0.00  0.00    +0.000 C 
BRANCH  17  18
ATOM     18  C   UNL     1      -6.157  20.040  69.138  0.00  0.00    +0.000 C 
BRANCH  18  20
ATOM     19  C   UNL     1      -5.226  17.709  69.011  0.00  0.00    +0.000 C 
ATOM     20  C   UNL     1      -6.118  18.667  69.751  0.00  0.00    +0.000 C 
ENDBRANCH  18  20
ENDBRANCH  17  18
ENDBRANCH  16  17
ENDBRANCH  15  16
ENDBRANCH  14  15
ENDBRANCH  13  14
ENDBRANCH  12  13
ENDBRANCH  11  12
ENDBRANCH  10  11
ENDBRANCH   9  10
ENDBRANCH   8   9
ENDBRANCH   7   8
ENDBRANCH   6   7
ENDBRANCH   5   6
ENDBRANCH   4   5
ENDBRANCH   3   4
ENDBRANCH   2   3
ENDBRANCH   1   2
BRANCH   1  21
ATOM     21  C   UNL     1     -13.929  13.759  72.140  0.00  0.00    +0.174 C 
BRANCH  21  22
ATOM     22  O   UNL     1     -13.244  12.545  72.264  0.00  0.00    -0.348 OA
BRANCH  22  23
ATOM     23  C   UNL     1     -12.802  12.086  71.017  0.00  0.00    +0.174 C 
BRANCH  23  24
ATOM     24  C   UNL     1     -12.397  10.624  71.139  0.00  0.00    +0.174 C 
BRANCH  24  25
ATOM     25  O   UNL     1     -13.561   9.877  71.212  0.00  0.00    -0.348 OA
BRANCH  25  26
ATOM     26  C   UNL     1     -13.410   8.946  72.239  0.00  0.00    +0.174 C 
BRANCH  26  27
ATOM     27  C   UNL     1     -12.113   8.176  72.024  0.00  0.00    +0.174 C 
BRANCH  27  28
ATOM     28  O   UNL     1     -12.439   6.887  71.589  0.00  0.00    -0.348 OA
BRANCH  28  29
ATOM     29  C   UNL     1     -11.738   6.557  70.421  0.00  0.00    +0.174 C 
BRANCH  29  30
ATOM     30  C   UNL     1     -10.618   7.542  70.193  0.00  0.00    +0.174 C 
BRANCH  30  31
ATOM     31  O   UNL     1     -10.594   7.913  68.853  0.00  0.00    -0.348 OA
BRANCH  31  32
ATOM     32  C   UNL     1      -9.935   9.131  68.751  0.00  0.00    +0.174 C 
BRANCH  32  33
ATOM     33  C   UNL     1     -10.376   9.815  67.464  0.00  0.00    +0.174 C 
BRANCH  33  34
ATOM     34  O   UNL     1     -10.383  11.179  67.687  0.00  0.00    -0.348 OA
BRANCH  34  35
ATOM     35  C   UNL     1     -11.646  11.714  67.510  0.00  0.00    +0.174 C 
BRANCH  35  36
ATOM     36  C   UNL     1     -11.610  12.935  66.633  0.00  0.00    +0.174 C 
BRANCH  36  37
ATOM     37  O   UNL     1     -12.602  12.786  65.658  0.00  0.00    -0.348 OA
BRANCH  37  38
ATOM     38  C   UNL     1     -11.989  13.106  64.436  0.00  0.00    +0.178 C 
BRANCH  38  39
ATOM     39  C   UNL     1     -12.031  11.902  63.504  0.00  0.00    +0.214 C 
ATOM     40  O   UNL     1     -10.905  11.097  63.642  0.00  0.00    -0.218 OA
ENDBRANCH  38  39
ENDBRANCH  37  38
ENDBRANCH  36  37
ENDBRANCH  35  36
ENDBRANCH  34  35
ENDBRANCH  33  34
ENDBRANCH  32  33
ENDBRANCH  31  32
ENDBRANCH  30  31
ENDBRANCH  29  30
ENDBRANCH  28  29
ENDBRANCH  27  28
ENDBRANCH  26  27
ENDBRANCH  25  26
ENDBRANCH  24  25
ENDBRANCH  23  24
ENDBRANCH  22  23
ENDBRANCH  21  22
ENDBRANCH   1  21
TORSDOF 37
ENDMDL
MODEL 9
REMARK VINA RESULT:      -4.1      3.293      5.784
REMARK  Name = 
REMARK  37 active torsions:
REMARK  status: ('A' for Active; 'I' for Inactive)
REMARK    1  A    between atoms: C_2  and  C_3
REMARK    2  A    between atoms: C_3  and  C_4
REMARK    3  A    between atoms: C_4  and  C_5
REMARK    4  A    between atoms: C_5  and  C_6
REMARK    5  A    between atoms: C_6  and  C_7
REMARK    6  A    between atoms: C_7  and  C_8
REMARK    7  A    between atoms: C_8  and  C_9
REMARK    8  A    between atoms: C_9  and  C_10
REMARK    9  A    between atoms: C_10  and  C_11
REMARK   10  A    between atoms: C_11  and  C_12
REMARK   11  A    between atoms: C_12  and  O_13
REMARK   12  A    between atoms: O_13  and  C_14
REMARK   13  A    between atoms: C_14  and  C_15
REMARK   14  A    between atoms: C_15  and  O_16
REMARK   15  A    between atoms: O_16  and  C_17
REMARK   16  A    between atoms: C_17  and  C_18
REMARK   17  A    between atoms: C_18  and  O_19
REMARK   18  A    between atoms: O_19  and  C_20
REMARK   19  A    between atoms: C_20  and  C_21
REMARK   20  A    between atoms: C_21  and  O_22
REMARK   21  A    between atoms: O_22  and  C_23
REMARK   22  A    between atoms: C_23  and  C_24
REMARK   23  A    between atoms: C_24  and  O_25
REMARK   24  A    between atoms: O_25  and  C_26
REMARK   25  A    between atoms: C_26  and  C_27
REMARK   26  A    between atoms: C_27  and  O_28
REMARK   27  A    between atoms: O_28  and  C_29
REMARK   28  A    between atoms: C_29  and  C_30
REMARK   29  A    between atoms: C_30  and  O_31
REMARK   30  A    between atoms: O_31  and  C_32
REMARK   31  A    between atoms: C_32  and  C_33
REMARK   32  A    between atoms: C_33  and  O_34
REMARK   33  A    between atoms: O_34  and  C_35
REMARK   34  A    between atoms: C_35  and  C_36
REMARK   35  A    between atoms: C_36  and  O_37
REMARK   36  A    between atoms: O_37  and  C_38
REMARK   37  A    between atoms: C_38  and  C_39
REMARK                            x       y       z     vdW  Elec       q    Type
REMARK                         _______ _______ _______ _____ _____    ______ ____
ROOT
ATOM      1  C   UNL     1     -10.890  14.416  68.762  0.00  0.00    +0.174 C 
ENDROOT
BRANCH   1   2
ATOM      2  O   UNL     1     -11.721  15.528  68.961  0.00  0.00    -0.348 OA
BRANCH   2   3
ATOM      3  C   UNL     1     -11.198  16.209  70.059  0.00  0.00    +0.174 C 
BRANCH   3   4
ATOM      4  C   UNL     1     -12.071  15.876  71.263  0.00  0.00    +0.174 C 
BRANCH   4   5
ATOM      5  O   UNL     1     -13.393  15.914  70.793  0.00  0.00    -0.348 OA
BRANCH   5   6
ATOM      6  C   UNL     1     -14.144  15.180  71.726  0.00  0.00    +0.174 C 
BRANCH   6   7
ATOM      7  C   UNL     1     -13.138  14.304  72.464  0.00  0.00    +0.174 C 
BRANCH   7   8
ATOM      8  O   UNL     1     -13.665  13.005  72.441  0.00  0.00    -0.351 OA
BRANCH   8   9
ATOM      9  C   UNL     1     -12.831  12.271  71.583  0.00  0.00    +0.142 C 
BRANCH   9  10
ATOM     10  C   UNL     1     -13.187  10.805  71.727  0.00  0.00    +0.032 C 
BRANCH  10  11
ATOM     11  C   UNL     1     -12.017   9.999  71.188  0.00  0.00    +0.003 C 
BRANCH  11  12
ATOM     12  C   UNL     1     -12.118   8.617  71.792  0.00  0.00    +0.000 C 
BRANCH  12  13
ATOM     13  C   UNL     1     -10.691   8.151  72.051  0.00  0.00    +0.000 C 
BRANCH  13  14
ATOM     14  C   UNL     1     -10.716   7.267  73.286  0.00  0.00    +0.000 C 
BRANCH  14  15
ATOM     15  C   UNL     1     -10.181   5.909  72.869  0.00  0.00    +0.000 C 
BRANCH  15  16
ATOM     16  C   UNL     1     -11.213   4.856  73.247  0.00  0.00    +0.000 C 
BRANCH  16  17
ATOM     17  C   UNL     1     -10.550   3.510  73.072  0.00  0.00    +0.000 C 
BRANCH  17  18
ATOM     18  C   UNL     1     -11.395   2.371  73.571  0.00  0.00    +0.000 C 
BRANCH  18  20
ATOM     19  C   UNL     1      -9.157   1.230  73.645  0.00  0.00    +0.000 C 
ATOM     20  C   UNL     1     -10.589   1.220  74.106  0.00  0.00    +0.000 C 
ENDBRANCH  18  20
ENDBRANCH  17  18
ENDBRANCH  16  17
ENDBRANCH  15  16
ENDBRANCH  14  15
ENDBRANCH  13  14
ENDBRANCH  12  13
ENDBRANCH  11  12
ENDBRANCH  10  11
ENDBRANCH   9  10
ENDBRANCH   8   9
ENDBRANCH   7   8
ENDBRANCH   6   7
ENDBRANCH   5   6
ENDBRANCH   4   5
ENDBRANCH   3   4
ENDBRANCH   2   3
ENDBRANCH   1   2
BRANCH   1  21
ATOM     21  C   UNL     1     -11.704  13.347  68.055  0.00  0.00    +0.174 C 
BRANCH  21  22
ATOM     22  O   UNL     1     -10.798  12.509  67.397  0.00  0.00    -0.348 OA
BRANCH  22  23
ATOM     23  C   UNL     1     -11.346  12.012  66.207  0.00  0.00    +0.174 C 
BRANCH  23  24
ATOM     24  C   UNL     1     -12.277  13.058  65.611  0.00  0.00    +0.174 C 
BRANCH  24  25
ATOM     25  O   UNL     1     -11.652  13.575  64.488  0.00  0.00    -0.348 OA
BRANCH  25  26
ATOM     26  C   UNL     1     -11.641  14.964  64.605  0.00  0.00    +0.174 C 
BRANCH  26  27
ATOM     27  C   UNL     1     -10.317  15.402  65.218  0.00  0.00    +0.174 C 
BRANCH  27  28
ATOM     28  O   UNL     1     -10.343  16.792  65.368  0.00  0.00    -0.348 OA
BRANCH  28  29
ATOM     29  C   UNL     1      -9.611  17.192  66.493  0.00  0.00    +0.174 C 
BRANCH  29  30
ATOM     30  C   UNL     1     -10.280  18.370  67.157  0.00  0.00    +0.174 C 
BRANCH  30  31
ATOM     31  O   UNL     1      -9.429  18.903  68.120  0.00  0.00    -0.348 OA
BRANCH  31  32
ATOM     32  C   UNL     1      -8.160  19.012  67.566  0.00  0.00    +0.174 C 
BRANCH  32  33
ATOM     33  C   UNL     1      -8.007  20.408  66.978  0.00  0.00    +0.174 C 
BRANCH  33  34
ATOM     34  O   UNL     1      -7.092  21.098  67.752  0.00  0.00    -0.348 OA
BRANCH  34  35
ATOM     35  C   UNL     1      -5.796  20.709  67.469  0.00  0.00    +0.174 C 
BRANCH  35  36
ATOM     36  C   UNL     1      -5.030  20.386  68.722  0.00  0.00    +0.174 C 
BRANCH  36  37
ATOM     37  O   UNL     1      -5.275  21.409  69.645  0.00  0.00    -0.348 OA
BRANCH  37  38
ATOM     38  C   UNL     1      -4.348  21.221  70.681  0.00  0.00    +0.178 C 
BRANCH  38  39
ATOM     39  C   UNL     1      -4.854  20.153  71.642  0.00  0.00    +0.214 C 
ATOM     40  O   UNL     1      -6.191  20.342  71.974  0.00  0.00    -0.218 OA
ENDBRANCH  38  39
ENDBRANCH  37  38
ENDBRANCH  36  37
ENDBRANCH  35  36
ENDBRANCH  34  35
ENDBRANCH  33  34
ENDBRANCH  32  33
ENDBRANCH  31  32
ENDBRANCH  30  31
ENDBRANCH  29  30
ENDBRANCH  28  29
ENDBRANCH  27  28
ENDBRANCH  26  27
ENDBRANCH  25  26
ENDBRANCH  24  25
ENDBRANCH  23  24
ENDBRANCH  22  23
ENDBRANCH  21  22
ENDBRANCH   1  21
TORSDOF 37
ENDMDL
