MODEL 1
REMARK VINA RESULT:      -6.1      0.000      0.000
REMARK  Name = 
REMARK  6 active torsions:
REMARK  status: ('A' for Active; 'I' for Inactive)
REMARK    1  A    between atoms: O_2  and  C_3
REMARK    2  A    between atoms: C_3  and  C_5
REMARK    3  A    between atoms: C_11  and  C_12
REMARK    4  A    between atoms: C_12  and  O_14
REMARK    5  A    between atoms: O_14  and  C_15
REMARK    6  A    between atoms: C_18  and  C_19
REMARK                            x       y       z     vdW  Elec       q    Type
REMARK                         _______ _______ _______ _____ _____    ______ ____
ROOT
ATOM      1  C   UNL     1      -8.522  19.047  67.546  0.00  0.00    +0.073 C 
ATOM      2  C   UNL     1      -7.384  20.086  68.115  0.00  0.00    +0.083 C 
ATOM      3  C   UNL     1      -6.275  19.727  66.970  0.00  0.00    +0.073 C 
ATOM      4  C   UNL     1      -6.709  19.601  65.752  0.00  0.00    +0.051 C 
ATOM      5  C   UNL     1      -5.677  19.085  64.792  0.00  0.00    +0.049 C 
ATOM      6  N   UNL     1      -8.074  19.686  65.372  0.00  0.00    -0.221 NA
ATOM      7  C   UNL     1      -9.020  19.556  66.414  0.00  0.00    +0.051 C 
ATOM      8  C   UNL     1     -10.449  19.504  66.045  0.00  0.00    +0.049 C 
ENDROOT
BRANCH   2   9
ATOM      9  C   UNL     1      -6.832  18.970  69.175  0.00  0.00    +0.009 A 
ATOM     10  C   UNL     1      -6.166  19.543  70.255  0.00  0.00    +0.140 A 
ATOM     11  C   UNL     1      -5.377  18.727  71.057  0.00  0.00    +0.143 A 
ATOM     12  N   UNL     1      -4.702  19.547  71.900  0.00  0.00    -0.048 NA
ATOM     13  O   UNL     1      -5.192  20.736  71.763  0.00  0.00    -0.242 OA
ATOM     14  C   UNL     1      -4.957  17.500  70.573  0.00  0.00    +0.024 A 
ATOM     15  C   UNL     1      -5.730  16.946  69.572  0.00  0.00    +0.001 A 
ATOM     16  N   UNL     1      -5.776  20.798  70.592  0.00  0.00    -0.049 NA
ATOM     17  C   UNL     1      -6.251  17.854  68.658  0.00  0.00    -0.002 A 
ENDBRANCH   2   9
BRANCH   1  18
ATOM     18  C   UNL     1      -9.566  18.778  68.552  0.00  0.00    +0.339 C 
ATOM     19  O   UNL     1      -9.872  19.697  69.356  0.00  0.00    -0.245 OA
BRANCH  18  21
ATOM     20  C   UNL     1     -10.810  16.668  68.355  0.00  0.00    +0.256 C 
ATOM     21  O   UNL     1      -9.869  17.484  68.977  0.00  0.00    -0.442 OA
ENDBRANCH  18  21
ENDBRANCH   1  18
BRANCH   3  22
ATOM     22  C   UNL     1      -5.165  20.691  67.110  0.00  0.00    +0.339 C 
ATOM     23  O   UNL     1      -5.439  21.908  66.975  0.00  0.00    -0.245 OA
BRANCH  22  24
ATOM     24  O   UNL     1      -3.965  20.389  67.720  0.00  0.00    -0.449 OA
BRANCH  24  25
ATOM     25  C   UNL     1      -3.139  19.287  67.354  0.00  0.00    +0.169 C 
ATOM     26  C   UNL     1      -2.267  19.727  66.191  0.00  0.00    +0.047 C 
ATOM     27  C   UNL     1      -2.295  18.940  68.574  0.00  0.00    +0.047 C 
ENDBRANCH  24  25
ENDBRANCH  22  24
ENDBRANCH   3  22
TORSDOF 6
ENDMDL
MODEL 2
REMARK VINA RESULT:      -5.8      5.420      8.401
REMARK  Name = 
REMARK  6 active torsions:
REMARK  status: ('A' for Active; 'I' for Inactive)
REMARK    1  A    between atoms: O_2  and  C_3
REMARK    2  A    between atoms: C_3  and  C_5
REMARK    3  A    between atoms: C_11  and  C_12
REMARK    4  A    between atoms: C_12  and  O_14
REMARK    5  A    between atoms: O_14  and  C_15
REMARK    6  A    between atoms: C_18  and  C_19
REMARK                            x       y       z     vdW  Elec       q    Type
REMARK                         _______ _______ _______ _____ _____    ______ ____
ROOT
ATOM      1  C   UNL     1     -11.709  13.810  70.142  0.00  0.00    +0.073 C 
ATOM      2  C   UNL     1     -11.784  13.737  68.503  0.00  0.00    +0.083 C 
ATOM      3  C   UNL     1     -10.913  12.360  68.379  0.00  0.00    +0.073 C 
ATOM      4  C   UNL     1     -11.177  11.420  69.236  0.00  0.00    +0.051 C 
ATOM      5  C   UNL     1     -10.215  10.268  69.187  0.00  0.00    +0.049 C 
ATOM      6  N   UNL     1     -12.110  11.541  70.299  0.00  0.00    -0.221 NA
ATOM      7  C   UNL     1     -12.504  12.855  70.637  0.00  0.00    +0.051 C 
ATOM      8  C   UNL     1     -13.368  13.032  71.821  0.00  0.00    +0.049 C 
ENDROOT
BRANCH   2   9
ATOM      9  C   UNL     1     -10.484  14.718  68.356  0.00  0.00    +0.009 A 
ATOM     10  C   UNL     1     -10.457  15.389  67.136  0.00  0.00    +0.140 A 
ATOM     11  C   UNL     1      -9.272  16.000  66.741  0.00  0.00    +0.143 A 
ATOM     12  N   UNL     1      -9.454  16.407  65.461  0.00  0.00    -0.048 NA
ATOM     13  O   UNL     1     -10.704  16.245  65.174  0.00  0.00    -0.242 OA
ATOM     14  C   UNL     1      -8.080  15.619  67.334  0.00  0.00    +0.024 A 
ATOM     15  C   UNL     1      -8.181  15.053  68.589  0.00  0.00    +0.001 A 
ATOM     16  N   UNL     1     -11.194  15.353  65.999  0.00  0.00    -0.049 NA
ATOM     17  C   UNL     1      -9.286  14.232  68.780  0.00  0.00    -0.002 A 
ENDBRANCH   2   9
BRANCH   1  18
ATOM     18  C   UNL     1     -12.057  15.151  70.644  0.00  0.00    +0.339 C 
ATOM     19  O   UNL     1     -12.634  15.951  69.862  0.00  0.00    -0.245 OA
BRANCH  18  21
ATOM     20  C   UNL     1     -12.016  16.273  72.830  0.00  0.00    +0.256 C 
ATOM     21  O   UNL     1     -11.380  15.741  71.712  0.00  0.00    -0.442 OA
ENDBRANCH  18  21
ENDBRANCH   1  18
BRANCH   3  22
ATOM     22  C   UNL     1     -10.980  11.918  66.971  0.00  0.00    +0.339 C 
ATOM     23  O   UNL     1     -12.100  11.964  66.406  0.00  0.00    -0.245 OA
BRANCH  22  24
ATOM     24  O   UNL     1      -9.877  11.810  66.152  0.00  0.00    -0.449 OA
BRANCH  24  25
ATOM     25  C   UNL     1      -9.431  10.587  65.571  0.00  0.00    +0.169 C 
ATOM     26  C   UNL     1      -9.787  10.619  64.094  0.00  0.00    +0.047 C 
ATOM     27  C   UNL     1      -7.921  10.523  65.772  0.00  0.00    +0.047 C 
ENDBRANCH  24  25
ENDBRANCH  22  24
ENDBRANCH   3  22
TORSDOF 6
ENDMDL
MODEL 3
REMARK VINA RESULT:      -5.5      6.890      9.600
REMARK  Name = 
REMARK  6 active torsions:
REMARK  status: ('A' for Active; 'I' for Inactive)
REMARK    1  A    between atoms: O_2  and  C_3
REMARK    2  A    between atoms: C_3  and  C_5
REMARK    3  A    between atoms: C_11  and  C_12
REMARK    4  A    between atoms: C_12  and  O_14
REMARK    5  A    between atoms: O_14  and  C_15
REMARK    6  A    between atoms: C_18  and  C_19
REMARK                            x       y       z     vdW  Elec       q    Type
REMARK                         _______ _______ _______ _____ _____    ______ ____
ROOT
ATOM      1  C   UNL     1      -9.496  11.122  67.636  0.00  0.00    +0.073 C 
ATOM      2  C   UNL     1      -9.836  12.685  68.008  0.00  0.00    +0.083 C 
ATOM      3  C   UNL     1     -11.277  12.359  68.705  0.00  0.00    +0.073 C 
ATOM      4  C   UNL     1     -11.331  11.319  69.482  0.00  0.00    +0.051 C 
ATOM      5  C   UNL     1     -12.721  10.969  69.930  0.00  0.00    +0.049 C 
ATOM      6  N   UNL     1     -10.251  10.425  69.705  0.00  0.00    -0.221 NA
ATOM      7  C   UNL     1      -9.193  10.482  68.771  0.00  0.00    +0.051 C 
ATOM      8  C   UNL     1      -8.114   9.479  68.889  0.00  0.00    +0.049 C 
ENDROOT
BRANCH   2   9
ATOM      9  C   UNL     1     -10.472  12.946  66.525  0.00  0.00    +0.009 A 
ATOM     10  C   UNL     1     -10.236  14.237  66.061  0.00  0.00    +0.140 A 
ATOM     11  C   UNL     1     -10.974  14.700  64.979  0.00  0.00    +0.143 A 
ATOM     12  N   UNL     1     -10.695  16.021  64.854  0.00  0.00    -0.048 NA
ATOM     13  O   UNL     1      -9.717  16.289  65.656  0.00  0.00    -0.242 OA
ATOM     14  C   UNL     1     -12.156  14.062  64.640  0.00  0.00    +0.024 A 
ATOM     15  C   UNL     1     -12.273  12.748  65.046  0.00  0.00    +0.001 A 
ATOM     16  N   UNL     1      -9.691  15.365  66.583  0.00  0.00    -0.049 NA
ATOM     17  C   UNL     1     -11.722  12.462  66.289  0.00  0.00    -0.002 A 
ENDBRANCH   2   9
BRANCH   1  18
ATOM     18  C   UNL     1      -8.426  11.023  66.628  0.00  0.00    +0.339 C 
ATOM     19  O   UNL     1      -7.457  11.824  66.702  0.00  0.00    -0.245 OA
BRANCH  18  21
ATOM     20  C   UNL     1      -9.153   9.182  65.171  0.00  0.00    +0.256 C 
ATOM     21  O   UNL     1      -8.644  10.462  65.368  0.00  0.00    -0.442 OA
ENDBRANCH  18  21
ENDBRANCH   1  18
BRANCH   3  22
ATOM     22  C   UNL     1     -11.756  13.603  69.340  0.00  0.00    +0.339 C 
ATOM     23  O   UNL     1     -12.491  14.353  68.654  0.00  0.00    -0.245 OA
BRANCH  22  24
ATOM     24  O   UNL     1     -11.754  13.813  70.702  0.00  0.00    -0.449 OA
BRANCH  24  25
ATOM     25  C   UNL     1     -12.724  14.599  71.389  0.00  0.00    +0.169 C 
ATOM     26  C   UNL     1     -13.455  13.689  72.361  0.00  0.00    +0.047 C 
ATOM     27  C   UNL     1     -11.966  15.696  72.128  0.00  0.00    +0.047 C 
ENDBRANCH  24  25
ENDBRANCH  22  24
ENDBRANCH   3  22
TORSDOF 6
ENDMDL
MODEL 4
REMARK VINA RESULT:      -5.5      4.090      7.114
REMARK  Name = 
REMARK  6 active torsions:
REMARK  status: ('A' for Active; 'I' for Inactive)
REMARK    1  A    between atoms: O_2  and  C_3
REMARK    2  A    between atoms: C_3  and  C_5
REMARK    3  A    between atoms: C_11  and  C_12
REMARK    4  A    between atoms: C_12  and  O_14
REMARK    5  A    between atoms: O_14  and  C_15
REMARK    6  A    between atoms: C_18  and  C_19
REMARK                            x       y       z     vdW  Elec       q    Type
REMARK                         _______ _______ _______ _____ _____    ______ ____
ROOT
ATOM      1  C   UNL     1     -10.996  14.371  69.673  0.00  0.00    +0.073 C 
ATOM      2  C   UNL     1     -11.052  15.158  68.232  0.00  0.00    +0.083 C 
ATOM      3  C   UNL     1      -9.906  14.236  67.519  0.00  0.00    +0.073 C 
ATOM      4  C   UNL     1      -9.963  12.956  67.737  0.00  0.00    +0.051 C 
ATOM      5  C   UNL     1      -8.777  12.200  67.214  0.00  0.00    +0.049 C 
ATOM      6  N   UNL     1     -10.901  12.329  68.597  0.00  0.00    -0.221 NA
ATOM      7  C   UNL     1     -11.568  13.172  69.513  0.00  0.00    +0.051 C 
ATOM      8  C   UNL     1     -12.451  12.541  70.515  0.00  0.00    +0.049 C 
ENDROOT
BRANCH   2   9
ATOM      9  C   UNL     1      -9.992  16.286  68.757  0.00  0.00    +0.009 A 
ATOM     10  C   UNL     1     -10.298  17.563  68.294  0.00  0.00    +0.140 A 
ATOM     11  C   UNL     1      -9.328  18.555  68.389  0.00  0.00    +0.143 A 
ATOM     12  N   UNL     1      -9.800  19.627  67.707  0.00  0.00    -0.048 NA
ATOM     13  O   UNL     1     -11.033  19.382  67.402  0.00  0.00    -0.242 OA
ATOM     14  C   UNL     1      -8.003  18.194  68.561  0.00  0.00    +0.024 A 
ATOM     15  C   UNL     1      -7.780  16.953  69.124  0.00  0.00    +0.001 A 
ATOM     16  N   UNL     1     -11.205  18.084  67.431  0.00  0.00    -0.049 NA
ATOM     17  C   UNL     1      -8.671  15.960  68.734  0.00  0.00    -0.002 A 
ENDBRANCH   2   9
BRANCH   1  18
ATOM     18  C   UNL     1     -11.624  15.159  70.748  0.00  0.00    +0.339 C 
ATOM     19  O   UNL     1     -11.164  15.049  71.915  0.00  0.00    -0.245 OA
BRANCH  18  21
ATOM     20  C   UNL     1     -13.875  15.467  71.684  0.00  0.00    +0.256 C 
ATOM     21  O   UNL     1     -12.940  15.613  70.663  0.00  0.00    -0.442 OA
ENDBRANCH  18  21
ENDBRANCH   1  18
BRANCH   3  22
ATOM     22  C   UNL     1      -9.875  14.596  66.087  0.00  0.00    +0.339 C 
ATOM     23  O   UNL     1      -9.067  15.489  65.735  0.00  0.00    -0.245 OA
BRANCH  22  24
ATOM     24  O   UNL     1     -10.389  13.796  65.088  0.00  0.00    -0.449 OA
BRANCH  24  25
ATOM     25  C   UNL     1     -11.779  13.682  64.793  0.00  0.00    +0.169 C 
ATOM     26  C   UNL     1     -12.290  15.065  64.427  0.00  0.00    +0.047 C 
ATOM     27  C   UNL     1     -11.906  12.720  63.617  0.00  0.00    +0.047 C 
ENDBRANCH  24  25
ENDBRANCH  22  24
ENDBRANCH   3  22
TORSDOF 6
ENDMDL
MODEL 5
REMARK VINA RESULT:      -5.3      3.186      5.440
REMARK  Name = 
REMARK  6 active torsions:
REMARK  status: ('A' for Active; 'I' for Inactive)
REMARK    1  A    between atoms: O_2  and  C_3
REMARK    2  A    between atoms: C_3  and  C_5
REMARK    3  A    between atoms: C_11  and  C_12
REMARK    4  A    between atoms: C_12  and  O_14
REMARK    5  A    between atoms: O_14  and  C_15
REMARK    6  A    between atoms: C_18  and  C_19
REMARK                            x       y       z     vdW  Elec       q    Type
REMARK                         _______ _______ _______ _____ _____    ______ ____
ROOT
ATOM      1  C   UNL     1      -9.123  14.300  67.192  0.00  0.00    +0.073 C 
ATOM      2  C   UNL     1      -7.987  15.388  66.721  0.00  0.00    +0.083 C 
ATOM      3  C   UNL     1      -7.176  15.375  68.140  0.00  0.00    +0.073 C 
ATOM      4  C   UNL     1      -6.995  14.217  68.702  0.00  0.00    +0.051 C 
ATOM      5  C   UNL     1      -6.418  14.298  70.085  0.00  0.00    +0.049 C 
ATOM      6  N   UNL     1      -7.508  12.992  68.200  0.00  0.00    -0.221 NA
ATOM      7  C   UNL     1      -8.546  13.094  67.247  0.00  0.00    +0.051 C 
ATOM      8  C   UNL     1      -9.198  11.846  66.802  0.00  0.00    +0.049 C 
ENDROOT
BRANCH   2   9
ATOM      9  C   UNL     1      -8.950  16.641  67.141  0.00  0.00    +0.009 A 
ATOM     10  C   UNL     1      -8.592  17.826  66.504  0.00  0.00    +0.140 A 
ATOM     11  C   UNL     1      -9.103  19.023  66.992  0.00  0.00    +0.143 A 
ATOM     12  N   UNL     1      -8.463  20.018  66.330  0.00  0.00    -0.048 NA
ATOM     13  O   UNL     1      -7.777  19.473  65.378  0.00  0.00    -0.242 OA
ATOM     14  C   UNL     1      -9.610  19.071  68.279  0.00  0.00    +0.024 A 
ATOM     15  C   UNL     1     -10.041  17.869  68.806  0.00  0.00    +0.001 A 
ATOM     16  N   UNL     1      -7.578  18.218  65.693  0.00  0.00    -0.049 NA
ATOM     17  C   UNL     1      -9.275  16.763  68.457  0.00  0.00    -0.002 A 
ENDBRANCH   2   9
BRANCH   1  18
ATOM     18  C   UNL     1     -10.300  14.323  66.305  0.00  0.00    +0.339 C 
ATOM     19  O   UNL     1     -10.137  14.664  65.105  0.00  0.00    -0.245 OA
BRANCH  18  21
ATOM     20  C   UNL     1     -11.953  14.216  68.120  0.00  0.00    +0.256 C 
ATOM     21  O   UNL     1     -11.597  14.468  66.798  0.00  0.00    -0.442 OA
ENDBRANCH  18  21
ENDBRANCH   1  18
BRANCH   3  22
ATOM     22  C   UNL     1      -5.932  16.146  67.948  0.00  0.00    +0.339 C 
ATOM     23  O   UNL     1      -5.100  15.699  67.121  0.00  0.00    -0.245 OA
BRANCH  22  24
ATOM     24  O   UNL     1      -5.785  17.464  68.324  0.00  0.00    -0.449 OA
BRANCH  24  25
ATOM     25  C   UNL     1      -6.099  17.963  69.622  0.00  0.00    +0.169 C 
ATOM     26  C   UNL     1      -4.938  17.625  70.542  0.00  0.00    +0.047 C 
ATOM     27  C   UNL     1      -6.274  19.471  69.488  0.00  0.00    +0.047 C 
ENDBRANCH  24  25
ENDBRANCH  22  24
ENDBRANCH   3  22
TORSDOF 6
ENDMDL
MODEL 6
REMARK VINA RESULT:      -5.2      7.633     10.056
REMARK  Name = 
REMARK  6 active torsions:
REMARK  status: ('A' for Active; 'I' for Inactive)
REMARK    1  A    between atoms: O_2  and  C_3
REMARK    2  A    between atoms: C_3  and  C_5
REMARK    3  A    between atoms: C_11  and  C_12
REMARK    4  A    between atoms: C_12  and  O_14
REMARK    5  A    between atoms: O_14  and  C_15
REMARK    6  A    between atoms: C_18  and  C_19
REMARK                            x       y       z     vdW  Elec       q    Type
REMARK                         _______ _______ _______ _____ _____    ______ ____
ROOT
ATOM      1  C   UNL     1     -10.488  11.002  68.982  0.00  0.00    +0.073 C 
ATOM      2  C   UNL     1     -10.698  10.639  67.394  0.00  0.00    +0.083 C 
ATOM      3  C   UNL     1      -9.109  10.417  67.085  0.00  0.00    +0.073 C 
ATOM      4  C   UNL     1      -8.423   9.762  67.974  0.00  0.00    +0.051 C 
ATOM      5  C   UNL     1      -6.944   9.764  67.720  0.00  0.00    +0.049 C 
ATOM      6  N   UNL     1      -8.948   9.296  69.208  0.00  0.00    -0.221 NA
ATOM      7  C   UNL     1     -10.166   9.875  69.626  0.00  0.00    +0.051 C 
ATOM      8  C   UNL     1     -10.676   9.518  70.966  0.00  0.00    +0.049 C 
ENDROOT
BRANCH   2   9
ATOM      9  C   UNL     1     -10.683  12.222  66.984  0.00  0.00    +0.009 A 
ATOM     10  C   UNL     1     -11.579  12.517  65.960  0.00  0.00    +0.140 A 
ATOM     11  C   UNL     1     -11.452  13.732  65.297  0.00  0.00    +0.143 A 
ATOM     12  N   UNL     1     -12.303  13.690  64.242  0.00  0.00    -0.048 NA
ATOM     13  O   UNL     1     -13.032  12.630  64.373  0.00  0.00    -0.242 OA
ATOM     14  C   UNL     1     -10.259  14.429  65.377  0.00  0.00    +0.024 A 
ATOM     15  C   UNL     1      -9.470  14.157  66.478  0.00  0.00    +0.001 A 
ATOM     16  N   UNL     1     -12.391  11.793  65.151  0.00  0.00    -0.049 NA
ATOM     17  C   UNL     1      -9.468  12.829  66.889  0.00  0.00    -0.002 A 
ENDBRANCH   2   9
BRANCH   1  18
ATOM     18  C   UNL     1     -11.678  11.660  69.552  0.00  0.00    +0.339 C 
ATOM     19  O   UNL     1     -12.811  11.180  69.287  0.00  0.00    -0.245 OA
BRANCH  18  21
ATOM     20  C   UNL     1     -12.494  13.525  70.928  0.00  0.00    +0.256 C 
ATOM     21  O   UNL     1     -11.670  13.002  69.935  0.00  0.00    -0.442 OA
ENDBRANCH  18  21
ENDBRANCH   1  18
BRANCH   3  22
ATOM     22  C   UNL     1      -8.995   9.865  65.720  0.00  0.00    +0.339 C 
ATOM     23  O   UNL     1      -9.737   8.896  65.428  0.00  0.00    -0.245 OA
BRANCH  22  24
ATOM     24  O   UNL     1      -8.419  10.544  64.667  0.00  0.00    -0.449 OA
BRANCH  24  25
ATOM     25  C   UNL     1      -8.759  10.332  63.300  0.00  0.00    +0.169 C 
ATOM     26  C   UNL     1      -9.688  11.456  62.874  0.00  0.00    +0.047 C 
ATOM     27  C   UNL     1      -7.457  10.365  62.507  0.00  0.00    +0.047 C 
ENDBRANCH  24  25
ENDBRANCH  22  24
ENDBRANCH   3  22
TORSDOF 6
ENDMDL
MODEL 7
REMARK VINA RESULT:      -5.2      6.255      9.149
REMARK  Name = 
REMARK  6 active torsions:
REMARK  status: ('A' for Active; 'I' for Inactive)
REMARK    1  A    between atoms: O_2  and  C_3
REMARK    2  A    between atoms: C_3  and  C_5
REMARK    3  A    between atoms: C_11  and  C_12
REMARK    4  A    between atoms: C_12  and  O_14
REMARK    5  A    between atoms: O_14  and  C_15
REMARK    6  A    between atoms: C_18  and  C_19
REMARK                            x       y       z     vdW  Elec       q    Type
REMARK                         _______ _______ _______ _____ _____    ______ ____
ROOT
ATOM      1  C   UNL     1     -10.140  10.050  68.145  0.00  0.00    +0.073 C 
ATOM      2  C   UNL     1     -11.105  11.275  67.631  0.00  0.00    +0.083 C 
ATOM      3  C   UNL     1     -10.380  11.428  66.174  0.00  0.00    +0.073 C 
ATOM      4  C   UNL     1     -10.076  10.329  65.550  0.00  0.00    +0.051 C 
ATOM      5  C   UNL     1      -9.245  10.542  64.319  0.00  0.00    +0.049 C 
ATOM      6  N   UNL     1     -10.270   9.026  66.079  0.00  0.00    -0.221 NA
ATOM      7  C   UNL     1     -10.478   8.944  67.474  0.00  0.00    +0.051 C 
ATOM      8  C   UNL     1     -10.550   7.600  68.082  0.00  0.00    +0.049 C 
ENDROOT
BRANCH   2   9
ATOM      9  C   UNL     1     -10.156  12.388  68.359  0.00  0.00    +0.009 A 
ATOM     10  C   UNL     1     -10.870  13.507  68.779  0.00  0.00    +0.140 A 
ATOM     11  C   UNL     1     -10.166  14.656  69.119  0.00  0.00    +0.143 A 
ATOM     12  N   UNL     1     -11.085  15.635  69.302  0.00  0.00    -0.048 NA
ATOM     13  O   UNL     1     -12.254  15.082  69.281  0.00  0.00    -0.242 OA
ATOM     14  C   UNL     1      -8.862  14.809  68.679  0.00  0.00    +0.024 A 
ATOM     15  C   UNL     1      -8.183  13.644  68.380  0.00  0.00    +0.001 A 
ATOM     16  N   UNL     1     -12.147  13.943  68.642  0.00  0.00    -0.049 NA
ATOM     17  C   UNL     1      -8.949  12.650  67.785  0.00  0.00    -0.002 A 
ENDBRANCH   2   9
BRANCH   1  18
ATOM     18  C   UNL     1     -10.219   9.871  69.606  0.00  0.00    +0.339 C 
ATOM     19  O   UNL     1      -9.169   9.566  70.229  0.00  0.00    -0.245 OA
BRANCH  18  21
ATOM     20  C   UNL     1     -12.101  10.412  71.091  0.00  0.00    +0.256 C 
ATOM     21  O   UNL     1     -11.413   9.543  70.249  0.00  0.00    -0.442 OA
ENDBRANCH  18  21
ENDBRANCH   1  18
BRANCH   3  22
ATOM     22  C   UNL     1     -11.192  12.364  65.371  0.00  0.00    +0.339 C 
ATOM     23  O   UNL     1     -12.435  12.192  65.368  0.00  0.00    -0.245 OA
BRANCH  22  24
ATOM     24  O   UNL     1     -10.735  13.590  64.934  0.00  0.00    -0.449 OA
BRANCH  24  25
ATOM     25  C   UNL     1     -11.284  14.839  65.346  0.00  0.00    +0.169 C 
ATOM     26  C   UNL     1     -10.137  15.822  65.501  0.00  0.00    +0.047 C 
ATOM     27  C   UNL     1     -12.246  15.285  64.249  0.00  0.00    +0.047 C 
ENDBRANCH  24  25
ENDBRANCH  22  24
ENDBRANCH   3  22
TORSDOF 6
ENDMDL
MODEL 8
REMARK VINA RESULT:      -5.2      4.345      7.402
REMARK  Name = 
REMARK  6 active torsions:
REMARK  status: ('A' for Active; 'I' for Inactive)
REMARK    1  A    between atoms: O_2  and  C_3
REMARK    2  A    between atoms: C_3  and  C_5
REMARK    3  A    between atoms: C_11  and  C_12
REMARK    4  A    between atoms: C_12  and  O_14
REMARK    5  A    between atoms: O_14  and  C_15
REMARK    6  A    between atoms: C_18  and  C_19
REMARK                            x       y       z     vdW  Elec       q    Type
REMARK                         _______ _______ _______ _____ _____    ______ ____
ROOT
ATOM      1  C   UNL     1     -11.724  15.026  69.363  0.00  0.00    +0.073 C 
ATOM      2  C   UNL     1     -10.427  14.530  68.486  0.00  0.00    +0.083 C 
ATOM      3  C   UNL     1     -10.330  15.892  67.588  0.00  0.00    +0.073 C 
ATOM      4  C   UNL     1     -10.493  17.020  68.213  0.00  0.00    +0.051 C 
ATOM      5  C   UNL     1     -10.583  18.210  67.302  0.00  0.00    +0.049 C 
ATOM      6  N   UNL     1     -10.812  17.136  69.591  0.00  0.00    -0.221 NA
ATOM      7  C   UNL     1     -11.313  15.971  70.215  0.00  0.00    +0.051 C 
ATOM      8  C   UNL     1     -11.783  16.085  71.610  0.00  0.00    +0.049 C 
ENDROOT
BRANCH   2   9
ATOM      9  C   UNL     1     -11.390  13.749  67.421  0.00  0.00    +0.009 A 
ATOM     10  C   UNL     1     -10.797  12.598  66.908  0.00  0.00    +0.140 A 
ATOM     11  C   UNL     1     -11.349  12.015  65.774  0.00  0.00    +0.143 A 
ATOM     12  N   UNL     1     -10.489  11.044  65.378  0.00  0.00    -0.048 NA
ATOM     13  O   UNL     1      -9.599  10.911  66.307  0.00  0.00    -0.242 OA
ATOM     14  C   UNL     1     -12.193  12.761  64.968  0.00  0.00    +0.024 A 
ATOM     15  C   UNL     1     -12.826  13.826  65.576  0.00  0.00    +0.001 A 
ATOM     16  N   UNL     1      -9.574  12.020  67.002  0.00  0.00    -0.049 NA
ATOM     17  C   UNL     1     -12.063  14.510  66.515  0.00  0.00    -0.002 A 
ENDBRANCH   2   9
BRANCH   1  18
ATOM     18  C   UNL     1     -12.384  13.898  70.045  0.00  0.00    +0.339 C 
ATOM     19  O   UNL     1     -13.471  14.114  70.642  0.00  0.00    -0.245 OA
BRANCH  18  21
ATOM     20  C   UNL     1     -12.164  11.476  70.396  0.00  0.00    +0.256 C 
ATOM     21  O   UNL     1     -11.675  12.777  70.478  0.00  0.00    -0.442 OA
ENDBRANCH  18  21
ENDBRANCH   1  18
BRANCH   3  22
ATOM     22  C   UNL     1      -9.079  15.819  66.806  0.00  0.00    +0.339 C 
ATOM     23  O   UNL     1      -9.156  16.055  65.576  0.00  0.00    -0.245 OA
BRANCH  22  24
ATOM     24  O   UNL     1      -7.823  15.870  67.370  0.00  0.00    -0.449 OA
BRANCH  24  25
ATOM     25  C   UNL     1      -7.073  17.070  67.543  0.00  0.00    +0.169 C 
ATOM     26  C   UNL     1      -6.828  17.254  69.030  0.00  0.00    +0.047 C 
ATOM     27  C   UNL     1      -5.762  16.888  66.787  0.00  0.00    +0.047 C 
ENDBRANCH  24  25
ENDBRANCH  22  24
ENDBRANCH   3  22
TORSDOF 6
ENDMDL
MODEL 9
REMARK VINA RESULT:      -5.1      7.660     10.113
REMARK  Name = 
REMARK  6 active torsions:
REMARK  status: ('A' for Active; 'I' for Inactive)
REMARK    1  A    between atoms: O_2  and  C_3
REMARK    2  A    between atoms: C_3  and  C_5
REMARK    3  A    between atoms: C_11  and  C_12
REMARK    4  A    between atoms: C_12  and  O_14
REMARK    5  A    between atoms: O_14  and  C_15
REMARK    6  A    between atoms: C_18  and  C_19
REMARK                            x       y       z     vdW  Elec       q    Type
REMARK                         _______ _______ _______ _____ _____    ______ ____
ROOT
ATOM      1  C   UNL     1     -10.870  10.945  69.426  0.00  0.00    +0.073 C 
ATOM      2  C   UNL     1     -11.115  10.844  67.805  0.00  0.00    +0.083 C 
ATOM      3  C   UNL     1      -9.531  10.944  67.413  0.00  0.00    +0.073 C 
ATOM      4  C   UNL     1      -8.701  10.261  68.144  0.00  0.00    +0.051 C 
ATOM      5  C   UNL     1      -7.258  10.549  67.851  0.00  0.00    +0.049 C 
ATOM      6  N   UNL     1      -9.073   9.501  69.284  0.00  0.00    -0.221 NA
ATOM      7  C   UNL     1     -10.340   9.789  69.839  0.00  0.00    +0.051 C 
ATOM      8  C   UNL     1     -10.707   9.118  71.102  0.00  0.00    +0.049 C 
ENDROOT
BRANCH   2   9
ATOM      9  C   UNL     1     -11.369  12.455  67.698  0.00  0.00    +0.009 A 
ATOM     10  C   UNL     1     -12.060  12.811  66.543  0.00  0.00    +0.140 A 
ATOM     11  C   UNL     1     -12.069  14.148  66.160  0.00  0.00    +0.143 A 
ATOM     12  N   UNL     1     -12.633  14.195  64.928  0.00  0.00    -0.048 NA
ATOM     13  O   UNL     1     -13.112  13.021  64.674  0.00  0.00    -0.242 OA
ATOM     14  C   UNL     1     -11.113  15.008  66.673  0.00  0.00    +0.024 A 
ATOM     15  C   UNL     1     -10.547  14.638  67.876  0.00  0.00    +0.001 A 
ATOM     16  N   UNL     1     -12.486  12.158  65.434  0.00  0.00    -0.049 NA
ATOM     17  C   UNL     1     -10.335  13.273  68.034  0.00  0.00    -0.002 A 
ENDBRANCH   2   9
BRANCH   1  18
ATOM     18  C   UNL     1     -12.111  11.286  70.144  0.00  0.00    +0.339 C 
ATOM     19  O   UNL     1     -13.180  10.724  69.790  0.00  0.00    -0.245 OA
BRANCH  18  21
ATOM     20  C   UNL     1     -13.206  12.702  71.828  0.00  0.00    +0.256 C 
ATOM     21  O   UNL     1     -12.267  12.496  70.821  0.00  0.00    -0.442 OA
ENDBRANCH  18  21
ENDBRANCH   1  18
BRANCH   3  22
ATOM     22  C   UNL     1      -9.414  10.672  65.966  0.00  0.00    +0.339 C 
ATOM     23  O   UNL     1      -8.992  11.602  65.238  0.00  0.00    -0.245 OA
BRANCH  22  24
ATOM     24  O   UNL     1      -9.388   9.402  65.428  0.00  0.00    -0.449 OA
BRANCH  24  25
ATOM     25  C   UNL     1      -8.262   8.845  64.754  0.00  0.00    +0.169 C 
ATOM     26  C   UNL     1      -8.072   7.427  65.263  0.00  0.00    +0.047 C 
ATOM     27  C   UNL     1      -8.586   8.857  63.264  0.00  0.00    +0.047 C 
ENDBRANCH  24  25
ENDBRANCH  22  24
ENDBRANCH   3  22
TORSDOF 6
ENDMDL
