MODEL 1
REMARK VINA RESULT:      -6.2      0.000      0.000
REMARK  Name = 
REMARK  8 active torsions:
REMARK  status: ('A' for Active; 'I' for Inactive)
REMARK    1  A    between atoms: C_2  and  N_4
REMARK    2  A    between atoms: N_4  and  C_5
REMARK    3  A    between atoms: N_4  and  C_23
REMARK    4  A    between atoms: C_5  and  C_6
REMARK    5  A    between atoms: C_6  and  C_7
REMARK    6  A    between atoms: C_7  and  C_8
REMARK    7  A    between atoms: C_7  and  C_11
REMARK    8  A    between atoms: C_7  and  C_17
REMARK                            x       y       z     vdW  Elec       q    Type
REMARK                         _______ _______ _______ _____ _____    ______ ____
ROOT
ATOM      1  C   UNL     1     -11.094  13.390  65.297  0.00  0.00    +0.127 C 
ENDROOT
BRANCH   1   2
ATOM      2  C   UNL     1     -11.552  13.307  66.689  0.00  0.00    -0.009 A 
ATOM      3  C   UNL     1     -12.070  14.337  67.425  0.00  0.00    -0.003 A 
ATOM      4  C   UNL     1     -11.848  14.323  68.797  0.00  0.00    -0.000 A 
ATOM      5  C   UNL     1     -11.687  13.130  69.457  0.00  0.00    -0.000 A 
ATOM      6  C   UNL     1     -11.624  11.987  68.699  0.00  0.00    -0.000 A 
ATOM      7  C   UNL     1     -11.523  12.067  67.316  0.00  0.00    -0.003 A 
ENDBRANCH   1   2
BRANCH   1   8
ATOM      8  C   UNL     1     -10.257  12.257  64.860  0.00  0.00    +0.070 A 
ATOM      9  N   UNL     1     -10.277  11.994  63.530  0.00  0.00    -0.247 NA
ATOM     10  C   UNL     1      -9.543  11.025  62.982  0.00  0.00    +0.098 A 
ATOM     11  C   UNL     1      -8.601  10.410  63.763  0.00  0.00    +0.021 A 
ATOM     12  C   UNL     1      -8.681  10.500  65.128  0.00  0.00    +0.003 A 
ATOM     13  C   UNL     1      -9.408  11.545  65.660  0.00  0.00    +0.016 A 
ENDBRANCH   1   8
BRANCH   1  14
ATOM     14  C   UNL     1     -12.303  13.376  64.412  0.00  0.00    +0.269 C 
ATOM     15  O   UNL     1     -13.193  12.538  64.714  0.00  0.00    -0.271 OA
ATOM     16  N   UNL     1     -12.698  14.603  63.834  0.00  0.00    -0.087 NA
ENDBRANCH   1  14
BRANCH   1  17
ATOM     17  C   UNL     1     -10.388  14.687  65.031  0.00  0.00    +0.036 C 
BRANCH  17  18
ATOM     18  C   UNL     1      -9.336  15.032  66.032  0.00  0.00    +0.073 C 
BRANCH  18  19
ATOM     19  N   UNL     1      -8.949  16.409  66.058  0.00  0.00    -0.275 NA
BRANCH  19  20
ATOM     20  C   UNL     1      -7.759  16.709  66.784  0.00  0.00    +0.058 C 
ATOM     21  C   UNL     1      -7.003  15.539  67.311  0.00  0.00    +0.017 C 
ATOM     22  C   UNL     1      -6.863  17.596  65.965  0.00  0.00    +0.017 C 
ENDBRANCH  19  20
BRANCH  19  24
ATOM     23  C   UNL     1     -10.265  18.256  66.172  0.00  0.00    +0.017 C 
ATOM     24  C   UNL     1     -10.033  17.129  66.729  0.00  0.00    +0.058 C 
ATOM     25  C   UNL     1      -9.683  17.333  68.192  0.00  0.00    +0.017 C 
ENDBRANCH  19  24
ENDBRANCH  18  19
ENDBRANCH  17  18
ENDBRANCH   1  17
TORSDOF 8
ENDMDL
MODEL 2
REMARK VINA RESULT:      -6.1      2.811      5.193
REMARK  Name = 
REMARK  8 active torsions:
REMARK  status: ('A' for Active; 'I' for Inactive)
REMARK    1  A    between atoms: C_2  and  N_4
REMARK    2  A    between atoms: N_4  and  C_5
REMARK    3  A    between atoms: N_4  and  C_23
REMARK    4  A    between atoms: C_5  and  C_6
REMARK    5  A    between atoms: C_6  and  C_7
REMARK    6  A    between atoms: C_7  and  C_8
REMARK    7  A    between atoms: C_7  and  C_11
REMARK    8  A    between atoms: C_7  and  C_17
REMARK                            x       y       z     vdW  Elec       q    Type
REMARK                         _______ _______ _______ _____ _____    ______ ____
ROOT
ATOM      1  C   UNL     1     -10.761  15.161  68.201  0.00  0.00    +0.127 C 
ENDROOT
BRANCH   1   2
ATOM      2  C   UNL     1     -11.045  14.410  66.972  0.00  0.00    -0.009 A 
ATOM      3  C   UNL     1     -10.113  13.911  66.104  0.00  0.00    -0.003 A 
ATOM      4  C   UNL     1     -10.463  13.831  64.762  0.00  0.00    -0.000 A 
ATOM      5  C   UNL     1     -11.776  13.663  64.399  0.00  0.00    -0.000 A 
ATOM      6  C   UNL     1     -12.721  13.710  65.394  0.00  0.00    -0.000 A 
ATOM      7  C   UNL     1     -12.371  14.114  66.676  0.00  0.00    -0.003 A 
ENDBRANCH   1   2
BRANCH   1   8
ATOM      8  C   UNL     1     -11.577  14.763  69.363  0.00  0.00    +0.070 A 
ATOM      9  N   UNL     1     -12.251  15.768  69.976  0.00  0.00    -0.247 NA
ATOM     10  C   UNL     1     -13.058  15.557  71.016  0.00  0.00    +0.098 A 
ATOM     11  C   UNL     1     -13.359  14.263  71.346  0.00  0.00    +0.021 A 
ATOM     12  C   UNL     1     -12.566  13.241  70.896  0.00  0.00    +0.003 A 
ATOM     13  C   UNL     1     -11.781  13.480  69.787  0.00  0.00    +0.016 A 
ENDBRANCH   1   8
BRANCH   1  14
ATOM     14  C   UNL     1      -9.338  14.897  68.585  0.00  0.00    +0.269 C 
ATOM     15  O   UNL     1      -8.893  15.583  69.543  0.00  0.00    -0.271 OA
ATOM     16  N   UNL     1      -8.854  13.581  68.415  0.00  0.00    -0.087 NA
ENDBRANCH   1  14
BRANCH   1  17
ATOM     17  C   UNL     1     -10.872  16.640  67.973  0.00  0.00    +0.036 C 
BRANCH  17  18
ATOM     18  C   UNL     1      -9.929  17.179  66.950  0.00  0.00    +0.073 C 
BRANCH  18  19
ATOM     19  N   UNL     1      -9.121  18.276  67.384  0.00  0.00    -0.275 NA
BRANCH  19  20
ATOM     20  C   UNL     1      -9.528  19.567  66.937  0.00  0.00    +0.058 C 
ATOM     21  C   UNL     1     -10.474  19.593  65.788  0.00  0.00    +0.017 C 
ATOM     22  C   UNL     1     -10.069  20.367  68.089  0.00  0.00    +0.017 C 
ENDBRANCH  19  20
BRANCH  19  24
ATOM     23  C   UNL     1      -7.737  16.972  66.143  0.00  0.00    +0.017 C 
ATOM     24  C   UNL     1      -7.785  18.049  66.828  0.00  0.00    +0.058 C 
ATOM     25  C   UNL     1      -6.765  17.999  67.952  0.00  0.00    +0.017 C 
ENDBRANCH  19  24
ENDBRANCH  18  19
ENDBRANCH  17  18
ENDBRANCH   1  17
TORSDOF 8
ENDMDL
MODEL 3
REMARK VINA RESULT:      -6.0      2.613      5.686
REMARK  Name = 
REMARK  8 active torsions:
REMARK  status: ('A' for Active; 'I' for Inactive)
REMARK    1  A    between atoms: C_2  and  N_4
REMARK    2  A    between atoms: N_4  and  C_5
REMARK    3  A    between atoms: N_4  and  C_23
REMARK    4  A    between atoms: C_5  and  C_6
REMARK    5  A    between atoms: C_6  and  C_7
REMARK    6  A    between atoms: C_7  and  C_8
REMARK    7  A    between atoms: C_7  and  C_11
REMARK    8  A    between atoms: C_7  and  C_17
REMARK                            x       y       z     vdW  Elec       q    Type
REMARK                         _______ _______ _______ _____ _____    ______ ____
ROOT
ATOM      1  C   UNL     1      -9.826  15.550  67.977  0.00  0.00    +0.127 C 
ENDROOT
BRANCH   1   2
ATOM      2  C   UNL     1     -10.123  16.953  67.664  0.00  0.00    -0.009 A 
ATOM      3  C   UNL     1     -10.553  17.431  66.457  0.00  0.00    -0.003 A 
ATOM      4  C   UNL     1     -10.177  18.722  66.105  0.00  0.00    -0.000 A 
ATOM      5  C   UNL     1      -9.942  19.662  67.077  0.00  0.00    -0.000 A 
ATOM      6  C   UNL     1      -9.966  19.244  68.385  0.00  0.00    -0.000 A 
ATOM      7  C   UNL     1     -10.023  17.889  68.688  0.00  0.00    -0.003 A 
ENDBRANCH   1   2
BRANCH   1   8
ATOM      8  C   UNL     1     -10.491  14.573  67.095  0.00  0.00    +0.070 A 
ATOM      9  N   UNL     1      -9.735  13.509  66.727  0.00  0.00    -0.247 NA
ATOM     10  C   UNL     1     -10.211  12.525  65.963  0.00  0.00    +0.098 A 
ATOM     11  C   UNL     1     -11.555  12.500  65.707  0.00  0.00    +0.021 A 
ATOM     12  C   UNL     1     -12.305  13.633  65.884  0.00  0.00    +0.003 A 
ATOM     13  C   UNL     1     -11.805  14.608  66.721  0.00  0.00    +0.016 A 
ENDBRANCH   1   8
BRANCH   1  14
ATOM     14  C   UNL     1      -8.354  15.338  67.794  0.00  0.00    +0.269 C 
ATOM     15  O   UNL     1      -7.829  15.948  66.825  0.00  0.00    -0.271 OA
ATOM     16  N   UNL     1      -7.580  15.124  68.956  0.00  0.00    -0.087 NA
ENDBRANCH   1  14
BRANCH   1  17
ATOM     17  C   UNL     1     -10.125  15.237  69.414  0.00  0.00    +0.036 C 
BRANCH  17  18
ATOM     18  C   UNL     1     -11.557  14.920  69.691  0.00  0.00    +0.073 C 
BRANCH  18  19
ATOM     19  N   UNL     1     -11.779  13.968  70.734  0.00  0.00    -0.275 NA
BRANCH  19  20
ATOM     20  C   UNL     1     -12.400  12.746  70.343  0.00  0.00    +0.058 C 
ATOM     21  C   UNL     1     -11.621  11.887  69.408  0.00  0.00    +0.017 C 
ATOM     22  C   UNL     1     -12.818  11.965  71.558  0.00  0.00    +0.017 C 
ENDBRANCH  19  20
BRANCH  19  24
ATOM     23  C   UNL     1     -13.497  15.405  71.105  0.00  0.00    +0.017 C 
ATOM     24  C   UNL     1     -12.688  14.606  71.688  0.00  0.00    +0.058 C 
ATOM     25  C   UNL     1     -11.886  15.351  72.740  0.00  0.00    +0.017 C 
ENDBRANCH  19  24
ENDBRANCH  18  19
ENDBRANCH  17  18
ENDBRANCH   1  17
TORSDOF 8
ENDMDL
MODEL 4
REMARK VINA RESULT:      -6.0      2.804      5.612
REMARK  Name = 
REMARK  8 active torsions:
REMARK  status: ('A' for Active; 'I' for Inactive)
REMARK    1  A    between atoms: C_2  and  N_4
REMARK    2  A    between atoms: N_4  and  C_5
REMARK    3  A    between atoms: N_4  and  C_23
REMARK    4  A    between atoms: C_5  and  C_6
REMARK    5  A    between atoms: C_6  and  C_7
REMARK    6  A    between atoms: C_7  and  C_8
REMARK    7  A    between atoms: C_7  and  C_11
REMARK    8  A    between atoms: C_7  and  C_17
REMARK                            x       y       z     vdW  Elec       q    Type
REMARK                         _______ _______ _______ _____ _____    ______ ____
ROOT
ATOM      1  C   UNL     1     -10.481  15.678  67.525  0.00  0.00    +0.127 C 
ENDROOT
BRANCH   1   2
ATOM      2  C   UNL     1     -10.975  14.838  66.429  0.00  0.00    -0.009 A 
ATOM      3  C   UNL     1     -12.267  14.421  66.257  0.00  0.00    -0.003 A 
ATOM      4  C   UNL     1     -12.470  13.192  65.642  0.00  0.00    -0.000 A 
ATOM      5  C   UNL     1     -11.557  12.715  64.734  0.00  0.00    -0.000 A 
ATOM      6  C   UNL     1     -10.396  13.429  64.566  0.00  0.00    -0.000 A 
ATOM      7  C   UNL     1     -10.081  14.471  65.429  0.00  0.00    -0.003 A 
ENDBRANCH   1   2
BRANCH   1   8
ATOM      8  C   UNL     1      -9.169  15.272  68.062  0.00  0.00    +0.070 A 
ATOM      9  N   UNL     1      -8.419  16.271  68.592  0.00  0.00    -0.247 NA
ATOM     10  C   UNL     1      -7.227  16.052  69.148  0.00  0.00    +0.098 A 
ATOM     11  C   UNL     1      -6.843  14.756  69.360  0.00  0.00    +0.021 A 
ATOM     12  C   UNL     1      -7.461  13.740  68.678  0.00  0.00    +0.003 A 
ATOM     13  C   UNL     1      -8.714  13.987  68.158  0.00  0.00    +0.016 A 
ENDBRANCH   1   8
BRANCH   1  14
ATOM     14  C   UNL     1     -10.299  17.068  66.996  0.00  0.00    +0.269 C 
ATOM     15  O   UNL     1     -10.159  17.164  65.748  0.00  0.00    -0.271 OA
ATOM     16  N   UNL     1     -10.949  18.115  67.686  0.00  0.00    -0.087 NA
ENDBRANCH   1  14
BRANCH   1  17
ATOM     17  C   UNL     1     -11.486  15.774  68.635  0.00  0.00    +0.036 C 
BRANCH  17  18
ATOM     18  C   UNL     1     -11.217  14.870  69.791  0.00  0.00    +0.073 C 
BRANCH  18  19
ATOM     19  N   UNL     1     -12.341  14.115  70.249  0.00  0.00    -0.275 NA
BRANCH  19  20
ATOM     20  C   UNL     1     -12.836  14.453  71.543  0.00  0.00    +0.058 C 
ATOM     21  C   UNL     1     -11.921  15.254  72.403  0.00  0.00    +0.017 C 
ATOM     22  C   UNL     1     -14.178  15.122  71.426  0.00  0.00    +0.017 C 
ENDBRANCH  19  20
BRANCH  19  24
ATOM     23  C   UNL     1     -11.818  12.186  69.171  0.00  0.00    +0.017 C 
ATOM     24  C   UNL     1     -11.898  12.722  70.328  0.00  0.00    +0.058 C 
ATOM     25  C   UNL     1     -12.853  11.931  71.204  0.00  0.00    +0.017 C 
ENDBRANCH  19  24
ENDBRANCH  18  19
ENDBRANCH  17  18
ENDBRANCH   1  17
TORSDOF 8
ENDMDL
MODEL 5
REMARK VINA RESULT:      -5.9      2.579      5.814
REMARK  Name = 
REMARK  8 active torsions:
REMARK  status: ('A' for Active; 'I' for Inactive)
REMARK    1  A    between atoms: C_2  and  N_4
REMARK    2  A    between atoms: N_4  and  C_5
REMARK    3  A    between atoms: N_4  and  C_23
REMARK    4  A    between atoms: C_5  and  C_6
REMARK    5  A    between atoms: C_6  and  C_7
REMARK    6  A    between atoms: C_7  and  C_8
REMARK    7  A    between atoms: C_7  and  C_11
REMARK    8  A    between atoms: C_7  and  C_17
REMARK                            x       y       z     vdW  Elec       q    Type
REMARK                         _______ _______ _______ _____ _____    ______ ____
ROOT
ATOM      1  C   UNL     1     -10.490  15.661  67.761  0.00  0.00    +0.127 C 
ENDROOT
BRANCH   1   2
ATOM      2  C   UNL     1     -10.002  16.988  67.367  0.00  0.00    -0.009 A 
ATOM      3  C   UNL     1      -9.068  17.245  66.401  0.00  0.00    -0.003 A 
ATOM      4  C   UNL     1      -8.257  18.361  66.570  0.00  0.00    -0.000 A 
ATOM      5  C   UNL     1      -8.717  19.448  67.269  0.00  0.00    -0.000 A 
ATOM      6  C   UNL     1      -9.936  19.336  67.891  0.00  0.00    -0.000 A 
ATOM      7  C   UNL     1     -10.570  18.103  67.974  0.00  0.00    -0.003 A 
ENDBRANCH   1   2
BRANCH   1   8
ATOM      8  C   UNL     1     -10.868  14.790  66.633  0.00  0.00    +0.070 A 
ATOM      9  N   UNL     1     -12.154  14.360  66.632  0.00  0.00    -0.247 NA
ATOM     10  C   UNL     1     -12.652  13.597  65.658  0.00  0.00    +0.098 A 
ATOM     11  C   UNL     1     -11.892  13.406  64.536  0.00  0.00    +0.021 A 
ATOM     12  C   UNL     1     -10.543  13.647  64.576  0.00  0.00    +0.003 A 
ATOM     13  C   UNL     1     -10.070  14.482  65.567  0.00  0.00    +0.016 A 
ENDBRANCH   1   8
BRANCH   1  14
ATOM     14  C   UNL     1      -9.379  14.955  68.475  0.00  0.00    +0.269 C 
ATOM     15  O   UNL     1      -9.067  13.823  68.019  0.00  0.00    -0.271 OA
ATOM     16  N   UNL     1      -8.365  15.753  69.049  0.00  0.00    -0.087 NA
ENDBRANCH   1  14
BRANCH   1  17
ATOM     17  C   UNL     1     -11.624  15.765  68.737  0.00  0.00    +0.036 C 
BRANCH  17  18
ATOM     18  C   UNL     1     -11.416  15.011  70.007  0.00  0.00    +0.073 C 
BRANCH  18  19
ATOM     19  N   UNL     1     -12.525  14.215  70.432  0.00  0.00    -0.275 NA
BRANCH  19  20
ATOM     20  C   UNL     1     -13.081  14.545  71.703  0.00  0.00    +0.058 C 
ATOM     21  C   UNL     1     -12.258  15.441  72.563  0.00  0.00    +0.017 C 
ATOM     22  C   UNL     1     -14.469  15.098  71.533  0.00  0.00    +0.017 C 
ENDBRANCH  19  20
BRANCH  19  24
ATOM     23  C   UNL     1     -11.912  12.289  69.398  0.00  0.00    +0.017 C 
ATOM     24  C   UNL     1     -12.029  12.842  70.544  0.00  0.00    +0.058 C 
ATOM     25  C   UNL     1     -12.965  12.030  71.421  0.00  0.00    +0.017 C 
ENDBRANCH  19  24
ENDBRANCH  18  19
ENDBRANCH  17  18
ENDBRANCH   1  17
TORSDOF 8
ENDMDL
MODEL 6
REMARK VINA RESULT:      -5.9      1.875      5.725
REMARK  Name = 
REMARK  8 active torsions:
REMARK  status: ('A' for Active; 'I' for Inactive)
REMARK    1  A    between atoms: C_2  and  N_4
REMARK    2  A    between atoms: N_4  and  C_5
REMARK    3  A    between atoms: N_4  and  C_23
REMARK    4  A    between atoms: C_5  and  C_6
REMARK    5  A    between atoms: C_6  and  C_7
REMARK    6  A    between atoms: C_7  and  C_8
REMARK    7  A    between atoms: C_7  and  C_11
REMARK    8  A    between atoms: C_7  and  C_17
REMARK                            x       y       z     vdW  Elec       q    Type
REMARK                         _______ _______ _______ _____ _____    ______ ____
ROOT
ATOM      1  C   UNL     1     -11.257  12.867  65.557  0.00  0.00    +0.127 C 
ENDROOT
BRANCH   1   2
ATOM      2  C   UNL     1     -10.268  12.051  64.842  0.00  0.00    -0.009 A 
ATOM      3  C   UNL     1     -10.229  11.839  63.491  0.00  0.00    -0.003 A 
ATOM      4  C   UNL     1      -9.726  10.623  63.045  0.00  0.00    -0.000 A 
ATOM      5  C   UNL     1      -8.791   9.948  63.789  0.00  0.00    -0.000 A 
ATOM      6  C   UNL     1      -8.480  10.451  65.028  0.00  0.00    -0.000 A 
ATOM      7  C   UNL     1      -9.234  11.480  65.577  0.00  0.00    -0.003 A 
ENDBRANCH   1   2
BRANCH   1   8
ATOM      8  C   UNL     1     -10.734  14.146  66.073  0.00  0.00    +0.070 A 
ATOM      9  N   UNL     1     -11.419  14.679  67.115  0.00  0.00    -0.247 NA
ATOM     10  C   UNL     1     -11.045  15.812  67.712  0.00  0.00    +0.098 A 
ATOM     11  C   UNL     1      -9.827  16.342  67.382  0.00  0.00    +0.021 A 
ATOM     12  C   UNL     1      -9.207  15.960  66.221  0.00  0.00    +0.003 A 
ATOM     13  C   UNL     1      -9.584  14.758  65.659  0.00  0.00    +0.016 A 
ENDBRANCH   1   8
BRANCH   1  14
ATOM     14  C   UNL     1     -12.345  13.225  64.592  0.00  0.00    +0.269 C 
ATOM     15  O   UNL     1     -13.402  12.545  64.682  0.00  0.00    -0.271 OA
ATOM     16  N   UNL     1     -12.444  14.577  64.197  0.00  0.00    -0.087 NA
ENDBRANCH   1  14
BRANCH   1  17
ATOM     17  C   UNL     1     -11.908  12.091  66.663  0.00  0.00    +0.036 C 
BRANCH  17  18
ATOM     18  C   UNL     1     -11.000  11.754  67.798  0.00  0.00    +0.073 C 
BRANCH  18  19
ATOM     19  N   UNL     1     -11.530  10.826  68.748  0.00  0.00    -0.275 NA
BRANCH  19  20
ATOM     20  C   UNL     1     -11.738  11.330  70.065  0.00  0.00    +0.058 C 
ATOM     21  C   UNL     1     -12.094  12.773  70.163  0.00  0.00    +0.017 C 
ATOM     22  C   UNL     1     -12.746  10.483  70.791  0.00  0.00    +0.017 C 
ENDBRANCH  19  20
BRANCH  19  24
ATOM     23  C   UNL     1      -9.361  10.211  69.014  0.00  0.00    +0.017 C 
ATOM     24  C   UNL     1     -10.544   9.750  68.869  0.00  0.00    +0.058 C 
ATOM     25  C   UNL     1     -10.608   8.856  67.643  0.00  0.00    +0.017 C 
ENDBRANCH  19  24
ENDBRANCH  18  19
ENDBRANCH  17  18
ENDBRANCH   1  17
TORSDOF 8
ENDMDL
MODEL 7
REMARK VINA RESULT:      -5.9      2.242      4.409
REMARK  Name = 
REMARK  8 active torsions:
REMARK  status: ('A' for Active; 'I' for Inactive)
REMARK    1  A    between atoms: C_2  and  N_4
REMARK    2  A    between atoms: N_4  and  C_5
REMARK    3  A    between atoms: N_4  and  C_23
REMARK    4  A    between atoms: C_5  and  C_6
REMARK    5  A    between atoms: C_6  and  C_7
REMARK    6  A    between atoms: C_7  and  C_8
REMARK    7  A    between atoms: C_7  and  C_11
REMARK    8  A    between atoms: C_7  and  C_17
REMARK                            x       y       z     vdW  Elec       q    Type
REMARK                         _______ _______ _______ _____ _____    ______ ____
ROOT
ATOM      1  C   UNL     1     -10.291  14.530  66.471  0.00  0.00    +0.127 C 
ENDROOT
BRANCH   1   2
ATOM      2  C   UNL     1     -11.040  14.812  67.701  0.00  0.00    -0.009 A 
ATOM      3  C   UNL     1     -11.193  16.041  68.282  0.00  0.00    -0.003 A 
ATOM      4  C   UNL     1     -11.319  16.087  69.665  0.00  0.00    -0.000 A 
ATOM      5  C   UNL     1     -11.863  15.026  70.345  0.00  0.00    -0.000 A 
ATOM      6  C   UNL     1     -12.149  13.891  69.628  0.00  0.00    -0.000 A 
ATOM      7  C   UNL     1     -11.712  13.761  68.315  0.00  0.00    -0.003 A 
ENDBRANCH   1   2
BRANCH   1   8
ATOM      8  C   UNL     1     -11.030  13.731  65.475  0.00  0.00    +0.070 A 
ATOM      9  N   UNL     1     -10.279  13.196  64.481  0.00  0.00    -0.247 NA
ATOM     10  C   UNL     1     -10.800  12.420  63.530  0.00  0.00    +0.098 A 
ATOM     11  C   UNL     1     -12.094  11.999  63.679  0.00  0.00    +0.021 A 
ATOM     12  C   UNL     1     -12.932  12.659  64.539  0.00  0.00    +0.003 A 
ATOM     13  C   UNL     1     -12.358  13.413  65.542  0.00  0.00    +0.016 A 
ENDBRANCH   1   8
BRANCH   1  14
ATOM     14  C   UNL     1      -9.985  15.837  65.807  0.00  0.00    +0.269 C 
ATOM     15  O   UNL     1      -8.764  16.136  65.724  0.00  0.00    -0.271 OA
ATOM     16  N   UNL     1     -10.855  16.263  64.780  0.00  0.00    -0.087 NA
ENDBRANCH   1  14
BRANCH   1  17
ATOM     17  C   UNL     1      -8.970  13.886  66.772  0.00  0.00    +0.036 C 
BRANCH  17  18
ATOM     18  C   UNL     1      -9.067  12.598  67.518  0.00  0.00    +0.073 C 
BRANCH  18  19
ATOM     19  N   UNL     1      -8.527  11.460  66.841  0.00  0.00    -0.275 NA
BRANCH  19  20
ATOM     20  C   UNL     1      -9.365  10.307  66.791  0.00  0.00    +0.058 C 
ATOM     21  C   UNL     1     -10.771  10.502  67.242  0.00  0.00    +0.017 C 
ATOM     22  C   UNL     1      -9.328   9.699  65.417  0.00  0.00    +0.017 C 
ENDBRANCH  19  20
BRANCH  19  24
ATOM     23  C   UNL     1      -7.416  11.386  68.820  0.00  0.00    +0.017 C 
ATOM     24  C   UNL     1      -7.330  11.066  67.586  0.00  0.00    +0.058 C 
ATOM     25  C   UNL     1      -6.105  11.713  66.964  0.00  0.00    +0.017 C 
ENDBRANCH  19  24
ENDBRANCH  18  19
ENDBRANCH  17  18
ENDBRANCH   1  17
TORSDOF 8
ENDMDL
MODEL 8
REMARK VINA RESULT:      -5.9      2.677      5.033
REMARK  Name = 
REMARK  8 active torsions:
REMARK  status: ('A' for Active; 'I' for Inactive)
REMARK    1  A    between atoms: C_2  and  N_4
REMARK    2  A    between atoms: N_4  and  C_5
REMARK    3  A    between atoms: N_4  and  C_23
REMARK    4  A    between atoms: C_5  and  C_6
REMARK    5  A    between atoms: C_6  and  C_7
REMARK    6  A    between atoms: C_7  and  C_8
REMARK    7  A    between atoms: C_7  and  C_11
REMARK    8  A    between atoms: C_7  and  C_17
REMARK                            x       y       z     vdW  Elec       q    Type
REMARK                         _______ _______ _______ _____ _____    ______ ____
ROOT
ATOM      1  C   UNL     1     -10.910  15.333  68.272  0.00  0.00    +0.127 C 
ENDROOT
BRANCH   1   2
ATOM      2  C   UNL     1     -11.251  14.637  67.025  0.00  0.00    -0.009 A 
ATOM      3  C   UNL     1     -11.995  13.493  66.923  0.00  0.00    -0.003 A 
ATOM      4  C   UNL     1     -11.704  12.628  65.876  0.00  0.00    -0.000 A 
ATOM      5  C   UNL     1     -11.181  13.114  64.704  0.00  0.00    -0.000 A 
ATOM      6  C   UNL     1     -10.843  14.445  64.661  0.00  0.00    -0.000 A 
ATOM      7  C   UNL     1     -10.843  15.206  65.824  0.00  0.00    -0.003 A 
ENDBRANCH   1   2
BRANCH   1   8
ATOM      8  C   UNL     1     -11.666  14.876  69.453  0.00  0.00    +0.070 A 
ATOM      9  N   UNL     1     -12.372  15.835  70.101  0.00  0.00    -0.247 NA
ATOM     10  C   UNL     1     -13.133  15.567  71.163  0.00  0.00    +0.098 A 
ATOM     11  C   UNL     1     -13.354  14.255  71.484  0.00  0.00    +0.021 A 
ATOM     12  C   UNL     1     -12.521  13.283  70.994  0.00  0.00    +0.003 A 
ATOM     13  C   UNL     1     -11.786  13.578  69.864  0.00  0.00    +0.016 A 
ENDBRANCH   1   8
BRANCH   1  14
ATOM     14  C   UNL     1      -9.468  15.061  68.573  0.00  0.00    +0.269 C 
ATOM     15  O   UNL     1      -9.117  15.233  69.770  0.00  0.00    -0.271 OA
ATOM     16  N   UNL     1      -8.827  14.053  67.820  0.00  0.00    -0.087 NA
ENDBRANCH   1  14
BRANCH   1  17
ATOM     17  C   UNL     1     -11.039  16.820  68.119  0.00  0.00    +0.036 C 
BRANCH  17  18
ATOM     18  C   UNL     1      -9.781  17.578  68.381  0.00  0.00    +0.073 C 
BRANCH  18  19
ATOM     19  N   UNL     1      -9.135  18.107  67.221  0.00  0.00    -0.275 NA
BRANCH  19  20
ATOM     20  C   UNL     1      -7.710  18.058  67.221  0.00  0.00    +0.058 C 
ATOM     21  C   UNL     1      -7.064  17.868  68.550  0.00  0.00    +0.017 C 
ATOM     22  C   UNL     1      -7.227  17.023  66.244  0.00  0.00    +0.017 C 
ENDBRANCH  19  20
BRANCH  19  24
ATOM     23  C   UNL     1     -10.020  19.927  68.250  0.00  0.00    +0.017 C 
ATOM     24  C   UNL     1      -9.497  19.524  67.156  0.00  0.00    +0.058 C 
ATOM     25  C   UNL     1     -10.459  19.754  66.003  0.00  0.00    +0.017 C 
ENDBRANCH  19  24
ENDBRANCH  18  19
ENDBRANCH  17  18
ENDBRANCH   1  17
TORSDOF 8
ENDMDL
MODEL 9
REMARK VINA RESULT:      -5.9      2.315      4.039
REMARK  Name = 
REMARK  8 active torsions:
REMARK  status: ('A' for Active; 'I' for Inactive)
REMARK    1  A    between atoms: C_2  and  N_4
REMARK    2  A    between atoms: N_4  and  C_5
REMARK    3  A    between atoms: N_4  and  C_23
REMARK    4  A    between atoms: C_5  and  C_6
REMARK    5  A    between atoms: C_6  and  C_7
REMARK    6  A    between atoms: C_7  and  C_8
REMARK    7  A    between atoms: C_7  and  C_11
REMARK    8  A    between atoms: C_7  and  C_17
REMARK                            x       y       z     vdW  Elec       q    Type
REMARK                         _______ _______ _______ _____ _____    ______ ____
ROOT
ATOM      1  C   UNL     1     -10.627  15.130  67.975  0.00  0.00    +0.127 C 
ENDROOT
BRANCH   1   2
ATOM      2  C   UNL     1      -9.326  14.745  68.533  0.00  0.00    -0.009 A 
ATOM      3  C   UNL     1      -8.609  15.453  69.458  0.00  0.00    -0.003 A 
ATOM      4  C   UNL     1      -7.223  15.362  69.405  0.00  0.00    -0.000 A 
ATOM      5  C   UNL     1      -6.625  14.227  68.918  0.00  0.00    -0.000 A 
ATOM      6  C   UNL     1      -7.437  13.262  68.375  0.00  0.00    -0.000 A 
ATOM      7  C   UNL     1      -8.782  13.524  68.149  0.00  0.00    -0.003 A 
ENDBRANCH   1   2
BRANCH   1   8
ATOM      8  C   UNL     1     -10.972  14.457  66.708  0.00  0.00    +0.070 A 
ATOM      9  N   UNL     1     -12.294  14.238  66.503  0.00  0.00    -0.247 NA
ATOM     10  C   UNL     1     -12.761  13.674  65.389  0.00  0.00    +0.098 A 
ATOM     11  C   UNL     1     -11.893  13.490  64.347  0.00  0.00    +0.021 A 
ATOM     12  C   UNL     1     -10.541  13.510  64.572  0.00  0.00    +0.003 A 
ATOM     13  C   UNL     1     -10.091  14.146  65.710  0.00  0.00    +0.016 A 
ENDBRANCH   1   8
BRANCH   1  14
ATOM     14  C   UNL     1     -11.687  14.732  68.955  0.00  0.00    +0.269 C 
ATOM     15  O   UNL     1     -11.541  13.600  69.490  0.00  0.00    -0.271 OA
ATOM     16  N   UNL     1     -12.294  15.760  69.709  0.00  0.00    -0.087 NA
ENDBRANCH   1  14
BRANCH   1  17
ATOM     17  C   UNL     1     -10.733  16.618  67.815  0.00  0.00    +0.036 C 
BRANCH  17  18
ATOM     18  C   UNL     1      -9.816  17.195  66.790  0.00  0.00    +0.073 C 
BRANCH  18  19
ATOM     19  N   UNL     1      -9.004  18.282  67.242  0.00  0.00    -0.275 NA
BRANCH  19  20
ATOM     20  C   UNL     1      -9.491  19.590  66.949  0.00  0.00    +0.058 C 
ATOM     21  C   UNL     1     -10.457  19.689  65.819  0.00  0.00    +0.017 C 
ATOM     22  C   UNL     1     -10.059  20.221  68.190  0.00  0.00    +0.017 C 
ENDBRANCH  19  20
BRANCH  19  24
ATOM     23  C   UNL     1      -7.531  16.967  66.122  0.00  0.00    +0.017 C 
ATOM     24  C   UNL     1      -7.721  18.156  66.548  0.00  0.00    +0.058 C 
ATOM     25  C   UNL     1      -6.593  18.562  67.479  0.00  0.00    +0.017 C 
ENDBRANCH  19  24
ENDBRANCH  18  19
ENDBRANCH  17  18
ENDBRANCH   1  17
TORSDOF 8
ENDMDL
