MODEL 1
REMARK VINA RESULT:      -6.0      0.000      0.000
REMARK  Name = 
REMARK  3 active torsions:
REMARK  status: ('A' for Active; 'I' for Inactive)
REMARK    1  A    between atoms: N_2  and  C_4
REMARK    2  A    between atoms: C_6  and  N_7
REMARK    3  A    between atoms: C_12  and  N_13
REMARK                            x       y       z     vdW  Elec       q    Type
REMARK                         _______ _______ _______ _____ _____    ______ ____
ROOT
ATOM      1  C   UNL     1      -9.511  14.197  66.664  0.00  0.00    +0.303 A 
ATOM      2  C   UNL     1      -9.116  15.530  66.636  0.00  0.00    +0.154 A 
ATOM      3  C   UNL     1      -9.919  16.469  65.999  0.00  0.00    +0.341 A 
ATOM      4  C   UNL     1     -10.768  15.962  65.027  0.00  0.00    +0.333 A 
ATOM      5  O   UNL     1     -11.380  16.880  64.200  0.00  0.00    -0.273 OA
ATOM      6  C   UNL     1     -11.143  14.626  64.984  0.00  0.00    +0.341 A 
ATOM      7  C   UNL     1     -10.647  13.788  65.976  0.00  0.00    +0.154 A 
ENDROOT
BRANCH   1   9
ATOM      8  O   UNL     1      -8.133  13.757  68.398  0.00  0.00    +0.041 OA
ATOM      9  N   UNL     1      -9.130  13.343  67.751  0.00  0.00    +0.081 N 
ATOM     10  O   UNL     1     -10.033  12.487  68.308  0.00  0.00    -0.576 OA
ENDBRANCH   1   9
BRANCH   3  11
ATOM     11  N   UNL     1     -10.020  17.818  66.471  0.00  0.00    +0.085 N 
ATOM     12  O   UNL     1     -10.859  18.060  67.544  0.00  0.00    -0.576 OA
ATOM     13  O   UNL     1      -9.260  18.693  66.026  0.00  0.00    +0.042 OA
ENDBRANCH   3  11
BRANCH   6  14
ATOM     14  N   UNL     1     -12.458  14.327  64.493  0.00  0.00    +0.085 N 
ATOM     15  O   UNL     1     -12.483  13.671  63.273  0.00  0.00    -0.576 OA
ATOM     16  O   UNL     1     -13.317  13.971  65.326  0.00  0.00    +0.042 OA
ENDBRANCH   6  14
TORSDOF 3
ENDMDL
MODEL 2
REMARK VINA RESULT:      -5.7      2.058      4.144
REMARK  Name = 
REMARK  3 active torsions:
REMARK  status: ('A' for Active; 'I' for Inactive)
REMARK    1  A    between atoms: N_2  and  C_4
REMARK    2  A    between atoms: C_6  and  N_7
REMARK    3  A    between atoms: C_12  and  N_13
REMARK                            x       y       z     vdW  Elec       q    Type
REMARK                         _______ _______ _______ _____ _____    ______ ____
ROOT
ATOM      1  C   UNL     1     -12.130  12.776  65.031  0.00  0.00    +0.303 A 
ATOM      2  C   UNL     1     -12.043  14.120  64.689  0.00  0.00    +0.154 A 
ATOM      3  C   UNL     1     -11.491  15.022  65.591  0.00  0.00    +0.341 A 
ATOM      4  C   UNL     1     -11.531  14.631  66.921  0.00  0.00    +0.333 A 
ATOM      5  O   UNL     1     -11.238  15.599  67.860  0.00  0.00    -0.273 OA
ATOM      6  C   UNL     1     -11.673  13.306  67.307  0.00  0.00    +0.341 A 
ATOM      7  C   UNL     1     -11.759  12.350  66.301  0.00  0.00    +0.154 A 
ENDROOT
BRANCH   1   9
ATOM      8  O   UNL     1     -12.976  11.867  63.145  0.00  0.00    +0.041 OA
ATOM      9  N   UNL     1     -12.080  11.759  64.021  0.00  0.00    +0.081 N 
ATOM     10  O   UNL     1     -10.919  11.087  63.772  0.00  0.00    -0.576 OA
ENDBRANCH   1   9
BRANCH   3  11
ATOM     11  N   UNL     1     -10.739  16.161  65.154  0.00  0.00    +0.085 N 
ATOM     12  O   UNL     1      -9.403  16.221  65.510  0.00  0.00    -0.576 OA
ATOM     13  O   UNL     1     -11.239  16.971  64.357  0.00  0.00    +0.042 OA
ENDBRANCH   3  11
BRANCH   6  14
ATOM     14  N   UNL     1     -11.021  12.899  68.519  0.00  0.00    +0.085 N 
ATOM     15  O   UNL     1     -11.879  12.467  69.519  0.00  0.00    -0.576 OA
ATOM     16  O   UNL     1      -9.943  12.280  68.415  0.00  0.00    +0.042 OA
ENDBRANCH   6  14
TORSDOF 3
ENDMDL
MODEL 3
REMARK VINA RESULT:      -5.7      1.999      4.450
REMARK  Name = 
REMARK  3 active torsions:
REMARK  status: ('A' for Active; 'I' for Inactive)
REMARK    1  A    between atoms: N_2  and  C_4
REMARK    2  A    between atoms: C_6  and  N_7
REMARK    3  A    between atoms: C_12  and  N_13
REMARK                            x       y       z     vdW  Elec       q    Type
REMARK                         _______ _______ _______ _____ _____    ______ ____
ROOT
ATOM      1  C   UNL     1     -11.618  14.256  65.904  0.00  0.00    +0.303 A 
ATOM      2  C   UNL     1     -11.749  13.874  67.234  0.00  0.00    +0.154 A 
ATOM      3  C   UNL     1     -11.199  14.670  68.232  0.00  0.00    +0.341 A 
ATOM      4  C   UNL     1     -10.156  15.490  67.830  0.00  0.00    +0.333 A 
ATOM      5  O   UNL     1      -9.420  16.091  68.831  0.00  0.00    -0.273 OA
ATOM      6  C   UNL     1      -9.954  15.850  66.505  0.00  0.00    +0.341 A 
ATOM      7  C   UNL     1     -10.860  15.371  65.565  0.00  0.00    +0.154 A 
ENDROOT
BRANCH   1   9
ATOM      8  O   UNL     1     -12.643  14.649  63.930  0.00  0.00    +0.041 OA
ATOM      9  N   UNL     1     -12.613  13.893  64.936  0.00  0.00    +0.081 N 
ATOM     10  O   UNL     1     -13.097  12.619  64.884  0.00  0.00    -0.576 OA
ENDBRANCH   1   9
BRANCH   3  11
ATOM     11  N   UNL     1     -11.815  14.796  69.520  0.00  0.00    +0.085 N 
ATOM     12  O   UNL     1     -12.394  16.013  69.836  0.00  0.00    -0.576 OA
ATOM     13  O   UNL     1     -11.954  13.800  70.246  0.00  0.00    +0.042 OA
ENDBRANCH   3  11
BRANCH   6  14
ATOM     14  N   UNL     1      -9.400  17.149  66.252  0.00  0.00    +0.085 N 
ATOM     15  O   UNL     1      -8.090  17.140  65.799  0.00  0.00    -0.576 OA
ATOM     16  O   UNL     1     -10.150  18.008  65.746  0.00  0.00    +0.042 OA
ENDBRANCH   6  14
TORSDOF 3
ENDMDL
MODEL 4
REMARK VINA RESULT:      -5.6      2.614      5.252
REMARK  Name = 
REMARK  3 active torsions:
REMARK  status: ('A' for Active; 'I' for Inactive)
REMARK    1  A    between atoms: N_2  and  C_4
REMARK    2  A    between atoms: C_6  and  N_7
REMARK    3  A    between atoms: C_12  and  N_13
REMARK                            x       y       z     vdW  Elec       q    Type
REMARK                         _______ _______ _______ _____ _____    ______ ____
ROOT
ATOM      1  C   UNL     1     -10.604  16.417  67.436  0.00  0.00    +0.303 A 
ATOM      2  C   UNL     1     -10.780  15.315  66.608  0.00  0.00    +0.154 A 
ATOM      3  C   UNL     1     -11.513  14.226  67.064  0.00  0.00    +0.341 A 
ATOM      4  C   UNL     1     -11.585  14.094  68.442  0.00  0.00    +0.333 A 
ATOM      5  O   UNL     1     -12.073  12.897  68.925  0.00  0.00    -0.273 OA
ATOM      6  C   UNL     1     -11.361  15.156  69.308  0.00  0.00    +0.341 A 
ATOM      7  C   UNL     1     -11.072  16.393  68.745  0.00  0.00    +0.154 A 
ENDROOT
BRANCH   1   9
ATOM      8  O   UNL     1     -10.230  17.738  65.643  0.00  0.00    +0.041 OA
ATOM      9  N   UNL     1     -10.443  17.731  66.883  0.00  0.00    +0.081 N 
ATOM     10  O   UNL     1     -10.959  18.820  67.522  0.00  0.00    -0.576 OA
ENDBRANCH   1   9
BRANCH   3  11
ATOM     11  N   UNL     1     -12.317  13.436  66.180  0.00  0.00    +0.085 N 
ATOM     12  O   UNL     1     -13.200  14.103  65.349  0.00  0.00    -0.576 OA
ATOM     13  O   UNL     1     -12.106  12.218  66.064  0.00  0.00    +0.042 OA
ENDBRANCH   3  11
BRANCH   6  14
ATOM     14  N   UNL     1     -12.102  15.171  70.537  0.00  0.00    +0.085 N 
ATOM     15  O   UNL     1     -11.326  15.071  71.681  0.00  0.00    -0.576 OA
ATOM     16  O   UNL     1     -13.087  15.934  70.607  0.00  0.00    +0.042 OA
ENDBRANCH   6  14
TORSDOF 3
ENDMDL
MODEL 5
REMARK VINA RESULT:      -5.6      1.956      5.072
REMARK  Name = 
REMARK  3 active torsions:
REMARK  status: ('A' for Active; 'I' for Inactive)
REMARK    1  A    between atoms: N_2  and  C_4
REMARK    2  A    between atoms: C_6  and  N_7
REMARK    3  A    between atoms: C_12  and  N_13
REMARK                            x       y       z     vdW  Elec       q    Type
REMARK                         _______ _______ _______ _____ _____    ______ ____
ROOT
ATOM      1  C   UNL     1     -10.570  15.285  65.683  0.00  0.00    +0.303 A 
ATOM      2  C   UNL     1     -10.685  14.206  64.815  0.00  0.00    +0.154 A 
ATOM      3  C   UNL     1     -11.343  13.056  65.234  0.00  0.00    +0.341 A 
ATOM      4  C   UNL     1     -11.392  12.868  66.607  0.00  0.00    +0.333 A 
ATOM      5  O   UNL     1     -11.797  11.624  67.048  0.00  0.00    -0.273 OA
ATOM      6  C   UNL     1     -11.226  13.908  67.511  0.00  0.00    +0.341 A 
ATOM      7  C   UNL     1     -11.022  15.182  66.994  0.00  0.00    +0.154 A 
ENDROOT
BRANCH   1   9
ATOM      8  O   UNL     1     -11.314  16.864  64.251  0.00  0.00    +0.041 OA
ATOM      9  N   UNL     1     -10.500  16.627  65.180  0.00  0.00    +0.081 N 
ATOM     10  O   UNL     1      -9.985  17.629  65.948  0.00  0.00    -0.576 OA
ENDBRANCH   1   9
BRANCH   3  11
ATOM     11  N   UNL     1     -12.104  12.250  64.327  0.00  0.00    +0.085 N 
ATOM     12  O   UNL     1     -11.417  11.314  63.572  0.00  0.00    -0.576 OA
ATOM     13  O   UNL     1     -13.344  12.292  64.344  0.00  0.00    +0.042 OA
ENDBRANCH   3  11
BRANCH   6  14
ATOM     14  N   UNL     1     -11.954  13.829  68.746  0.00  0.00    +0.085 N 
ATOM     15  O   UNL     1     -11.513  12.844  69.614  0.00  0.00    -0.576 OA
ATOM     16  O   UNL     1     -12.317  14.901  69.271  0.00  0.00    +0.042 OA
ENDBRANCH   6  14
TORSDOF 3
ENDMDL
MODEL 6
REMARK VINA RESULT:      -5.5      4.089      5.689
REMARK  Name = 
REMARK  3 active torsions:
REMARK  status: ('A' for Active; 'I' for Inactive)
REMARK    1  A    between atoms: N_2  and  C_4
REMARK    2  A    between atoms: C_6  and  N_7
REMARK    3  A    between atoms: C_12  and  N_13
REMARK                            x       y       z     vdW  Elec       q    Type
REMARK                         _______ _______ _______ _____ _____    ______ ____
ROOT
ATOM      1  C   UNL     1     -11.610  13.220  69.045  0.00  0.00    +0.303 A 
ATOM      2  C   UNL     1     -12.312  13.134  70.242  0.00  0.00    +0.154 A 
ATOM      3  C   UNL     1     -12.507  14.280  71.005  0.00  0.00    +0.341 A 
ATOM      4  C   UNL     1     -11.588  15.296  70.795  0.00  0.00    +0.333 A 
ATOM      5  O   UNL     1     -11.588  16.330  71.709  0.00  0.00    -0.273 OA
ATOM      6  C   UNL     1     -10.826  15.388  69.639  0.00  0.00    +0.341 A 
ATOM      7  C   UNL     1     -11.023  14.420  68.661  0.00  0.00    +0.154 A 
ENDROOT
BRANCH   1   9
ATOM      8  O   UNL     1     -11.625  12.790  66.828  0.00  0.00    +0.041 OA
ATOM      9  N   UNL     1     -11.893  12.320  67.964  0.00  0.00    +0.081 N 
ATOM     10  O   UNL     1     -11.954  10.975  68.181  0.00  0.00    -0.576 OA
ENDBRANCH   1   9
BRANCH   3  11
ATOM     11  N   UNL     1     -13.696  14.475  71.781  0.00  0.00    +0.085 N 
ATOM     12  O   UNL     1     -14.571  15.467  71.372  0.00  0.00    -0.576 OA
ATOM     13  O   UNL     1     -13.991  13.676  72.684  0.00  0.00    +0.042 OA
ENDBRANCH   3  11
BRANCH   6  14
ATOM     14  N   UNL     1     -10.489  16.704  69.175  0.00  0.00    +0.085 N 
ATOM     15  O   UNL     1      -9.134  16.917  68.975  0.00  0.00    -0.576 OA
ATOM     16  O   UNL     1     -11.256  17.239  68.349  0.00  0.00    +0.042 OA
ENDBRANCH   6  14
TORSDOF 3
ENDMDL
MODEL 7
REMARK VINA RESULT:      -5.5      4.994      5.884
REMARK  Name = 
REMARK  3 active torsions:
REMARK  status: ('A' for Active; 'I' for Inactive)
REMARK    1  A    between atoms: N_2  and  C_4
REMARK    2  A    between atoms: C_6  and  N_7
REMARK    3  A    between atoms: C_12  and  N_13
REMARK                            x       y       z     vdW  Elec       q    Type
REMARK                         _______ _______ _______ _____ _____    ______ ____
ROOT
ATOM      1  C   UNL     1     -12.464  12.081  70.945  0.00  0.00    +0.303 A 
ATOM      2  C   UNL     1     -13.061  12.993  71.807  0.00  0.00    +0.154 A 
ATOM      3  C   UNL     1     -13.272  14.300  71.383  0.00  0.00    +0.341 A 
ATOM      4  C   UNL     1     -12.446  14.732  70.358  0.00  0.00    +0.333 A 
ATOM      5  O   UNL     1     -12.444  16.086  70.092  0.00  0.00    -0.273 OA
ATOM      6  C   UNL     1     -11.786  13.855  69.508  0.00  0.00    +0.341 A 
ATOM      7  C   UNL     1     -11.994  12.494  69.704  0.00  0.00    +0.154 A 
ENDROOT
BRANCH   1   9
ATOM      8  O   UNL     1     -12.040   9.956  70.309  0.00  0.00    +0.041 OA
ATOM      9  N   UNL     1     -12.769  10.682  71.033  0.00  0.00    +0.081 N 
ATOM     10  O   UNL     1     -13.410  10.181  72.128  0.00  0.00    -0.576 OA
ENDBRANCH   1   9
BRANCH   3  11
ATOM     11  N   UNL     1     -14.406  15.060  71.819  0.00  0.00    +0.085 N 
ATOM     12  O   UNL     1     -14.189  16.051  72.761  0.00  0.00    -0.576 OA
ATOM     13  O   UNL     1     -15.502  14.928  71.251  0.00  0.00    +0.042 OA
ENDBRANCH   3  11
BRANCH   6  14
ATOM     14  N   UNL     1     -11.578  14.281  68.153  0.00  0.00    +0.085 N 
ATOM     15  O   UNL     1     -10.307  14.766  67.889  0.00  0.00    -0.576 OA
ATOM     16  O   UNL     1     -12.106  13.603  67.248  0.00  0.00    +0.042 OA
ENDBRANCH   6  14
TORSDOF 3
ENDMDL
MODEL 8
REMARK VINA RESULT:      -5.5      2.194      2.425
REMARK  Name = 
REMARK  3 active torsions:
REMARK  status: ('A' for Active; 'I' for Inactive)
REMARK    1  A    between atoms: N_2  and  C_4
REMARK    2  A    between atoms: C_6  and  N_7
REMARK    3  A    between atoms: C_12  and  N_13
REMARK                            x       y       z     vdW  Elec       q    Type
REMARK                         _______ _______ _______ _____ _____    ______ ____
ROOT
ATOM      1  C   UNL     1     -11.313  14.935  68.842  0.00  0.00    +0.303 A 
ATOM      2  C   UNL     1     -10.517  16.008  68.458  0.00  0.00    +0.154 A 
ATOM      3  C   UNL     1     -10.466  16.378  67.119  0.00  0.00    +0.341 A 
ATOM      4  C   UNL     1     -10.792  15.379  66.215  0.00  0.00    +0.333 A 
ATOM      5  O   UNL     1     -10.501  15.625  64.888  0.00  0.00    -0.273 OA
ATOM      6  C   UNL     1     -11.537  14.263  66.569  0.00  0.00    +0.341 A 
ATOM      7  C   UNL     1     -11.975  14.176  67.885  0.00  0.00    +0.154 A 
ENDROOT
BRANCH   1   9
ATOM      8  O   UNL     1     -12.527  15.931  70.465  0.00  0.00    +0.041 OA
ATOM      9  N   UNL     1     -11.896  14.889  70.152  0.00  0.00    +0.081 N 
ATOM     10  O   UNL     1     -12.158  13.692  70.751  0.00  0.00    -0.576 OA
ENDBRANCH   1   9
BRANCH   3  11
ATOM     11  N   UNL     1     -10.308  17.745  66.720  0.00  0.00    +0.085 N 
ATOM     12  O   UNL     1     -11.052  18.698  67.395  0.00  0.00    -0.576 OA
ATOM     13  O   UNL     1      -9.422  18.062  65.911  0.00  0.00    +0.042 OA
ENDBRANCH   3  11
BRANCH   6  14
ATOM     14  N   UNL     1     -12.401  13.703  65.570  0.00  0.00    +0.085 N 
ATOM     15  O   UNL     1     -12.374  12.320  65.492  0.00  0.00    -0.576 OA
ATOM     16  O   UNL     1     -13.515  14.240  65.404  0.00  0.00    +0.042 OA
ENDBRANCH   6  14
TORSDOF 3
ENDMDL
MODEL 9
REMARK VINA RESULT:      -5.4      2.380      2.938
REMARK  Name = 
REMARK  3 active torsions:
REMARK  status: ('A' for Active; 'I' for Inactive)
REMARK    1  A    between atoms: N_2  and  C_4
REMARK    2  A    between atoms: C_6  and  N_7
REMARK    3  A    between atoms: C_12  and  N_13
REMARK                            x       y       z     vdW  Elec       q    Type
REMARK                         _______ _______ _______ _____ _____    ______ ____
ROOT
ATOM      1  C   UNL     1     -11.137  15.621  68.553  0.00  0.00    +0.303 A 
ATOM      2  C   UNL     1     -10.428  16.760  68.914  0.00  0.00    +0.154 A 
ATOM      3  C   UNL     1      -9.938  17.604  67.924  0.00  0.00    +0.341 A 
ATOM      4  C   UNL     1      -9.750  17.016  66.683  0.00  0.00    +0.333 A 
ATOM      5  O   UNL     1      -9.027  17.741  65.757  0.00  0.00    -0.273 OA
ATOM      6  C   UNL     1     -10.396  15.848  66.302  0.00  0.00    +0.341 A 
ATOM      7  C   UNL     1     -11.274  15.274  67.214  0.00  0.00    +0.154 A 
ENDROOT
BRANCH   1   9
ATOM      8  O   UNL     1     -12.154  13.830  69.480  0.00  0.00    +0.041 OA
ATOM      9  N   UNL     1     -12.152  15.086  69.415  0.00  0.00    +0.081 N 
ATOM     10  O   UNL     1     -12.690  15.851  70.408  0.00  0.00    -0.576 OA
ENDBRANCH   1   9
BRANCH   3  11
ATOM     11  N   UNL     1      -9.852  19.021  68.117  0.00  0.00    +0.085 N 
ATOM     12  O   UNL     1      -8.646  19.534  68.562  0.00  0.00    -0.576 OA
ATOM     13  O   UNL     1     -10.778  19.760  67.747  0.00  0.00    +0.042 OA
ENDBRANCH   3  11
BRANCH   6  14
ATOM     14  N   UNL     1     -10.731  15.703  64.914  0.00  0.00    +0.085 N 
ATOM     15  O   UNL     1     -11.154  14.434  64.552  0.00  0.00    -0.576 OA
ATOM     16  O   UNL     1     -11.316  16.655  64.359  0.00  0.00    +0.042 OA
ENDBRANCH   6  14
TORSDOF 3
ENDMDL
