MODEL 1
REMARK VINA RESULT:      -7.0      0.000      0.000
REMARK  Name = 
REMARK  0 active torsions:
REMARK  status: ('A' for Active; 'I' for Inactive)
REMARK                            x       y       z     vdW  Elec       q    Type
REMARK                         _______ _______ _______ _____ _____    ______ ____
ROOT
ATOM      1  N   UNL     1      -8.953  16.558  65.768  0.00  0.00    +0.144 NA
ATOM      2  C   UNL     1      -9.676  16.598  66.954  0.00  0.00    +0.447 C 
ATOM      3  N   UNL     1     -10.230  15.455  67.614  0.00  0.00    -0.169 N 
ATOM      4  C   UNL     1     -11.386  16.148  68.425  0.00  0.00    +0.204 C 
ATOM      5  C   UNL     1     -11.170  15.181  69.700  0.00  0.00    +0.012 A 
ATOM      6  C   UNL     1     -11.846  13.968  69.632  0.00  0.00    -0.019 A 
ATOM      7  C   UNL     1     -11.428  12.842  68.794  0.00  0.00    +0.055 C 
ATOM      8  C   UNL     1     -11.173  13.167  67.385  0.00  0.00    +0.011 A 
ATOM      9  C   UNL     1     -11.560  12.182  66.482  0.00  0.00    -0.001 A 
ATOM     10  C   UNL     1     -11.594  12.491  65.128  0.00  0.00    -0.000 A 
ATOM     11  C   UNL     1     -10.564  13.302  64.668  0.00  0.00    +0.003 A 
ATOM     12  C   UNL     1     -10.220  14.341  65.528  0.00  0.00    +0.031 A 
ATOM     13  C   UNL     1     -12.472  13.491  70.782  0.00  0.00    -0.004 A 
ATOM     14  C   UNL     1     -12.823  14.354  71.814  0.00  0.00    -0.000 A 
ATOM     15  C   UNL     1     -12.235  15.593  71.852  0.00  0.00    -0.000 A 
ATOM     16  C   UNL     1     -11.387  15.965  70.825  0.00  0.00    -0.001 A 
ATOM     17  C   UNL     1     -10.340  17.269  69.008  0.00  0.00    +0.262 C 
ATOM     18  C   UNL     1     -10.540  14.268  66.879  0.00  0.00    +0.109 A 
ATOM     19  N   UNL     1      -9.451  17.439  67.906  0.00  0.00    -0.092 NA
ENDROOT
TORSDOF 0
ENDMDL
MODEL 2
REMARK VINA RESULT:      -7.0      2.147      5.533
REMARK  Name = 
REMARK  0 active torsions:
REMARK  status: ('A' for Active; 'I' for Inactive)
REMARK                            x       y       z     vdW  Elec       q    Type
REMARK                         _______ _______ _______ _____ _____    ______ ____
ROOT
ATOM      1  N   UNL     1     -12.420  10.950  70.181  0.00  0.00    +0.144 NA
ATOM      2  C   UNL     1     -12.097  11.809  69.137  0.00  0.00    +0.447 C 
ATOM      3  N   UNL     1     -11.723  13.182  69.292  0.00  0.00    -0.169 N 
ATOM      4  C   UNL     1     -12.119  13.728  67.871  0.00  0.00    +0.204 C 
ATOM      5  C   UNL     1     -10.845  14.719  67.816  0.00  0.00    +0.012 A 
ATOM      6  C   UNL     1     -11.039  15.953  68.426  0.00  0.00    -0.019 A 
ATOM      7  C   UNL     1     -11.050  16.158  69.876  0.00  0.00    +0.055 C 
ATOM      8  C   UNL     1     -11.936  15.264  70.632  0.00  0.00    +0.011 A 
ATOM      9  C   UNL     1     -12.572  15.856  71.718  0.00  0.00    -0.001 A 
ATOM     10  C   UNL     1     -13.611  15.175  72.340  0.00  0.00    -0.000 A 
ATOM     11  C   UNL     1     -13.440  13.802  72.469  0.00  0.00    +0.003 A 
ATOM     12  C   UNL     1     -12.876  13.184  71.356  0.00  0.00    +0.031 A 
ATOM     13  C   UNL     1     -10.545  17.091  67.794  0.00  0.00    -0.004 A 
ATOM     14  C   UNL     1     -10.287  17.095  66.428  0.00  0.00    -0.000 A 
ATOM     15  C   UNL     1     -10.180  15.888  65.786  0.00  0.00    -0.000 A 
ATOM     16  C   UNL     1     -10.412  14.725  66.498  0.00  0.00    -0.001 A 
ATOM     17  C   UNL     1     -11.295  12.512  67.144  0.00  0.00    +0.262 C 
ATOM     18  C   UNL     1     -12.140  13.925  70.440  0.00  0.00    +0.109 A 
ATOM     19  N   UNL     1     -11.500  11.435  68.056  0.00  0.00    -0.092 NA
ENDROOT
TORSDOF 0
ENDMDL
MODEL 3
REMARK VINA RESULT:      -6.8      2.663      5.001
REMARK  Name = 
REMARK  0 active torsions:
REMARK  status: ('A' for Active; 'I' for Inactive)
REMARK                            x       y       z     vdW  Elec       q    Type
REMARK                         _______ _______ _______ _____ _____    ______ ____
ROOT
ATOM      1  N   UNL     1     -14.010  13.444  72.502  0.00  0.00    +0.144 NA
ATOM      2  C   UNL     1     -13.188  14.123  71.610  0.00  0.00    +0.447 C 
ATOM      3  N   UNL     1     -12.589  13.544  70.446  0.00  0.00    -0.169 N 
ATOM      4  C   UNL     1     -11.363  14.513  70.267  0.00  0.00    +0.204 C 
ATOM      5  C   UNL     1     -11.476  14.477  68.657  0.00  0.00    +0.012 A 
ATOM      6  C   UNL     1     -10.818  13.414  68.049  0.00  0.00    -0.019 A 
ATOM      7  C   UNL     1     -11.316  12.036  68.046  0.00  0.00    +0.055 C 
ATOM      8  C   UNL     1     -11.688  11.498  69.361  0.00  0.00    +0.011 A 
ATOM      9  C   UNL     1     -11.387  10.153  69.545  0.00  0.00    -0.001 A 
ATOM     10  C   UNL     1     -11.466   9.617  70.824  0.00  0.00    -0.000 A 
ATOM     11  C   UNL     1     -12.525  10.068  71.603  0.00  0.00    +0.003 A 
ATOM     12  C   UNL     1     -12.787  11.431  71.487  0.00  0.00    +0.031 A 
ATOM     13  C   UNL     1     -10.100  13.657  66.880  0.00  0.00    -0.004 A 
ATOM     14  C   UNL     1      -9.655  14.937  66.569  0.00  0.00    -0.000 A 
ATOM     15  C   UNL     1     -10.228  15.999  67.221  0.00  0.00    -0.000 A 
ATOM     16  C   UNL     1     -11.158  15.754  68.215  0.00  0.00    -0.001 A 
ATOM     17  C   UNL     1     -12.346  15.821  70.378  0.00  0.00    +0.262 C 
ATOM     18  C   UNL     1     -12.352  12.136  70.371  0.00  0.00    +0.109 A 
ATOM     19  N   UNL     1     -13.324  15.371  71.313  0.00  0.00    -0.092 NA
ENDROOT
TORSDOF 0
ENDMDL
MODEL 4
REMARK VINA RESULT:      -6.6      1.557      2.263
REMARK  Name = 
REMARK  0 active torsions:
REMARK  status: ('A' for Active; 'I' for Inactive)
REMARK                            x       y       z     vdW  Elec       q    Type
REMARK                         _______ _______ _______ _____ _____    ______ ____
ROOT
ATOM      1  N   UNL     1     -10.171  15.773  65.124  0.00  0.00    +0.144 NA
ATOM      2  C   UNL     1     -10.794  15.340  66.289  0.00  0.00    +0.447 C 
ATOM      3  N   UNL     1     -10.767  13.996  66.781  0.00  0.00    -0.169 N 
ATOM      4  C   UNL     1     -12.078  14.004  67.649  0.00  0.00    +0.204 C 
ATOM      5  C   UNL     1     -11.414  13.075  68.791  0.00  0.00    +0.012 A 
ATOM      6  C   UNL     1     -11.494  11.708  68.551  0.00  0.00    -0.019 A 
ATOM      7  C   UNL     1     -10.657  10.997  67.582  0.00  0.00    +0.055 C 
ATOM      8  C   UNL     1     -10.622  11.576  66.234  0.00  0.00    +0.011 A 
ATOM      9  C   UNL     1     -10.574  10.645  65.201  0.00  0.00    -0.001 A 
ATOM     10  C   UNL     1     -10.790  11.077  63.899  0.00  0.00    -0.000 A 
ATOM     11  C   UNL     1     -10.236  12.309  63.572  0.00  0.00    +0.003 A 
ATOM     12  C   UNL     1     -10.348  13.275  64.568  0.00  0.00    +0.031 A 
ATOM     13  C   UNL     1     -11.805  10.864  69.614  0.00  0.00    -0.004 A 
ATOM     14  C   UNL     1     -12.459  11.346  70.742  0.00  0.00    -0.000 A 
ATOM     15  C   UNL     1     -12.471  12.701  70.954  0.00  0.00    -0.000 A 
ATOM     16  C   UNL     1     -11.909  13.535  70.004  0.00  0.00    -0.001 A 
ATOM     17  C   UNL     1     -11.607  15.385  68.397  0.00  0.00    +0.262 C 
ATOM     18  C   UNL     1     -10.555  12.898  65.890  0.00  0.00    +0.109 A 
ATOM     19  N   UNL     1     -10.923  16.066  67.347  0.00  0.00    -0.092 NA
ENDROOT
TORSDOF 0
ENDMDL
MODEL 5
REMARK VINA RESULT:      -6.5      2.098      3.689
REMARK  Name = 
REMARK  0 active torsions:
REMARK  status: ('A' for Active; 'I' for Inactive)
REMARK                            x       y       z     vdW  Elec       q    Type
REMARK                         _______ _______ _______ _____ _____    ______ ____
ROOT
ATOM      1  N   UNL     1     -11.338  11.303  66.500  0.00  0.00    +0.144 NA
ATOM      2  C   UNL     1     -11.570  11.649  67.826  0.00  0.00    +0.447 C 
ATOM      3  N   UNL     1     -11.729  12.988  68.307  0.00  0.00    -0.169 N 
ATOM      4  C   UNL     1     -11.313  12.783  69.809  0.00  0.00    +0.204 C 
ATOM      5  C   UNL     1     -12.427  13.827  70.336  0.00  0.00    +0.012 A 
ATOM      6  C   UNL     1     -12.027  15.159  70.331  0.00  0.00    -0.019 A 
ATOM      7  C   UNL     1     -11.927  15.979  69.122  0.00  0.00    +0.055 C 
ATOM      8  C   UNL     1     -11.156  15.389  68.021  0.00  0.00    +0.011 A 
ATOM      9  C   UNL     1     -10.395  16.297  67.291  0.00  0.00    -0.001 A 
ATOM     10  C   UNL     1      -9.445  15.813  66.401  0.00  0.00    -0.000 A 
ATOM     11  C   UNL     1      -9.814  14.681  65.682  0.00  0.00    +0.003 A 
ATOM     12  C   UNL     1     -10.507  13.729  66.422  0.00  0.00    +0.031 A 
ATOM     13  C   UNL     1     -12.371  15.960  71.416  0.00  0.00    -0.004 A 
ATOM     14  C   UNL     1     -12.679  15.398  72.650  0.00  0.00    -0.000 A 
ATOM     15  C   UNL     1     -12.991  14.063  72.694  0.00  0.00    -0.000 A 
ATOM     16  C   UNL     1     -12.906  13.315  71.533  0.00  0.00    -0.001 A 
ATOM     17  C   UNL     1     -12.338  11.510  69.948  0.00  0.00    +0.262 C 
ATOM     18  C   UNL     1     -11.161  14.090  67.594  0.00  0.00    +0.109 A 
ATOM     19  N   UNL     1     -12.259  10.931  68.647  0.00  0.00    -0.092 NA
ENDROOT
TORSDOF 0
ENDMDL
MODEL 6
REMARK VINA RESULT:      -6.5      2.025      5.089
REMARK  Name = 
REMARK  0 active torsions:
REMARK  status: ('A' for Active; 'I' for Inactive)
REMARK                            x       y       z     vdW  Elec       q    Type
REMARK                         _______ _______ _______ _____ _____    ______ ____
ROOT
ATOM      1  N   UNL     1     -11.934  16.333  68.498  0.00  0.00    +0.144 NA
ATOM      2  C   UNL     1     -11.453  15.033  68.400  0.00  0.00    +0.447 C 
ATOM      3  N   UNL     1     -11.891  13.935  69.208  0.00  0.00    -0.169 N 
ATOM      4  C   UNL     1     -10.624  13.008  69.107  0.00  0.00    +0.204 C 
ATOM      5  C   UNL     1     -11.520  11.666  69.060  0.00  0.00    +0.012 A 
ATOM      6  C   UNL     1     -11.882  11.161  70.304  0.00  0.00    -0.019 A 
ATOM      7  C   UNL     1     -12.923  11.744  71.153  0.00  0.00    +0.055 C 
ATOM      8  C   UNL     1     -12.805  13.187  71.395  0.00  0.00    +0.011 A 
ATOM      9  C   UNL     1     -13.168  13.595  72.674  0.00  0.00    -0.001 A 
ATOM     10  C   UNL     1     -12.857  14.887  73.079  0.00  0.00    -0.000 A 
ATOM     11  C   UNL     1     -13.001  15.874  72.111  0.00  0.00    +0.003 A 
ATOM     12  C   UNL     1     -12.567  15.505  70.842  0.00  0.00    +0.031 A 
ATOM     13  C   UNL     1     -11.829   9.783  70.503  0.00  0.00    -0.004 A 
ATOM     14  C   UNL     1     -11.030   8.977  69.701  0.00  0.00    -0.000 A 
ATOM     15  C   UNL     1     -10.586   9.485  68.507  0.00  0.00    -0.000 A 
ATOM     16  C   UNL     1     -10.878  10.799  68.187  0.00  0.00    -0.001 A 
ATOM     17  C   UNL     1     -10.618  13.148  67.473  0.00  0.00    +0.262 C 
ATOM     18  C   UNL     1     -12.460  14.162  70.500  0.00  0.00    +0.109 A 
ATOM     19  N   UNL     1     -11.076  14.486  67.294  0.00  0.00    -0.092 NA
ENDROOT
TORSDOF 0
ENDMDL
MODEL 7
REMARK VINA RESULT:      -6.4      1.715      4.254
REMARK  Name = 
REMARK  0 active torsions:
REMARK  status: ('A' for Active; 'I' for Inactive)
REMARK                            x       y       z     vdW  Elec       q    Type
REMARK                         _______ _______ _______ _____ _____    ______ ____
ROOT
ATOM      1  N   UNL     1     -11.256  16.651  64.260  0.00  0.00    +0.144 NA
ATOM      2  C   UNL     1     -11.139  15.364  64.772  0.00  0.00    +0.447 C 
ATOM      3  N   UNL     1     -11.262  15.019  66.156  0.00  0.00    -0.169 N 
ATOM      4  C   UNL     1     -10.431  13.684  66.173  0.00  0.00    +0.204 C 
ATOM      5  C   UNL     1     -11.433  12.989  67.231  0.00  0.00    +0.012 A 
ATOM      6  C   UNL     1     -11.155  13.265  68.566  0.00  0.00    -0.019 A 
ATOM      7  C   UNL     1     -11.460  14.540  69.219  0.00  0.00    +0.055 C 
ATOM      8  C   UNL     1     -10.980  15.737  68.518  0.00  0.00    +0.011 A 
ATOM      9  C   UNL     1     -10.525  16.755  69.350  0.00  0.00    -0.001 A 
ATOM     10  C   UNL     1      -9.825  17.816  68.790  0.00  0.00    -0.000 A 
ATOM     11  C   UNL     1     -10.289  18.262  67.558  0.00  0.00    +0.003 A 
ATOM     12  C   UNL     1     -10.672  17.247  66.685  0.00  0.00    +0.031 A 
ATOM     13  C   UNL     1     -11.247  12.228  69.491  0.00  0.00    -0.004 A 
ATOM     14  C   UNL     1     -11.156  10.901  69.088  0.00  0.00    -0.000 A 
ATOM     15  C   UNL     1     -11.337  10.612  67.760  0.00  0.00    -0.000 A 
ATOM     16  C   UNL     1     -11.520  11.652  66.866  0.00  0.00    -0.001 A 
ATOM     17  C   UNL     1     -11.274  13.110  64.889  0.00  0.00    +0.262 C 
ATOM     18  C   UNL     1     -11.002  15.988  67.174  0.00  0.00    +0.109 A 
ATOM     19  N   UNL     1     -11.514  14.302  64.143  0.00  0.00    -0.092 NA
ENDROOT
TORSDOF 0
ENDMDL
MODEL 8
REMARK VINA RESULT:      -6.3      1.181      4.552
REMARK  Name = 
REMARK  0 active torsions:
REMARK  status: ('A' for Active; 'I' for Inactive)
REMARK                            x       y       z     vdW  Elec       q    Type
REMARK                         _______ _______ _______ _____ _____    ______ ____
ROOT
ATOM      1  N   UNL     1     -10.888  17.677  67.937  0.00  0.00    +0.144 NA
ATOM      2  C   UNL     1     -10.459  16.483  67.368  0.00  0.00    +0.447 C 
ATOM      3  N   UNL     1     -10.945  15.185  67.725  0.00  0.00    -0.169 N 
ATOM      4  C   UNL     1      -9.717  14.309  67.282  0.00  0.00    +0.204 C 
ATOM      5  C   UNL     1     -10.666  13.112  66.758  0.00  0.00    +0.012 A 
ATOM      6  C   UNL     1     -11.055  12.204  67.737  0.00  0.00    -0.019 A 
ATOM      7  C   UNL     1     -12.075  12.479  68.751  0.00  0.00    +0.055 C 
ATOM      8  C   UNL     1     -11.900  13.729  69.499  0.00  0.00    +0.011 A 
ATOM      9  C   UNL     1     -12.254  13.658  70.843  0.00  0.00    -0.001 A 
ATOM     10  C   UNL     1     -11.892  14.701  71.687  0.00  0.00    -0.000 A 
ATOM     11  C   UNL     1     -11.992  15.977  71.146  0.00  0.00    +0.003 A 
ATOM     12  C   UNL     1     -11.566  16.078  69.825  0.00  0.00    +0.031 A 
ATOM     13  C   UNL     1     -11.058  10.848  67.421  0.00  0.00    -0.004 A 
ATOM     14  C   UNL     1     -10.288  10.357  66.373  0.00  0.00    -0.000 A 
ATOM     15  C   UNL     1      -9.818  11.247  65.441  0.00  0.00    -0.000 A 
ATOM     16  C   UNL     1     -10.055  12.597  65.624  0.00  0.00    -0.001 A 
ATOM     17  C   UNL     1      -9.697  15.033  65.811  0.00  0.00    +0.262 C 
ATOM     18  C   UNL     1     -11.511  14.948  69.017  0.00  0.00    +0.109 A 
ATOM     19  N   UNL     1     -10.099  16.362  66.136  0.00  0.00    -0.092 NA
ENDROOT
TORSDOF 0
ENDMDL
MODEL 9
REMARK VINA RESULT:      -6.3      3.716      5.825
REMARK  Name = 
REMARK  0 active torsions:
REMARK  status: ('A' for Active; 'I' for Inactive)
REMARK                            x       y       z     vdW  Elec       q    Type
REMARK                         _______ _______ _______ _____ _____    ______ ____
ROOT
ATOM      1  N   UNL     1     -12.696  14.877  63.944  0.00  0.00    +0.144 NA
ATOM      2  C   UNL     1     -11.997  13.675  63.936  0.00  0.00    +0.447 C 
ATOM      3  N   UNL     1     -11.014  13.294  64.903  0.00  0.00    -0.169 N 
ATOM      4  C   UNL     1     -10.189  12.261  64.051  0.00  0.00    +0.204 C 
ATOM      5  C   UNL     1      -9.956  11.290  65.320  0.00  0.00    +0.012 A 
ATOM      6  C   UNL     1      -8.863  11.620  66.114  0.00  0.00    -0.019 A 
ATOM      7  C   UNL     1      -8.843  12.742  67.055  0.00  0.00    +0.055 C 
ATOM      8  C   UNL     1      -9.263  14.035  66.503  0.00  0.00    +0.011 A 
ATOM      9  C   UNL     1      -8.559  15.132  66.989  0.00  0.00    -0.001 A 
ATOM     10  C   UNL     1      -8.705  16.358  66.353  0.00  0.00    -0.000 A 
ATOM     11  C   UNL     1      -9.989  16.662  65.915  0.00  0.00    +0.003 A 
ATOM     12  C   UNL     1     -10.675  15.590  65.353  0.00  0.00    +0.031 A 
ATOM     13  C   UNL     1      -8.053  10.591  66.591  0.00  0.00    -0.004 A 
ATOM     14  C   UNL     1      -8.025   9.354  65.958  0.00  0.00    -0.000 A 
ATOM     15  C   UNL     1      -9.047   9.040  65.100  0.00  0.00    -0.000 A 
ATOM     16  C   UNL     1     -10.016   9.991  64.834  0.00  0.00    -0.001 A 
ATOM     17  C   UNL     1     -11.564  11.480  63.616  0.00  0.00    +0.262 C 
ATOM     18  C   UNL     1     -10.296  14.285  65.642  0.00  0.00    +0.109 A 
ATOM     19  N   UNL     1     -12.494  12.557  63.525  0.00  0.00    -0.092 NA
ENDROOT
TORSDOF 0
ENDMDL
