MODEL 1
REMARK VINA RESULT:      -7.1      0.000      0.000
REMARK  Name = 
REMARK  18 active torsions:
REMARK  status: ('A' for Active; 'I' for Inactive)
REMARK    1  A    between atoms: C_2  and  C_3
REMARK    2  A    between atoms: C_3  and  C_4
REMARK    3  A    between atoms: C_4  and  C_5
REMARK    4  A    between atoms: C_5  and  C_6
REMARK    5  A    between atoms: C_6  and  O_7
REMARK    6  A    between atoms: O_7  and  C_8
REMARK    7  A    between atoms: C_8  and  N_10
REMARK    8  A    between atoms: C_11  and  C_13
REMARK    9  A    between atoms: C_16  and  N_17
REMARK   10  A    between atoms: N_17  and  C_18
REMARK   11  A    between atoms: C_18  and  C_19
REMARK   12  A    between atoms: C_23  and  C_24
REMARK   13  A    between atoms: N_26  and  C_27
REMARK   14  A    between atoms: N_26  and  C_34
REMARK   15  A    between atoms: C_27  and  C_28
REMARK   16  A    between atoms: C_28  and  C_29
REMARK   17  A    between atoms: C_29  and  O_31
REMARK   18  A    between atoms: O_31  and  C_32
REMARK                            x       y       z     vdW  Elec       q    Type
REMARK                         _______ _______ _______ _____ _____    ______ ____
ROOT
ATOM      1  C   UNL     1      -6.331  13.998  69.158  0.00  0.00    +0.142 A 
ATOM      2  N   UNL     1      -6.270  12.677  69.451  0.00  0.00    -0.311 N 
ATOM      3  C   UNL     1      -5.658  12.120  70.654  0.00  0.00    +0.132 C 
ATOM      4  C   UNL     1      -7.112  12.070  68.581  0.00  0.00    +0.079 A 
ATOM      5  C   UNL     1      -7.953  13.023  68.017  0.00  0.00    +0.099 A 
ATOM      6  C   UNL     1      -9.257  12.711  67.644  0.00  0.00    +0.025 A 
ATOM      7  C   UNL     1      -9.794  11.466  67.955  0.00  0.00    +0.056 A 
ATOM      8  C   UNL     1      -8.842  10.461  68.092  0.00  0.00    +0.006 A 
ATOM      9  C   UNL     1      -7.541  10.752  68.484  0.00  0.00    +0.019 A 
ATOM     10  N   UNL     1      -7.281  14.186  68.210  0.00  0.00    -0.229 NA
ENDROOT
BRANCH   7  11
ATOM     11  C   UNL     1     -11.151  11.326  68.502  0.00  0.00    +0.254 C 
ATOM     12  N   UNL     1     -11.447  11.489  69.882  0.00  0.00    -0.240 N 
ATOM     13  O   UNL     1     -12.131  11.082  67.734  0.00  0.00    -0.270 OA
BRANCH  12  14
ATOM     14  C   UNL     1     -11.585  10.280  70.638  0.00  0.00    +0.138 A 
ATOM     15  N   UNL     1     -12.778  10.006  71.218  0.00  0.00    -0.229 NA
ATOM     16  C   UNL     1     -12.895   9.092  72.209  0.00  0.00    +0.100 A 
ATOM     17  C   UNL     1     -11.951   8.075  72.237  0.00  0.00    +0.021 A 
ATOM     18  C   UNL     1     -10.689   8.382  71.772  0.00  0.00    +0.004 A 
ATOM     19  C   UNL     1     -10.497   9.542  71.061  0.00  0.00    +0.035 A 
ENDBRANCH  12  14
BRANCH  12  20
ATOM     20  C   UNL     1     -12.414  12.536  70.205  0.00  0.00    +0.112 C 
BRANCH  20  21
ATOM     21  C   UNL     1     -11.757  13.859  69.928  0.00  0.00    +0.131 C 
BRANCH  21  22
ATOM     22  C   UNL     1     -12.520  15.015  70.441  0.00  0.00    +0.319 C 
ATOM     23  O   UNL     1     -12.022  16.172  70.341  0.00  0.00    -0.250 OA
BRANCH  22  24
ATOM     24  O   UNL     1     -13.579  14.876  71.341  0.00  0.00    -0.448 OA
BRANCH  24  25
ATOM     25  C   UNL     1     -13.638  15.673  72.502  0.00  0.00    +0.209 C 
ATOM     26  C   UNL     1     -12.665  15.133  73.533  0.00  0.00    +0.051 C 
ENDBRANCH  24  25
ENDBRANCH  22  24
ENDBRANCH  21  22
ENDBRANCH  20  21
ENDBRANCH  12  20
ENDBRANCH   7  11
BRANCH   1  27
ATOM     27  C   UNL     1      -5.787  15.114  69.994  0.00  0.00    +0.176 C 
BRANCH  27  28
ATOM     28  N   UNL     1      -5.039  15.973  69.113  0.00  0.00    -0.229 NA
BRANCH  28  32
ATOM     29  C   UNL     1      -8.043  18.043  67.239  0.00  0.00    +0.089 A 
ATOM     30  C   UNL     1      -7.789  18.272  68.586  0.00  0.00    +0.009 A 
ATOM     31  C   UNL     1      -6.619  17.825  69.188  0.00  0.00    +0.016 A 
ATOM     32  C   UNL     1      -5.707  17.071  68.484  0.00  0.00    +0.066 A 
ATOM     33  C   UNL     1      -5.787  17.158  67.099  0.00  0.00    +0.016 A 
ATOM     34  C   UNL     1      -6.941  17.628  66.500  0.00  0.00    +0.009 A 
BRANCH  29  36
ATOM     35  N   UNL     1      -9.566  17.192  65.632  0.00  0.00    +0.074 NA
ATOM     36  C   UNL     1      -9.405  17.741  66.784  0.00  0.00    +0.412 C 
ATOM     37  N   UNL     1     -10.550  18.358  67.362  0.00  0.00    +0.214 NA
BRANCH  35  38
ATOM     38  C   UNL     1     -10.783  16.513  65.320  0.00  0.00    +0.543 C 
ATOM     39  O   UNL     1     -11.366  16.881  64.256  0.00  0.00    -0.198 OA
BRANCH  38  40
ATOM     40  O   UNL     1     -10.944  15.197  65.762  0.00  0.00    -0.414 OA
BRANCH  40  41
ATOM     41  C   UNL     1     -10.778  14.187  64.789  0.00  0.00    +0.213 C 
BRANCH  41  42
ATOM     42  C   UNL     1     -11.965  13.255  64.912  0.00  0.00    +0.048 C 
BRANCH  42  43
ATOM     43  C   UNL     1     -11.729  11.962  64.174  0.00  0.00    +0.004 C 
BRANCH  43  44
ATOM     44  C   UNL     1     -10.327  11.956  63.582  0.00  0.00    +0.000 C 
BRANCH  44  46
ATOM     45  C   UNL     1      -9.138   9.946  64.407  0.00  0.00    +0.000 C 
ATOM     46  C   UNL     1      -9.932  10.540  63.269  0.00  0.00    +0.000 C 
ENDBRANCH  44  46
ENDBRANCH  43  44
ENDBRANCH  42  43
ENDBRANCH  41  42
ENDBRANCH  40  41
ENDBRANCH  38  40
ENDBRANCH  35  38
ENDBRANCH  29  36
ENDBRANCH  28  32
ENDBRANCH  27  28
ENDBRANCH   1  27
TORSDOF 18
ENDMDL
MODEL 2
REMARK VINA RESULT:      -6.6      2.784      6.597
REMARK  Name = 
REMARK  18 active torsions:
REMARK  status: ('A' for Active; 'I' for Inactive)
REMARK    1  A    between atoms: C_2  and  C_3
REMARK    2  A    between atoms: C_3  and  C_4
REMARK    3  A    between atoms: C_4  and  C_5
REMARK    4  A    between atoms: C_5  and  C_6
REMARK    5  A    between atoms: C_6  and  O_7
REMARK    6  A    between atoms: O_7  and  C_8
REMARK    7  A    between atoms: C_8  and  N_10
REMARK    8  A    between atoms: C_11  and  C_13
REMARK    9  A    between atoms: C_16  and  N_17
REMARK   10  A    between atoms: N_17  and  C_18
REMARK   11  A    between atoms: C_18  and  C_19
REMARK   12  A    between atoms: C_23  and  C_24
REMARK   13  A    between atoms: N_26  and  C_27
REMARK   14  A    between atoms: N_26  and  C_34
REMARK   15  A    between atoms: C_27  and  C_28
REMARK   16  A    between atoms: C_28  and  C_29
REMARK   17  A    between atoms: C_29  and  O_31
REMARK   18  A    between atoms: O_31  and  C_32
REMARK                            x       y       z     vdW  Elec       q    Type
REMARK                         _______ _______ _______ _____ _____    ______ ____
ROOT
ATOM      1  C   UNL     1      -7.865  10.118  66.223  0.00  0.00    +0.142 A 
ATOM      2  N   UNL     1      -7.447  11.025  67.139  0.00  0.00    -0.311 N 
ATOM      3  C   UNL     1      -7.729  12.456  67.078  0.00  0.00    +0.132 C 
ATOM      4  C   UNL     1      -7.003  10.301  68.193  0.00  0.00    +0.079 A 
ATOM      5  C   UNL     1      -7.480   8.999  68.089  0.00  0.00    +0.099 A 
ATOM      6  C   UNL     1      -7.771   8.240  69.218  0.00  0.00    +0.025 A 
ATOM      7  C   UNL     1      -7.720   8.819  70.483  0.00  0.00    +0.056 A 
ATOM      8  C   UNL     1      -6.856   9.905  70.569  0.00  0.00    +0.006 A 
ATOM      9  C   UNL     1      -6.570  10.688  69.456  0.00  0.00    +0.019 A 
ATOM     10  N   UNL     1      -7.781   8.882  66.772  0.00  0.00    -0.229 NA
ENDROOT
BRANCH   7  11
ATOM     11  C   UNL     1      -8.775   8.587  71.479  0.00  0.00    +0.254 C 
ATOM     12  N   UNL     1     -10.115   8.274  71.126  0.00  0.00    -0.240 N 
ATOM     13  O   UNL     1      -8.507   8.628  72.719  0.00  0.00    -0.270 OA
BRANCH  12  14
ATOM     14  C   UNL     1     -11.043   9.365  71.169  0.00  0.00    +0.138 A 
ATOM     15  N   UNL     1     -12.124   9.269  71.980  0.00  0.00    -0.229 NA
ATOM     16  C   UNL     1     -13.202  10.074  71.828  0.00  0.00    +0.100 A 
ATOM     17  C   UNL     1     -12.980  11.313  71.244  0.00  0.00    +0.021 A 
ATOM     18  C   UNL     1     -11.965  11.392  70.313  0.00  0.00    +0.004 A 
ATOM     19  C   UNL     1     -11.061  10.362  70.214  0.00  0.00    +0.035 A 
ENDBRANCH  12  14
BRANCH  12  20
ATOM     20  C   UNL     1     -10.627   7.005  71.637  0.00  0.00    +0.112 C 
BRANCH  20  21
ATOM     21  C   UNL     1      -9.903   5.903  70.914  0.00  0.00    +0.131 C 
BRANCH  21  22
ATOM     22  C   UNL     1     -10.349   5.721  69.518  0.00  0.00    +0.319 C 
ATOM     23  O   UNL     1     -11.507   6.104  69.189  0.00  0.00    -0.250 OA
BRANCH  22  24
ATOM     24  O   UNL     1      -9.720   4.837  68.638  0.00  0.00    -0.448 OA
BRANCH  24  25
ATOM     25  C   UNL     1     -10.126   4.762  67.291  0.00  0.00    +0.209 C 
ATOM     26  C   UNL     1      -9.166   5.562  66.430  0.00  0.00    +0.051 C 
ENDBRANCH  24  25
ENDBRANCH  22  24
ENDBRANCH  21  22
ENDBRANCH  20  21
ENDBRANCH  12  20
ENDBRANCH   7  11
BRANCH   1  27
ATOM     27  C   UNL     1      -8.673  10.408  64.997  0.00  0.00    +0.176 C 
BRANCH  27  28
ATOM     28  N   UNL     1     -10.059  10.299  65.372  0.00  0.00    -0.229 NA
BRANCH  28  32
ATOM     29  C   UNL     1     -11.124  14.201  66.056  0.00  0.00    +0.089 A 
ATOM     30  C   UNL     1     -10.749  13.806  64.777  0.00  0.00    +0.009 A 
ATOM     31  C   UNL     1     -10.663  12.464  64.431  0.00  0.00    +0.016 A 
ATOM     32  C   UNL     1     -10.872  11.478  65.370  0.00  0.00    +0.066 A 
ATOM     33  C   UNL     1     -11.579  11.859  66.504  0.00  0.00    +0.016 A 
ATOM     34  C   UNL     1     -11.688  13.197  66.835  0.00  0.00    +0.009 A 
BRANCH  29  36
ATOM     35  N   UNL     1     -11.227  16.165  67.382  0.00  0.00    +0.074 NA
ATOM     36  C   UNL     1     -10.495  15.370  66.683  0.00  0.00    +0.412 C 
ATOM     37  N   UNL     1      -9.236  15.872  66.255  0.00  0.00    +0.214 NA
BRANCH  35  38
ATOM     38  C   UNL     1     -10.627  17.051  68.329  0.00  0.00    +0.543 C 
ATOM     39  O   UNL     1     -10.721  18.288  68.067  0.00  0.00    -0.198 OA
BRANCH  38  40
ATOM     40  O   UNL     1     -10.546  16.644  69.663  0.00  0.00    -0.414 OA
BRANCH  40  41
ATOM     41  C   UNL     1     -10.652  15.255  69.901  0.00  0.00    +0.213 C 
BRANCH  41  42
ATOM     42  C   UNL     1     -11.492  15.083  71.148  0.00  0.00    +0.048 C 
BRANCH  42  43
ATOM     43  C   UNL     1     -12.904  15.567  70.933  0.00  0.00    +0.004 C 
BRANCH  43  44
ATOM     44  C   UNL     1     -13.696  15.434  72.226  0.00  0.00    +0.000 C 
BRANCH  44  46
ATOM     45  C   UNL     1     -12.494  15.682  74.377  0.00  0.00    +0.000 C 
ATOM     46  C   UNL     1     -12.847  14.738  73.253  0.00  0.00    +0.000 C 
ENDBRANCH  44  46
ENDBRANCH  43  44
ENDBRANCH  42  43
ENDBRANCH  41  42
ENDBRANCH  40  41
ENDBRANCH  38  40
ENDBRANCH  35  38
ENDBRANCH  29  36
ENDBRANCH  28  32
ENDBRANCH  27  28
ENDBRANCH   1  27
TORSDOF 18
ENDMDL
MODEL 3
REMARK VINA RESULT:      -6.6      2.297      5.878
REMARK  Name = 
REMARK  18 active torsions:
REMARK  status: ('A' for Active; 'I' for Inactive)
REMARK    1  A    between atoms: C_2  and  C_3
REMARK    2  A    between atoms: C_3  and  C_4
REMARK    3  A    between atoms: C_4  and  C_5
REMARK    4  A    between atoms: C_5  and  C_6
REMARK    5  A    between atoms: C_6  and  O_7
REMARK    6  A    between atoms: O_7  and  C_8
REMARK    7  A    between atoms: C_8  and  N_10
REMARK    8  A    between atoms: C_11  and  C_13
REMARK    9  A    between atoms: C_16  and  N_17
REMARK   10  A    between atoms: N_17  and  C_18
REMARK   11  A    between atoms: C_18  and  C_19
REMARK   12  A    between atoms: C_23  and  C_24
REMARK   13  A    between atoms: N_26  and  C_27
REMARK   14  A    between atoms: N_26  and  C_34
REMARK   15  A    between atoms: C_27  and  C_28
REMARK   16  A    between atoms: C_28  and  C_29
REMARK   17  A    between atoms: C_29  and  O_31
REMARK   18  A    between atoms: O_31  and  C_32
REMARK                            x       y       z     vdW  Elec       q    Type
REMARK                         _______ _______ _______ _____ _____    ______ ____
ROOT
ATOM      1  C   UNL     1      -7.490  20.185  67.476  0.00  0.00    +0.142 A 
ATOM      2  N   UNL     1      -7.774  19.350  66.447  0.00  0.00    -0.311 N 
ATOM      3  C   UNL     1      -6.812  18.923  65.435  0.00  0.00    +0.132 C 
ATOM      4  C   UNL     1      -8.983  18.811  66.735  0.00  0.00    +0.079 A 
ATOM      5  C   UNL     1      -9.267  19.018  68.081  0.00  0.00    +0.099 A 
ATOM      6  C   UNL     1     -10.018  18.104  68.813  0.00  0.00    +0.025 A 
ATOM      7  C   UNL     1     -10.388  16.888  68.244  0.00  0.00    +0.056 A 
ATOM      8  C   UNL     1     -10.476  16.920  66.857  0.00  0.00    +0.006 A 
ATOM      9  C   UNL     1      -9.717  17.812  66.108  0.00  0.00    +0.019 A 
ATOM     10  N   UNL     1      -8.459  20.055  68.415  0.00  0.00    -0.229 NA
ENDROOT
BRANCH   7  11
ATOM     11  C   UNL     1     -10.270  15.623  68.984  0.00  0.00    +0.254 C 
ATOM     12  N   UNL     1     -11.351  14.716  69.136  0.00  0.00    -0.240 N 
ATOM     13  O   UNL     1      -9.160  15.278  69.493  0.00  0.00    -0.270 OA
BRANCH  12  14
ATOM     14  C   UNL     1     -12.044  14.775  70.389  0.00  0.00    +0.138 A 
ATOM     15  N   UNL     1     -11.973  15.914  71.120  0.00  0.00    -0.229 NA
ATOM     16  C   UNL     1     -12.295  15.938  72.435  0.00  0.00    +0.100 A 
ATOM     17  C   UNL     1     -13.199  14.981  72.875  0.00  0.00    +0.021 A 
ATOM     18  C   UNL     1     -13.187  13.765  72.224  0.00  0.00    +0.004 A 
ATOM     19  C   UNL     1     -12.518  13.647  71.030  0.00  0.00    +0.035 A 
ENDBRANCH  12  14
BRANCH  12  20
ATOM     20  C   UNL     1     -11.130  13.369  68.615  0.00  0.00    +0.112 C 
BRANCH  20  21
ATOM     21  C   UNL     1     -11.743  13.310  67.243  0.00  0.00    +0.131 C 
BRANCH  21  22
ATOM     22  C   UNL     1     -10.749  13.335  66.152  0.00  0.00    +0.319 C 
ATOM     23  O   UNL     1      -9.544  13.057  66.412  0.00  0.00    -0.250 OA
BRANCH  22  24
ATOM     24  O   UNL     1     -10.982  13.989  64.939  0.00  0.00    -0.448 OA
BRANCH  24  25
ATOM     25  C   UNL     1     -12.131  13.694  64.178  0.00  0.00    +0.209 C 
ATOM     26  C   UNL     1     -11.984  12.316  63.560  0.00  0.00    +0.051 C 
ENDBRANCH  24  25
ENDBRANCH  22  24
ENDBRANCH  21  22
ENDBRANCH  20  21
ENDBRANCH  12  20
ENDBRANCH   7  11
BRANCH   1  27
ATOM     27  C   UNL     1      -6.165  20.819  67.759  0.00  0.00    +0.176 C 
BRANCH  27  28
ATOM     28  N   UNL     1      -5.760  20.379  69.069  0.00  0.00    -0.229 NA
BRANCH  28  32
ATOM     29  C   UNL     1      -5.290  16.333  68.582  0.00  0.00    +0.089 A 
ATOM     30  C   UNL     1      -4.477  17.209  67.872  0.00  0.00    +0.009 A 
ATOM     31  C   UNL     1      -4.394  18.554  68.210  0.00  0.00    +0.016 A 
ATOM     32  C   UNL     1      -5.177  19.079  69.213  0.00  0.00    +0.066 A 
ATOM     33  C   UNL     1      -5.692  18.165  70.124  0.00  0.00    +0.016 A 
ATOM     34  C   UNL     1      -5.750  16.822  69.800  0.00  0.00    +0.009 A 
BRANCH  29  36
ATOM     35  N   UNL     1      -5.536  14.072  67.913  0.00  0.00    +0.074 NA
ATOM     36  C   UNL     1      -6.014  15.266  67.883  0.00  0.00    +0.412 C 
ATOM     37  N   UNL     1      -6.982  15.541  66.877  0.00  0.00    +0.214 NA
BRANCH  35  38
ATOM     38  C   UNL     1      -6.375  12.952  67.623  0.00  0.00    +0.543 C 
ATOM     39  O   UNL     1      -5.975  12.186  66.695  0.00  0.00    -0.198 OA
BRANCH  38  40
ATOM     40  O   UNL     1      -7.156  12.421  68.652  0.00  0.00    -0.414 OA
BRANCH  40  41
ATOM     41  C   UNL     1      -6.867  11.092  69.033  0.00  0.00    +0.213 C 
BRANCH  41  42
ATOM     42  C   UNL     1      -8.174  10.464  69.470  0.00  0.00    +0.048 C 
BRANCH  42  43
ATOM     43  C   UNL     1      -9.095  10.236  68.298  0.00  0.00    +0.004 C 
BRANCH  43  44
ATOM     44  C   UNL     1     -10.393   9.602  68.779  0.00  0.00    +0.000 C 
BRANCH  44  46
ATOM     45  C   UNL     1     -11.965  10.132  70.617  0.00  0.00    +0.000 C 
ATOM     46  C   UNL     1     -10.531   9.827  70.259  0.00  0.00    +0.000 C 
ENDBRANCH  44  46
ENDBRANCH  43  44
ENDBRANCH  42  43
ENDBRANCH  41  42
ENDBRANCH  40  41
ENDBRANCH  38  40
ENDBRANCH  35  38
ENDBRANCH  29  36
ENDBRANCH  28  32
ENDBRANCH  27  28
ENDBRANCH   1  27
TORSDOF 18
ENDMDL
MODEL 4
REMARK VINA RESULT:      -6.6      1.826      4.796
REMARK  Name = 
REMARK  18 active torsions:
REMARK  status: ('A' for Active; 'I' for Inactive)
REMARK    1  A    between atoms: C_2  and  C_3
REMARK    2  A    between atoms: C_3  and  C_4
REMARK    3  A    between atoms: C_4  and  C_5
REMARK    4  A    between atoms: C_5  and  C_6
REMARK    5  A    between atoms: C_6  and  O_7
REMARK    6  A    between atoms: O_7  and  C_8
REMARK    7  A    between atoms: C_8  and  N_10
REMARK    8  A    between atoms: C_11  and  C_13
REMARK    9  A    between atoms: C_16  and  N_17
REMARK   10  A    between atoms: N_17  and  C_18
REMARK   11  A    between atoms: C_18  and  C_19
REMARK   12  A    between atoms: C_23  and  C_24
REMARK   13  A    between atoms: N_26  and  C_27
REMARK   14  A    between atoms: N_26  and  C_34
REMARK   15  A    between atoms: C_27  and  C_28
REMARK   16  A    between atoms: C_28  and  C_29
REMARK   17  A    between atoms: C_29  and  O_31
REMARK   18  A    between atoms: O_31  and  C_32
REMARK                            x       y       z     vdW  Elec       q    Type
REMARK                         _______ _______ _______ _____ _____    ______ ____
ROOT
ATOM      1  C   UNL     1      -5.676  15.657  69.600  0.00  0.00    +0.142 A 
ATOM      2  N   UNL     1      -5.658  14.487  70.283  0.00  0.00    -0.311 N 
ATOM      3  C   UNL     1      -5.606  14.377  71.738  0.00  0.00    +0.132 C 
ATOM      4  C   UNL     1      -5.979  13.531  69.380  0.00  0.00    +0.079 A 
ATOM      5  C   UNL     1      -6.549  14.130  68.262  0.00  0.00    +0.099 A 
ATOM      6  C   UNL     1      -7.525  13.484  67.509  0.00  0.00    +0.025 A 
ATOM      7  C   UNL     1      -8.054  12.272  67.944  0.00  0.00    +0.056 A 
ATOM      8  C   UNL     1      -7.193  11.542  68.755  0.00  0.00    +0.006 A 
ATOM      9  C   UNL     1      -6.226  12.172  69.529  0.00  0.00    +0.019 A 
ATOM     10  N   UNL     1      -6.117  15.414  68.342  0.00  0.00    -0.229 NA
ENDROOT
BRANCH   7  11
ATOM     11  C   UNL     1      -9.499  12.005  67.910  0.00  0.00    +0.254 C 
ATOM     12  N   UNL     1     -10.092  11.085  67.004  0.00  0.00    -0.240 N 
ATOM     13  O   UNL     1     -10.277  12.579  68.732  0.00  0.00    -0.270 OA
BRANCH  12  14
ATOM     14  C   UNL     1     -10.703  11.659  65.842  0.00  0.00    +0.138 A 
ATOM     15  N   UNL     1     -11.833  12.391  65.994  0.00  0.00    -0.229 NA
ATOM     16  C   UNL     1     -12.647  12.669  64.948  0.00  0.00    +0.100 A 
ATOM     17  C   UNL     1     -12.062  12.695  63.690  0.00  0.00    +0.021 A 
ATOM     18  C   UNL     1     -10.991  11.852  63.482  0.00  0.00    +0.004 A 
ATOM     19  C   UNL     1     -10.383  11.257  64.560  0.00  0.00    +0.035 A 
ENDBRANCH  12  14
BRANCH  12  20
ATOM     20  C   UNL     1     -10.832   9.982  67.613  0.00  0.00    +0.112 C 
BRANCH  20  21
ATOM     21  C   UNL     1      -9.832   9.087  68.290  0.00  0.00    +0.131 C 
BRANCH  21  22
ATOM     22  C   UNL     1     -10.253   8.645  69.635  0.00  0.00    +0.319 C 
ATOM     23  O   UNL     1     -10.798   7.512  69.765  0.00  0.00    -0.250 OA
BRANCH  22  24
ATOM     24  O   UNL     1     -10.416   9.533  70.701  0.00  0.00    -0.448 OA
BRANCH  24  25
ATOM     25  C   UNL     1     -11.627   9.572  71.418  0.00  0.00    +0.209 C 
ATOM     26  C   UNL     1     -12.428  10.788  70.988  0.00  0.00    +0.051 C 
ENDBRANCH  24  25
ENDBRANCH  22  24
ENDBRANCH  21  22
ENDBRANCH  20  21
ENDBRANCH  12  20
ENDBRANCH   7  11
BRANCH   1  27
ATOM     27  C   UNL     1      -5.642  17.029  70.196  0.00  0.00    +0.176 C 
BRANCH  27  28
ATOM     28  N   UNL     1      -5.023  17.894  69.225  0.00  0.00    -0.229 NA
BRANCH  28  32
ATOM     29  C   UNL     1      -8.205  19.167  66.970  0.00  0.00    +0.089 A 
ATOM     30  C   UNL     1      -8.138  19.506  68.317  0.00  0.00    +0.009 A 
ATOM     31  C   UNL     1      -6.964  19.355  69.044  0.00  0.00    +0.016 A 
ATOM     32  C   UNL     1      -5.847  18.789  68.470  0.00  0.00    +0.066 A 
ATOM     33  C   UNL     1      -5.809  18.794  67.081  0.00  0.00    +0.016 A 
ATOM     34  C   UNL     1      -6.973  18.971  66.356  0.00  0.00    +0.009 A 
BRANCH  29  36
ATOM     35  N   UNL     1      -9.322  17.422  65.816  0.00  0.00    +0.074 NA
ATOM     36  C   UNL     1      -9.419  18.553  66.422  0.00  0.00    +0.412 C 
ATOM     37  N   UNL     1     -10.607  19.301  66.190  0.00  0.00    +0.214 NA
BRANCH  35  38
ATOM     38  C   UNL     1     -10.475  16.599  65.635  0.00  0.00    +0.543 C 
ATOM     39  O   UNL     1     -10.963  16.577  64.465  0.00  0.00    -0.198 OA
BRANCH  38  40
ATOM     40  O   UNL     1     -10.627  15.477  66.456  0.00  0.00    -0.414 OA
BRANCH  40  41
ATOM     41  C   UNL     1     -11.337  15.676  67.660  0.00  0.00    +0.213 C 
BRANCH  41  42
ATOM     42  C   UNL     1     -10.308  15.884  68.751  0.00  0.00    +0.048 C 
BRANCH  42  43
ATOM     43  C   UNL     1     -10.961  16.204  70.071  0.00  0.00    +0.004 C 
BRANCH  43  44
ATOM     44  C   UNL     1     -12.250  15.406  70.215  0.00  0.00    +0.000 C 
BRANCH  44  46
ATOM     45  C   UNL     1     -12.351  15.729  72.668  0.00  0.00    +0.000 C 
ATOM     46  C   UNL     1     -12.255  14.718  71.552  0.00  0.00    +0.000 C 
ENDBRANCH  44  46
ENDBRANCH  43  44
ENDBRANCH  42  43
ENDBRANCH  41  42
ENDBRANCH  40  41
ENDBRANCH  38  40
ENDBRANCH  35  38
ENDBRANCH  29  36
ENDBRANCH  28  32
ENDBRANCH  27  28
ENDBRANCH   1  27
TORSDOF 18
ENDMDL
MODEL 5
REMARK VINA RESULT:      -6.5      3.245      8.727
REMARK  Name = 
REMARK  18 active torsions:
REMARK  status: ('A' for Active; 'I' for Inactive)
REMARK    1  A    between atoms: C_2  and  C_3
REMARK    2  A    between atoms: C_3  and  C_4
REMARK    3  A    between atoms: C_4  and  C_5
REMARK    4  A    between atoms: C_5  and  C_6
REMARK    5  A    between atoms: C_6  and  O_7
REMARK    6  A    between atoms: O_7  and  C_8
REMARK    7  A    between atoms: C_8  and  N_10
REMARK    8  A    between atoms: C_11  and  C_13
REMARK    9  A    between atoms: C_16  and  N_17
REMARK   10  A    between atoms: N_17  and  C_18
REMARK   11  A    between atoms: C_18  and  C_19
REMARK   12  A    between atoms: C_23  and  C_24
REMARK   13  A    between atoms: N_26  and  C_27
REMARK   14  A    between atoms: N_26  and  C_34
REMARK   15  A    between atoms: C_27  and  C_28
REMARK   16  A    between atoms: C_28  and  C_29
REMARK   17  A    between atoms: C_29  and  O_31
REMARK   18  A    between atoms: O_31  and  C_32
REMARK                            x       y       z     vdW  Elec       q    Type
REMARK                         _______ _______ _______ _____ _____    ______ ____
ROOT
ATOM      1  C   UNL     1     -10.661  16.501  65.780  0.00  0.00    +0.142 A 
ATOM      2  N   UNL     1     -10.380  16.432  67.103  0.00  0.00    -0.311 N 
ATOM      3  C   UNL     1     -10.011  15.208  67.810  0.00  0.00    +0.132 C 
ATOM      4  C   UNL     1     -10.239  17.714  67.515  0.00  0.00    +0.079 A 
ATOM      5  C   UNL     1     -10.064  18.535  66.406  0.00  0.00    +0.099 A 
ATOM      6  C   UNL     1      -9.284  19.685  66.470  0.00  0.00    +0.025 A 
ATOM      7  C   UNL     1      -8.545  19.966  67.616  0.00  0.00    +0.056 A 
ATOM      8  C   UNL     1      -9.074  19.409  68.776  0.00  0.00    +0.006 A 
ATOM      9  C   UNL     1      -9.838  18.249  68.733  0.00  0.00    +0.019 A 
ATOM     10  N   UNL     1     -10.571  17.796  65.388  0.00  0.00    -0.229 NA
ENDROOT
BRANCH   7  11
ATOM     11  C   UNL     1      -7.150  20.422  67.542  0.00  0.00    +0.254 C 
ATOM     12  N   UNL     1      -6.068  19.686  68.094  0.00  0.00    -0.240 N 
ATOM     13  O   UNL     1      -6.858  21.499  66.937  0.00  0.00    -0.270 OA
BRANCH  12  14
ATOM     14  C   UNL     1      -5.595  20.134  69.370  0.00  0.00    +0.138 A 
ATOM     15  N   UNL     1      -4.545  20.988  69.413  0.00  0.00    -0.229 NA
ATOM     16  C   UNL     1      -3.831  21.184  70.547  0.00  0.00    +0.100 A 
ATOM     17  C   UNL     1      -4.491  20.960  71.747  0.00  0.00    +0.021 A 
ATOM     18  C   UNL     1      -5.474  19.993  71.749  0.00  0.00    +0.004 A 
ATOM     19  C   UNL     1      -5.946  19.512  70.552  0.00  0.00    +0.035 A 
ENDBRANCH  12  14
BRANCH  12  20
ATOM     20  C   UNL     1      -5.025  19.286  67.153  0.00  0.00    +0.112 C 
BRANCH  20  21
ATOM     21  C   UNL     1      -4.866  17.795  67.261  0.00  0.00    +0.131 C 
BRANCH  21  22
ATOM     22  C   UNL     1      -6.049  17.042  66.798  0.00  0.00    +0.319 C 
ATOM     23  O   UNL     1      -6.669  17.443  65.773  0.00  0.00    -0.250 OA
BRANCH  22  24
ATOM     24  O   UNL     1      -6.730  16.137  67.616  0.00  0.00    -0.448 OA
BRANCH  24  25
ATOM     25  C   UNL     1      -6.752  16.316  69.014  0.00  0.00    +0.209 C 
ATOM     26  C   UNL     1      -6.449  14.994  69.695  0.00  0.00    +0.051 C 
ENDBRANCH  24  25
ENDBRANCH  22  24
ENDBRANCH  21  22
ENDBRANCH  20  21
ENDBRANCH  12  20
ENDBRANCH   7  11
BRANCH   1  27
ATOM     27  C   UNL     1     -10.652  15.359  64.813  0.00  0.00    +0.176 C 
BRANCH  27  28
ATOM     28  N   UNL     1     -11.940  14.721  64.904  0.00  0.00    -0.229 NA
BRANCH  28  32
ATOM     29  C   UNL     1     -10.622  10.839  64.752  0.00  0.00    +0.089 A 
ATOM     30  C   UNL     1     -11.095  11.357  65.952  0.00  0.00    +0.009 A 
ATOM     31  C   UNL     1     -11.812  12.546  65.995  0.00  0.00    +0.016 A 
ATOM     32  C   UNL     1     -12.010  13.292  64.854  0.00  0.00    +0.066 A 
ATOM     33  C   UNL     1     -11.861  12.613  63.651  0.00  0.00    +0.016 A 
ATOM     34  C   UNL     1     -11.171  11.416  63.611  0.00  0.00    +0.009 A 
BRANCH  29  36
ATOM     35  N   UNL     1      -8.413  10.509  65.551  0.00  0.00    +0.074 NA
ATOM     36  C   UNL     1      -9.316  10.172  64.698  0.00  0.00    +0.412 C 
ATOM     37  N   UNL     1      -8.873   9.469  63.543  0.00  0.00    +0.214 NA
BRANCH  35  38
ATOM     38  C   UNL     1      -7.311   9.640  65.814  0.00  0.00    +0.543 C 
ATOM     39  O   UNL     1      -6.159  10.127  65.607  0.00  0.00    -0.198 OA
BRANCH  38  40
ATOM     40  O   UNL     1      -7.463   8.647  66.787  0.00  0.00    -0.414 OA
BRANCH  40  41
ATOM     41  C   UNL     1      -7.850   9.086  68.072  0.00  0.00    +0.213 C 
BRANCH  41  42
ATOM     42  C   UNL     1      -8.934   8.145  68.553  0.00  0.00    +0.048 C 
BRANCH  42  43
ATOM     43  C   UNL     1     -10.290   8.804  68.517  0.00  0.00    +0.004 C 
BRANCH  43  44
ATOM     44  C   UNL     1     -10.227  10.150  69.227  0.00  0.00    +0.000 C 
BRANCH  44  46
ATOM     45  C   UNL     1     -11.813  11.991  69.706  0.00  0.00    +0.000 C 
ATOM     46  C   UNL     1     -11.595  10.497  69.743  0.00  0.00    +0.000 C 
ENDBRANCH  44  46
ENDBRANCH  43  44
ENDBRANCH  42  43
ENDBRANCH  41  42
ENDBRANCH  40  41
ENDBRANCH  38  40
ENDBRANCH  35  38
ENDBRANCH  29  36
ENDBRANCH  28  32
ENDBRANCH  27  28
ENDBRANCH   1  27
TORSDOF 18
ENDMDL
MODEL 6
REMARK VINA RESULT:      -6.3      4.005      9.220
REMARK  Name = 
REMARK  18 active torsions:
REMARK  status: ('A' for Active; 'I' for Inactive)
REMARK    1  A    between atoms: C_2  and  C_3
REMARK    2  A    between atoms: C_3  and  C_4
REMARK    3  A    between atoms: C_4  and  C_5
REMARK    4  A    between atoms: C_5  and  C_6
REMARK    5  A    between atoms: C_6  and  O_7
REMARK    6  A    between atoms: O_7  and  C_8
REMARK    7  A    between atoms: C_8  and  N_10
REMARK    8  A    between atoms: C_11  and  C_13
REMARK    9  A    between atoms: C_16  and  N_17
REMARK   10  A    between atoms: N_17  and  C_18
REMARK   11  A    between atoms: C_18  and  C_19
REMARK   12  A    between atoms: C_23  and  C_24
REMARK   13  A    between atoms: N_26  and  C_27
REMARK   14  A    between atoms: N_26  and  C_34
REMARK   15  A    between atoms: C_27  and  C_28
REMARK   16  A    between atoms: C_28  and  C_29
REMARK   17  A    between atoms: C_29  and  O_31
REMARK   18  A    between atoms: O_31  and  C_32
REMARK                            x       y       z     vdW  Elec       q    Type
REMARK                         _______ _______ _______ _____ _____    ______ ____
ROOT
ATOM      1  C   UNL     1     -10.589  16.513  65.830  0.00  0.00    +0.142 A 
ATOM      2  N   UNL     1     -10.364  16.506  67.166  0.00  0.00    -0.311 N 
ATOM      3  C   UNL     1     -10.041  15.314  67.946  0.00  0.00    +0.132 C 
ATOM      4  C   UNL     1     -10.224  17.805  67.521  0.00  0.00    +0.079 A 
ATOM      5  C   UNL     1      -9.992  18.568  66.381  0.00  0.00    +0.099 A 
ATOM      6  C   UNL     1      -9.200  19.711  66.422  0.00  0.00    +0.025 A 
ATOM      7  C   UNL     1      -8.506  20.040  67.583  0.00  0.00    +0.056 A 
ATOM      8  C   UNL     1      -9.089  19.547  68.745  0.00  0.00    +0.006 A 
ATOM      9  C   UNL     1      -9.866  18.394  68.727  0.00  0.00    +0.019 A 
ATOM     10  N   UNL     1     -10.466  17.786  65.380  0.00  0.00    -0.229 NA
ENDROOT
BRANCH   7  11
ATOM     11  C   UNL     1      -7.103  20.476  67.546  0.00  0.00    +0.254 C 
ATOM     12  N   UNL     1      -6.036  19.685  68.048  0.00  0.00    -0.240 N 
ATOM     13  O   UNL     1      -6.789  21.588  67.019  0.00  0.00    -0.270 OA
BRANCH  12  14
ATOM     14  C   UNL     1      -5.561  20.034  69.354  0.00  0.00    +0.138 A 
ATOM     15  N   UNL     1      -4.654  21.033  69.473  0.00  0.00    -0.229 NA
ATOM     16  C   UNL     1      -3.911  21.192  70.593  0.00  0.00    +0.100 A 
ATOM     17  C   UNL     1      -4.455  20.712  71.777  0.00  0.00    +0.021 A 
ATOM     18  C   UNL     1      -5.276  19.608  71.684  0.00  0.00    +0.004 A 
ATOM     19  C   UNL     1      -5.741  19.216  70.452  0.00  0.00    +0.035 A 
ENDBRANCH  12  14
BRANCH  12  20
ATOM     20  C   UNL     1      -4.995  19.334  67.084  0.00  0.00    +0.112 C 
BRANCH  20  21
ATOM     21  C   UNL     1      -5.586  18.339  66.125  0.00  0.00    +0.131 C 
BRANCH  21  22
ATOM     22  C   UNL     1      -5.243  18.606  64.713  0.00  0.00    +0.319 C 
ATOM     23  O   UNL     1      -4.032  18.558  64.356  0.00  0.00    -0.250 OA
BRANCH  22  24
ATOM     24  O   UNL     1      -6.118  19.255  63.838  0.00  0.00    -0.448 OA
BRANCH  24  25
ATOM     25  C   UNL     1      -6.153  20.662  63.778  0.00  0.00    +0.209 C 
ATOM     26  C   UNL     1      -5.673  21.120  62.413  0.00  0.00    +0.051 C 
ENDBRANCH  24  25
ENDBRANCH  22  24
ENDBRANCH  21  22
ENDBRANCH  20  21
ENDBRANCH  12  20
ENDBRANCH   7  11
BRANCH   1  27
ATOM     27  C   UNL     1     -10.555  15.325  64.921  0.00  0.00    +0.176 C 
BRANCH  27  28
ATOM     28  N   UNL     1     -11.850  14.699  64.999  0.00  0.00    -0.229 NA
BRANCH  28  32
ATOM     29  C   UNL     1     -10.622  10.846  64.313  0.00  0.00    +0.089 A 
ATOM     30  C   UNL     1     -10.852  11.271  65.616  0.00  0.00    +0.009 A 
ATOM     31  C   UNL     1     -11.537  12.451  65.882  0.00  0.00    +0.016 A 
ATOM     32  C   UNL     1     -11.942  13.277  64.858  0.00  0.00    +0.066 A 
ATOM     33  C   UNL     1     -12.032  12.690  63.602  0.00  0.00    +0.016 A 
ATOM     34  C   UNL     1     -11.373  11.502  63.344  0.00  0.00    +0.009 A 
BRANCH  29  36
ATOM     35  N   UNL     1      -8.348  10.330  64.749  0.00  0.00    +0.074 NA
ATOM     36  C   UNL     1      -9.357  10.191  63.962  0.00  0.00    +0.412 C 
ATOM     37  N   UNL     1      -9.078   9.743  62.641  0.00  0.00    +0.214 NA
BRANCH  35  38
ATOM     38  C   UNL     1      -7.255   9.413  64.689  0.00  0.00    +0.543 C 
ATOM     39  O   UNL     1      -6.100   9.931  64.620  0.00  0.00    -0.198 OA
BRANCH  38  40
ATOM     40  O   UNL     1      -7.402   8.161  65.292  0.00  0.00    -0.414 OA
BRANCH  40  41
ATOM     41  C   UNL     1      -8.012   8.149  66.566  0.00  0.00    +0.213 C 
BRANCH  41  42
ATOM     42  C   UNL     1      -9.290   7.349  66.437  0.00  0.00    +0.048 C 
BRANCH  42  43
ATOM     43  C   UNL     1     -10.419   7.986  67.207  0.00  0.00    +0.004 C 
BRANCH  43  44
ATOM     44  C   UNL     1      -9.865   9.041  68.155  0.00  0.00    +0.000 C 
BRANCH  44  46
ATOM     45  C   UNL     1     -11.043  10.603  69.673  0.00  0.00    +0.000 C 
ATOM     46  C   UNL     1     -10.771   9.154  69.348  0.00  0.00    +0.000 C 
ENDBRANCH  44  46
ENDBRANCH  43  44
ENDBRANCH  42  43
ENDBRANCH  41  42
ENDBRANCH  40  41
ENDBRANCH  38  40
ENDBRANCH  35  38
ENDBRANCH  29  36
ENDBRANCH  28  32
ENDBRANCH  27  28
ENDBRANCH   1  27
TORSDOF 18
ENDMDL
MODEL 7
REMARK VINA RESULT:      -6.3      3.347      8.810
REMARK  Name = 
REMARK  18 active torsions:
REMARK  status: ('A' for Active; 'I' for Inactive)
REMARK    1  A    between atoms: C_2  and  C_3
REMARK    2  A    between atoms: C_3  and  C_4
REMARK    3  A    between atoms: C_4  and  C_5
REMARK    4  A    between atoms: C_5  and  C_6
REMARK    5  A    between atoms: C_6  and  O_7
REMARK    6  A    between atoms: O_7  and  C_8
REMARK    7  A    between atoms: C_8  and  N_10
REMARK    8  A    between atoms: C_11  and  C_13
REMARK    9  A    between atoms: C_16  and  N_17
REMARK   10  A    between atoms: N_17  and  C_18
REMARK   11  A    between atoms: C_18  and  C_19
REMARK   12  A    between atoms: C_23  and  C_24
REMARK   13  A    between atoms: N_26  and  C_27
REMARK   14  A    between atoms: N_26  and  C_34
REMARK   15  A    between atoms: C_27  and  C_28
REMARK   16  A    between atoms: C_28  and  C_29
REMARK   17  A    between atoms: C_29  and  O_31
REMARK   18  A    between atoms: O_31  and  C_32
REMARK                            x       y       z     vdW  Elec       q    Type
REMARK                         _______ _______ _______ _____ _____    ______ ____
ROOT
ATOM      1  C   UNL     1      -9.074   9.922  66.074  0.00  0.00    +0.142 A 
ATOM      2  N   UNL     1     -10.128   9.979  66.924  0.00  0.00    -0.311 N 
ATOM      3  C   UNL     1     -10.381   9.021  67.997  0.00  0.00    +0.132 C 
ATOM      4  C   UNL     1     -10.675  11.205  66.748  0.00  0.00    +0.079 A 
ATOM      5  C   UNL     1      -9.764  12.021  66.086  0.00  0.00    +0.099 A 
ATOM      6  C   UNL     1      -9.713  13.392  66.321  0.00  0.00    +0.025 A 
ATOM      7  C   UNL     1     -10.485  13.957  67.332  0.00  0.00    +0.056 A 
ATOM      8  C   UNL     1     -11.634  13.234  67.632  0.00  0.00    +0.006 A 
ATOM      9  C   UNL     1     -11.696  11.861  67.424  0.00  0.00    +0.019 A 
ATOM     10  N   UNL     1      -8.927  11.136  65.490  0.00  0.00    -0.229 NA
ENDROOT
BRANCH   7  11
ATOM     11  C   UNL     1      -9.930  14.950  68.262  0.00  0.00    +0.254 C 
ATOM     12  N   UNL     1     -10.649  16.101  68.680  0.00  0.00    -0.240 N 
ATOM     13  O   UNL     1      -8.773  14.788  68.759  0.00  0.00    -0.270 OA
BRANCH  12  14
ATOM     14  C   UNL     1     -10.319  17.322  68.007  0.00  0.00    +0.138 A 
ATOM     15  N   UNL     1      -9.867  18.369  68.738  0.00  0.00    -0.229 NA
ATOM     16  C   UNL     1      -9.863  19.631  68.249  0.00  0.00    +0.100 A 
ATOM     17  C   UNL     1      -9.788  19.768  66.870  0.00  0.00    +0.021 A 
ATOM     18  C   UNL     1     -10.366  18.771  66.112  0.00  0.00    +0.004 A 
ATOM     19  C   UNL     1     -10.723  17.589  66.713  0.00  0.00    +0.035 A 
ENDBRANCH  12  14
BRANCH  12  20
ATOM     20  C   UNL     1     -10.866  16.227  70.120  0.00  0.00    +0.112 C 
BRANCH  20  21
ATOM     21  C   UNL     1     -12.262  15.751  70.409  0.00  0.00    +0.131 C 
BRANCH  21  22
ATOM     22  C   UNL     1     -12.685  15.978  71.805  0.00  0.00    +0.319 C 
ATOM     23  O   UNL     1     -11.807  16.025  72.713  0.00  0.00    -0.250 OA
BRANCH  22  24
ATOM     24  O   UNL     1     -14.002  15.785  72.232  0.00  0.00    -0.448 OA
BRANCH  24  25
ATOM     25  C   UNL     1     -14.748  14.684  71.767  0.00  0.00    +0.209 C 
ATOM     26  C   UNL     1     -16.068  15.174  71.201  0.00  0.00    +0.051 C 
ENDBRANCH  24  25
ENDBRANCH  22  24
ENDBRANCH  21  22
ENDBRANCH  20  21
ENDBRANCH  12  20
ENDBRANCH   7  11
BRANCH   1  27
ATOM     27  C   UNL     1      -7.997   8.884  66.070  0.00  0.00    +0.176 C 
BRANCH  27  28
ATOM     28  N   UNL     1      -8.561   7.694  65.487  0.00  0.00    -0.229 NA
BRANCH  28  32
ATOM     29  C   UNL     1      -9.638   5.322  68.656  0.00  0.00    +0.089 A 
ATOM     30  C   UNL     1     -10.330   5.219  67.455  0.00  0.00    +0.009 A 
ATOM     31  C   UNL     1      -9.833   5.775  66.283  0.00  0.00    +0.016 A 
ATOM     32  C   UNL     1      -8.671   6.514  66.290  0.00  0.00    +0.066 A 
ATOM     33  C   UNL     1      -7.827   6.309  67.375  0.00  0.00    +0.016 A 
ATOM     34  C   UNL     1      -8.315   5.732  68.533  0.00  0.00    +0.009 A 
BRANCH  29  36
ATOM     35  N   UNL     1     -10.045   4.794  70.932  0.00  0.00    +0.074 NA
ATOM     36  C   UNL     1     -10.366   5.514  69.915  0.00  0.00    +0.412 C 
ATOM     37  N   UNL     1     -11.632   6.161  69.966  0.00  0.00    +0.214 NA
BRANCH  35  38
ATOM     38  C   UNL     1     -10.410   5.205  72.250  0.00  0.00    +0.543 C 
ATOM     39  O   UNL     1     -11.070   4.363  72.930  0.00  0.00    -0.198 OA
BRANCH  38  40
ATOM     40  O   UNL     1      -9.588   6.118  72.915  0.00  0.00    -0.414 OA
BRANCH  40  41
ATOM     41  C   UNL     1     -10.172   7.361  73.244  0.00  0.00    +0.213 C 
BRANCH  41  42
ATOM     42  C   UNL     1      -9.685   8.364  72.220  0.00  0.00    +0.048 C 
BRANCH  42  43
ATOM     43  C   UNL     1     -10.835   9.086  71.565  0.00  0.00    +0.004 C 
BRANCH  43  44
ATOM     44  C   UNL     1     -12.142   8.689  72.238  0.00  0.00    +0.000 C 
BRANCH  44  46
ATOM     45  C   UNL     1     -12.668  10.702  70.895  0.00  0.00    +0.000 C 
ATOM     46  C   UNL     1     -13.203   9.691  71.880  0.00  0.00    +0.000 C 
ENDBRANCH  44  46
ENDBRANCH  43  44
ENDBRANCH  42  43
ENDBRANCH  41  42
ENDBRANCH  40  41
ENDBRANCH  38  40
ENDBRANCH  35  38
ENDBRANCH  29  36
ENDBRANCH  28  32
ENDBRANCH  27  28
ENDBRANCH   1  27
TORSDOF 18
ENDMDL
MODEL 8
REMARK VINA RESULT:      -6.2      2.107      4.716
REMARK  Name = 
REMARK  18 active torsions:
REMARK  status: ('A' for Active; 'I' for Inactive)
REMARK    1  A    between atoms: C_2  and  C_3
REMARK    2  A    between atoms: C_3  and  C_4
REMARK    3  A    between atoms: C_4  and  C_5
REMARK    4  A    between atoms: C_5  and  C_6
REMARK    5  A    between atoms: C_6  and  O_7
REMARK    6  A    between atoms: O_7  and  C_8
REMARK    7  A    between atoms: C_8  and  N_10
REMARK    8  A    between atoms: C_11  and  C_13
REMARK    9  A    between atoms: C_16  and  N_17
REMARK   10  A    between atoms: N_17  and  C_18
REMARK   11  A    between atoms: C_18  and  C_19
REMARK   12  A    between atoms: C_23  and  C_24
REMARK   13  A    between atoms: N_26  and  C_27
REMARK   14  A    between atoms: N_26  and  C_34
REMARK   15  A    between atoms: C_27  and  C_28
REMARK   16  A    between atoms: C_28  and  C_29
REMARK   17  A    between atoms: C_29  and  O_31
REMARK   18  A    between atoms: O_31  and  C_32
REMARK                            x       y       z     vdW  Elec       q    Type
REMARK                         _______ _______ _______ _____ _____    ______ ____
ROOT
ATOM      1  C   UNL     1      -6.085  15.450  69.039  0.00  0.00    +0.142 A 
ATOM      2  N   UNL     1      -5.311  14.469  68.517  0.00  0.00    -0.311 N 
ATOM      3  C   UNL     1      -3.910  14.246  68.862  0.00  0.00    +0.132 C 
ATOM      4  C   UNL     1      -6.162  13.631  67.880  0.00  0.00    +0.079 A 
ATOM      5  C   UNL     1      -7.460  13.879  68.314  0.00  0.00    +0.099 A 
ATOM      6  C   UNL     1      -8.407  12.863  68.389  0.00  0.00    +0.025 A 
ATOM      7  C   UNL     1      -8.035  11.541  68.159  0.00  0.00    +0.056 A 
ATOM      8  C   UNL     1      -6.921  11.406  67.337  0.00  0.00    +0.006 A 
ATOM      9  C   UNL     1      -5.954  12.402  67.266  0.00  0.00    +0.019 A 
ATOM     10  N   UNL     1      -7.385  15.136  68.818  0.00  0.00    -0.229 NA
ENDROOT
BRANCH   7  11
ATOM     11  C   UNL     1      -8.492  10.449  69.030  0.00  0.00    +0.254 C 
ATOM     12  N   UNL     1      -9.771   9.844  68.901  0.00  0.00    -0.240 N 
ATOM     13  O   UNL     1      -7.726   9.977  69.925  0.00  0.00    -0.270 OA
BRANCH  12  14
ATOM     14  C   UNL     1     -10.770  10.294  69.824  0.00  0.00    +0.138 A 
ATOM     15  N   UNL     1     -11.220   9.433  70.768  0.00  0.00    -0.229 NA
ATOM     16  C   UNL     1     -12.376   9.651  71.438  0.00  0.00    +0.100 A 
ATOM     17  C   UNL     1     -12.786  10.971  71.565  0.00  0.00    +0.021 A 
ATOM     18  C   UNL     1     -12.448  11.831  70.541  0.00  0.00    +0.004 A 
ATOM     19  C   UNL     1     -11.512  11.440  69.615  0.00  0.00    +0.035 A 
ENDBRANCH  12  14
BRANCH  12  20
ATOM     20  C   UNL     1      -9.771   8.406  68.640  0.00  0.00    +0.112 C 
BRANCH  20  21
ATOM     21  C   UNL     1     -10.456   8.187  67.320  0.00  0.00    +0.131 C 
BRANCH  21  22
ATOM     22  C   UNL     1      -9.674   8.668  66.163  0.00  0.00    +0.319 C 
ATOM     23  O   UNL     1     -10.079   9.683  65.528  0.00  0.00    -0.250 OA
BRANCH  22  24
ATOM     24  O   UNL     1      -8.728   7.871  65.513  0.00  0.00    -0.448 OA
BRANCH  24  25
ATOM     25  C   UNL     1      -7.400   8.319  65.364  0.00  0.00    +0.209 C 
ATOM     26  C   UNL     1      -6.557   7.784  66.506  0.00  0.00    +0.051 C 
ENDBRANCH  24  25
ENDBRANCH  22  24
ENDBRANCH  21  22
ENDBRANCH  20  21
ENDBRANCH  12  20
ENDBRANCH   7  11
BRANCH   1  27
ATOM     27  C   UNL     1      -5.658  16.473  70.045  0.00  0.00    +0.176 C 
BRANCH  27  28
ATOM     28  N   UNL     1      -5.086  17.572  69.310  0.00  0.00    -0.229 NA
BRANCH  28  32
ATOM     29  C   UNL     1      -8.407  18.866  67.280  0.00  0.00    +0.089 A 
ATOM     30  C   UNL     1      -8.260  19.179  68.626  0.00  0.00    +0.009 A 
ATOM     31  C   UNL     1      -7.043  19.022  69.277  0.00  0.00    +0.016 A 
ATOM     32  C   UNL     1      -5.960  18.476  68.626  0.00  0.00    +0.066 A 
ATOM     33  C   UNL     1      -6.006  18.508  67.237  0.00  0.00    +0.016 A 
ATOM     34  C   UNL     1      -7.213  18.691  66.588  0.00  0.00    +0.009 A 
BRANCH  29  36
ATOM     35  N   UNL     1      -9.618  17.575  65.702  0.00  0.00    +0.074 NA
ATOM     36  C   UNL     1      -9.649  18.254  66.794  0.00  0.00    +0.412 C 
ATOM     37  N   UNL     1     -10.929  18.682  67.244  0.00  0.00    +0.214 NA
BRANCH  35  38
ATOM     38  C   UNL     1     -10.656  16.639  65.405  0.00  0.00    +0.543 C 
ATOM     39  O   UNL     1     -11.288  16.836  64.324  0.00  0.00    -0.198 OA
BRANCH  38  40
ATOM     40  O   UNL     1     -10.535  15.335  65.893  0.00  0.00    -0.414 OA
BRANCH  40  41
ATOM     41  C   UNL     1     -11.706  14.760  66.436  0.00  0.00    +0.213 C 
BRANCH  41  42
ATOM     42  C   UNL     1     -11.415  14.455  67.890  0.00  0.00    +0.048 C 
BRANCH  42  43
ATOM     43  C   UNL     1     -11.812  15.602  68.784  0.00  0.00    +0.004 C 
BRANCH  43  44
ATOM     44  C   UNL     1     -10.872  15.672  69.980  0.00  0.00    +0.000 C 
BRANCH  44  46
ATOM     45  C   UNL     1     -11.809  15.114  72.203  0.00  0.00    +0.000 C 
ATOM     46  C   UNL     1     -11.628  16.198  71.168  0.00  0.00    +0.000 C 
ENDBRANCH  44  46
ENDBRANCH  43  44
ENDBRANCH  42  43
ENDBRANCH  41  42
ENDBRANCH  40  41
ENDBRANCH  38  40
ENDBRANCH  35  38
ENDBRANCH  29  36
ENDBRANCH  28  32
ENDBRANCH  27  28
ENDBRANCH   1  27
TORSDOF 18
ENDMDL
MODEL 9
REMARK VINA RESULT:      -6.2      2.701      8.997
REMARK  Name = 
REMARK  18 active torsions:
REMARK  status: ('A' for Active; 'I' for Inactive)
REMARK    1  A    between atoms: C_2  and  C_3
REMARK    2  A    between atoms: C_3  and  C_4
REMARK    3  A    between atoms: C_4  and  C_5
REMARK    4  A    between atoms: C_5  and  C_6
REMARK    5  A    between atoms: C_6  and  O_7
REMARK    6  A    between atoms: O_7  and  C_8
REMARK    7  A    between atoms: C_8  and  N_10
REMARK    8  A    between atoms: C_11  and  C_13
REMARK    9  A    between atoms: C_16  and  N_17
REMARK   10  A    between atoms: N_17  and  C_18
REMARK   11  A    between atoms: C_18  and  C_19
REMARK   12  A    between atoms: C_23  and  C_24
REMARK   13  A    between atoms: N_26  and  C_27
REMARK   14  A    between atoms: N_26  and  C_34
REMARK   15  A    between atoms: C_27  and  C_28
REMARK   16  A    between atoms: C_28  and  C_29
REMARK   17  A    between atoms: C_29  and  O_31
REMARK   18  A    between atoms: O_31  and  C_32
REMARK                            x       y       z     vdW  Elec       q    Type
REMARK                         _______ _______ _______ _____ _____    ______ ____
ROOT
ATOM      1  C   UNL     1     -10.423  16.401  66.714  0.00  0.00    +0.142 A 
ATOM      2  N   UNL     1     -10.422  16.963  67.947  0.00  0.00    -0.311 N 
ATOM      3  C   UNL     1     -10.393  16.214  69.200  0.00  0.00    +0.132 C 
ATOM      4  C   UNL     1     -10.169  18.279  67.750  0.00  0.00    +0.079 A 
ATOM      5  C   UNL     1      -9.654  18.459  66.471  0.00  0.00    +0.099 A 
ATOM      6  C   UNL     1      -8.734  19.465  66.193  0.00  0.00    +0.025 A 
ATOM      7  C   UNL     1      -8.201  20.230  67.227  0.00  0.00    +0.056 A 
ATOM      8  C   UNL     1      -9.028  20.320  68.342  0.00  0.00    +0.006 A 
ATOM      9  C   UNL     1      -9.938  19.315  68.647  0.00  0.00    +0.019 A 
ATOM     10  N   UNL     1     -10.059  17.344  65.812  0.00  0.00    -0.229 NA
ENDROOT
BRANCH   7  11
ATOM     11  C   UNL     1      -6.766  20.535  67.301  0.00  0.00    +0.254 C 
ATOM     12  N   UNL     1      -5.837  19.711  67.989  0.00  0.00    -0.240 N 
ATOM     13  O   UNL     1      -6.294  21.553  66.707  0.00  0.00    -0.270 OA
BRANCH  12  14
ATOM     14  C   UNL     1      -5.461  20.153  69.300  0.00  0.00    +0.138 A 
ATOM     15  N   UNL     1      -4.350  20.916  69.437  0.00  0.00    -0.229 NA
ATOM     16  C   UNL     1      -3.744  21.082  70.636  0.00  0.00    +0.100 A 
ATOM     17  C   UNL     1      -4.542  20.950  71.764  0.00  0.00    +0.021 A 
ATOM     18  C   UNL     1      -5.601  20.071  71.680  0.00  0.00    +0.004 A 
ATOM     19  C   UNL     1      -5.987  19.597  70.450  0.00  0.00    +0.035 A 
ENDBRANCH  12  14
BRANCH  12  20
ATOM     20  C   UNL     1      -4.745  19.171  67.182  0.00  0.00    +0.112 C 
BRANCH  20  21
ATOM     21  C   UNL     1      -4.658  17.697  67.469  0.00  0.00    +0.131 C 
BRANCH  21  22
ATOM     22  C   UNL     1      -5.946  16.991  67.321  0.00  0.00    +0.319 C 
ATOM     23  O   UNL     1      -6.405  16.787  66.162  0.00  0.00    -0.250 OA
BRANCH  22  24
ATOM     24  O   UNL     1      -6.853  16.855  68.375  0.00  0.00    -0.448 OA
BRANCH  24  25
ATOM     25  C   UNL     1      -6.560  16.012  69.465  0.00  0.00    +0.209 C 
ATOM     26  C   UNL     1      -5.716  14.845  68.985  0.00  0.00    +0.051 C 
ENDBRANCH  24  25
ENDBRANCH  22  24
ENDBRANCH  21  22
ENDBRANCH  20  21
ENDBRANCH  12  20
ENDBRANCH   7  11
BRANCH   1  27
ATOM     27  C   UNL     1     -10.400  14.936  66.411  0.00  0.00    +0.176 C 
BRANCH  27  28
ATOM     28  N   UNL     1      -9.111  14.442  66.822  0.00  0.00    -0.229 NA
BRANCH  28  32
ATOM     29  C   UNL     1      -9.519  10.497  67.870  0.00  0.00    +0.089 A 
ATOM     30  C   UNL     1     -10.086  10.955  66.686  0.00  0.00    +0.009 A 
ATOM     31  C   UNL     1      -9.738  12.187  66.146  0.00  0.00    +0.016 A 
ATOM     32  C   UNL     1      -8.875  13.030  66.810  0.00  0.00    +0.066 A 
ATOM     33  C   UNL     1      -8.061  12.435  67.766  0.00  0.00    +0.016 A 
ATOM     34  C   UNL     1      -8.391  11.197  68.285  0.00  0.00    +0.009 A 
BRANCH  29  36
ATOM     35  N   UNL     1     -10.552  10.257  69.991  0.00  0.00    +0.074 NA
ATOM     36  C   UNL     1     -10.327   9.742  68.834  0.00  0.00    +0.412 C 
ATOM     37  N   UNL     1     -10.547   8.342  68.705  0.00  0.00    +0.214 NA
BRANCH  35  38
ATOM     38  C   UNL     1     -11.636   9.785  70.792  0.00  0.00    +0.543 C 
ATOM     39  O   UNL     1     -11.315   9.192  71.866  0.00  0.00    -0.198 OA
BRANCH  38  40
ATOM     40  O   UNL     1     -12.855  10.466  70.731  0.00  0.00    -0.414 OA
BRANCH  40  41
ATOM     41  C   UNL     1     -12.967  11.619  71.539  0.00  0.00    +0.213 C 
BRANCH  41  42
ATOM     42  C   UNL     1     -12.392  12.773  70.745  0.00  0.00    +0.048 C 
BRANCH  42  43
ATOM     43  C   UNL     1     -12.463  14.065  71.519  0.00  0.00    +0.004 C 
BRANCH  43  44
ATOM     44  C   UNL     1     -13.919  14.433  71.773  0.00  0.00    +0.000 C 
BRANCH  44  46
ATOM     45  C   UNL     1     -12.642  15.916  73.291  0.00  0.00    +0.000 C 
ATOM     46  C   UNL     1     -13.971  15.676  72.616  0.00  0.00    +0.000 C 
ENDBRANCH  44  46
ENDBRANCH  43  44
ENDBRANCH  42  43
ENDBRANCH  41  42
ENDBRANCH  40  41
ENDBRANCH  38  40
ENDBRANCH  35  38
ENDBRANCH  29  36
ENDBRANCH  28  32
ENDBRANCH  27  28
ENDBRANCH   1  27
TORSDOF 18
ENDMDL
