MODEL 1
REMARK VINA RESULT:      -5.1      0.000      0.000
REMARK  Name = 
REMARK  3 active torsions:
REMARK  status: ('A' for Active; 'I' for Inactive)
REMARK    1  A    between atoms: C_2  and  C_3
REMARK    2  A    between atoms: C_3  and  N_4
REMARK    3  A    between atoms: N_4  and  C_5
REMARK                            x       y       z     vdW  Elec       q    Type
REMARK                         _______ _______ _______ _____ _____    ______ ____
ROOT
ATOM      1  C   UNL     1     -10.691  14.797  69.115  0.00  0.00    +0.078 C 
ATOM      2  C   UNL     1     -11.274  15.546  67.762  0.00  0.00    +0.052 C 
ATOM      3  C   UNL     1     -11.275  14.453  66.754  0.00  0.00    +0.025 A 
ATOM      4  C   UNL     1     -11.675  13.169  66.982  0.00  0.00    +0.063 A 
ATOM      5  N   UNL     1     -12.400  12.640  66.007  0.00  0.00    -0.226 NA
ATOM      6  C   UNL     1     -12.015  12.947  64.778  0.00  0.00    +0.200 A 
ATOM      7  N   UNL     1     -12.574  12.458  63.550  0.00  0.00    -0.100 NA
ATOM      8  C   UNL     1     -11.656  12.681  68.402  0.00  0.00    +0.048 C 
ATOM      9  S   UNL     1     -11.344  14.509  65.039  0.00  0.00    -0.053 S 
ATOM     10  C   UNL     1     -12.055  13.873  69.253  0.00  0.00    +0.024 C 
ENDROOT
BRANCH   1  11
ATOM     11  N   UNL     1     -11.295  15.923  70.052  0.00  0.00    -0.219 NA
BRANCH  11  12
ATOM     12  C   UNL     1     -11.641  15.111  71.209  0.00  0.00    +0.089 C 
BRANCH  12  14
ATOM     13  C   UNL     1     -12.100  15.807  72.911  0.00  0.00    +0.002 C 
ATOM     14  C   UNL     1     -12.052  16.051  72.334  0.00  0.00    +0.019 C 
ENDBRANCH  12  14
ENDBRANCH  11  12
ENDBRANCH   1  11
TORSDOF 3
ENDMDL
MODEL 2
REMARK VINA RESULT:      -5.1      1.628      2.383
REMARK  Name = 
REMARK  3 active torsions:
REMARK  status: ('A' for Active; 'I' for Inactive)
REMARK    1  A    between atoms: C_2  and  C_3
REMARK    2  A    between atoms: C_3  and  N_4
REMARK    3  A    between atoms: N_4  and  C_5
REMARK                            x       y       z     vdW  Elec       q    Type
REMARK                         _______ _______ _______ _____ _____    ______ ____
ROOT
ATOM      1  C   UNL     1     -12.229  15.430  70.398  0.00  0.00    +0.078 C 
ATOM      2  C   UNL     1     -11.820  13.941  69.809  0.00  0.00    +0.052 C 
ATOM      3  C   UNL     1     -11.775  14.170  68.340  0.00  0.00    +0.025 A 
ATOM      4  C   UNL     1     -11.229  15.259  67.726  0.00  0.00    +0.063 A 
ATOM      5  N   UNL     1     -10.521  14.979  66.642  0.00  0.00    -0.226 NA
ATOM      6  C   UNL     1     -11.019  14.030  65.864  0.00  0.00    +0.200 A 
ATOM      7  N   UNL     1     -10.497  13.583  64.604  0.00  0.00    -0.100 NA
ATOM      8  C   UNL     1     -11.100  16.517  68.537  0.00  0.00    +0.048 C 
ATOM      9  S   UNL     1     -11.829  13.060  67.030  0.00  0.00    -0.053 S 
ATOM     10  C   UNL     1     -10.770  16.065  69.948  0.00  0.00    +0.024 C 
ENDROOT
BRANCH   1  11
ATOM     11  N   UNL     1     -11.682  15.058  71.839  0.00  0.00    -0.219 NA
BRANCH  11  12
ATOM     12  C   UNL     1     -12.116  16.239  72.571  0.00  0.00    +0.089 C 
BRANCH  12  14
ATOM     13  C   UNL     1     -12.402  15.213  74.138  0.00  0.00    +0.002 C 
ATOM     14  C   UNL     1     -12.567  15.791  73.954  0.00  0.00    +0.019 C 
ENDBRANCH  12  14
ENDBRANCH  11  12
ENDBRANCH   1  11
TORSDOF 3
ENDMDL
MODEL 3
REMARK VINA RESULT:      -5.0      2.409      3.567
REMARK  Name = 
REMARK  3 active torsions:
REMARK  status: ('A' for Active; 'I' for Inactive)
REMARK    1  A    between atoms: C_2  and  C_3
REMARK    2  A    between atoms: C_3  and  N_4
REMARK    3  A    between atoms: N_4  and  C_5
REMARK                            x       y       z     vdW  Elec       q    Type
REMARK                         _______ _______ _______ _____ _____    ______ ____
ROOT
ATOM      1  C   UNL     1      -9.363  16.330  68.066  0.00  0.00    +0.078 C 
ATOM      2  C   UNL     1      -9.596  16.230  66.433  0.00  0.00    +0.052 C 
ATOM      3  C   UNL     1     -10.379  14.973  66.288  0.00  0.00    +0.025 A 
ATOM      4  C   UNL     1     -11.410  14.587  67.095  0.00  0.00    +0.063 A 
ATOM      5  N   UNL     1     -12.441  14.061  66.451  0.00  0.00    -0.226 NA
ATOM      6  C   UNL     1     -12.136  13.269  65.434  0.00  0.00    +0.200 A 
ATOM      7  N   UNL     1     -13.049  12.521  64.618  0.00  0.00    -0.100 NA
ATOM      8  C   UNL     1     -11.467  15.180  68.474  0.00  0.00    +0.048 C 
ATOM      9  S   UNL     1     -10.655  13.975  64.918  0.00  0.00    -0.053 S 
ATOM     10  C   UNL     1     -10.971  16.607  68.330  0.00  0.00    +0.024 C 
ENDROOT
BRANCH   1  11
ATOM     11  N   UNL     1      -9.057  17.882  67.971  0.00  0.00    -0.219 NA
BRANCH  11  12
ATOM     12  C   UNL     1     -10.376  18.363  67.589  0.00  0.00    +0.089 C 
BRANCH  12  14
ATOM     13  C   UNL     1     -10.314  19.933  66.530  0.00  0.00    +0.002 C 
ATOM     14  C   UNL     1     -10.233  19.811  67.141  0.00  0.00    +0.019 C 
ENDBRANCH  12  14
ENDBRANCH  11  12
ENDBRANCH   1  11
TORSDOF 3
ENDMDL
MODEL 4
REMARK VINA RESULT:      -4.9      2.290      5.734
REMARK  Name = 
REMARK  3 active torsions:
REMARK  status: ('A' for Active; 'I' for Inactive)
REMARK    1  A    between atoms: C_2  and  C_3
REMARK    2  A    between atoms: C_3  and  N_4
REMARK    3  A    between atoms: N_4  and  C_5
REMARK                            x       y       z     vdW  Elec       q    Type
REMARK                         _______ _______ _______ _____ _____    ______ ____
ROOT
ATOM      1  C   UNL     1     -10.403  13.825  68.006  0.00  0.00    +0.078 C 
ATOM      2  C   UNL     1     -11.737  13.153  68.713  0.00  0.00    +0.052 C 
ATOM      3  C   UNL     1     -11.965  14.033  69.890  0.00  0.00    +0.025 A 
ATOM      4  C   UNL     1     -11.875  15.394  69.888  0.00  0.00    +0.063 A 
ATOM      5  N   UNL     1     -12.831  16.007  70.571  0.00  0.00    -0.226 NA
ATOM      6  C   UNL     1     -13.187  15.424  71.705  0.00  0.00    +0.200 A 
ATOM      7  N   UNL     1     -14.137  15.908  72.665  0.00  0.00    -0.100 NA
ATOM      8  C   UNL     1     -11.044  16.030  68.810  0.00  0.00    +0.048 C 
ATOM      9  S   UNL     1     -12.878  13.776  71.323  0.00  0.00    -0.053 S 
ATOM     10  C   UNL     1     -11.252  15.176  67.573  0.00  0.00    +0.024 C 
ENDROOT
BRANCH   1  11
ATOM     11  N   UNL     1     -10.723  13.116  66.625  0.00  0.00    -0.219 NA
BRANCH  11  12
ATOM     12  C   UNL     1     -12.048  13.664  66.376  0.00  0.00    +0.089 C 
BRANCH  12  14
ATOM     13  C   UNL     1     -12.473  12.574  64.886  0.00  0.00    +0.002 C 
ATOM     14  C   UNL     1     -12.499  13.191  65.002  0.00  0.00    +0.019 C 
ENDBRANCH  12  14
ENDBRANCH  11  12
ENDBRANCH   1  11
TORSDOF 3
ENDMDL
MODEL 5
REMARK VINA RESULT:      -4.7      3.132      3.642
REMARK  Name = 
REMARK  3 active torsions:
REMARK  status: ('A' for Active; 'I' for Inactive)
REMARK    1  A    between atoms: C_2  and  C_3
REMARK    2  A    between atoms: C_3  and  N_4
REMARK    3  A    between atoms: N_4  and  C_5
REMARK                            x       y       z     vdW  Elec       q    Type
REMARK                         _______ _______ _______ _____ _____    ______ ____
ROOT
ATOM      1  C   UNL     1     -10.433  11.024  68.735  0.00  0.00    +0.078 C 
ATOM      2  C   UNL     1     -11.771  11.943  68.428  0.00  0.00    +0.052 C 
ATOM      3  C   UNL     1     -11.514  12.451  67.054  0.00  0.00    +0.025 A 
ATOM      4  C   UNL     1     -11.007  11.716  66.022  0.00  0.00    +0.063 A 
ATOM      5  N   UNL     1     -11.596  11.932  64.855  0.00  0.00    -0.226 NA
ATOM      6  C   UNL     1     -11.919  13.191  64.602  0.00  0.00    +0.200 A 
ATOM      7  N   UNL     1     -12.497  13.709  63.395  0.00  0.00    -0.100 NA
ATOM      8  C   UNL     1     -10.213  10.490  66.371  0.00  0.00    +0.048 C 
ATOM      9  S   UNL     1     -12.206  13.769  66.196  0.00  0.00    -0.053 S 
ATOM     10  C   UNL     1     -10.880   9.904  67.603  0.00  0.00    +0.024 C 
ENDROOT
BRANCH   1  11
ATOM     11  N   UNL     1     -11.185  10.236  69.887  0.00  0.00    -0.219 NA
BRANCH  11  12
ATOM     12  C   UNL     1     -12.048  11.299  70.379  0.00  0.00    +0.089 C 
BRANCH  12  14
ATOM     13  C   UNL     1     -12.909  10.109  71.576  0.00  0.00    +0.002 C 
ATOM     14  C   UNL     1     -12.878  10.735  71.523  0.00  0.00    +0.019 C 
ENDBRANCH  12  14
ENDBRANCH  11  12
ENDBRANCH   1  11
TORSDOF 3
ENDMDL
MODEL 6
REMARK VINA RESULT:      -4.7      3.070      4.529
REMARK  Name = 
REMARK  3 active torsions:
REMARK  status: ('A' for Active; 'I' for Inactive)
REMARK    1  A    between atoms: C_2  and  C_3
REMARK    2  A    between atoms: C_3  and  N_4
REMARK    3  A    between atoms: N_4  and  C_5
REMARK                            x       y       z     vdW  Elec       q    Type
REMARK                         _______ _______ _______ _____ _____    ______ ____
ROOT
ATOM      1  C   UNL     1     -10.763  13.029  66.986  0.00  0.00    +0.078 C 
ATOM      2  C   UNL     1     -11.422  14.335  67.754  0.00  0.00    +0.052 C 
ATOM      3  C   UNL     1     -10.683  15.478  67.155  0.00  0.00    +0.025 A 
ATOM      4  C   UNL     1     -10.379  15.616  65.832  0.00  0.00    +0.063 A 
ATOM      5  N   UNL     1     -10.547  16.841  65.356  0.00  0.00    -0.226 NA
ATOM      6  C   UNL     1     -10.186  17.823  66.167  0.00  0.00    +0.200 A 
ATOM      7  N   UNL     1     -10.194  19.229  65.879  0.00  0.00    -0.100 NA
ATOM      8  C   UNL     1     -10.341  14.367  64.998  0.00  0.00    +0.048 C 
ATOM      9  S   UNL     1     -10.488  17.096  67.696  0.00  0.00    -0.053 S 
ATOM     10  C   UNL     1     -11.439  13.473  65.544  0.00  0.00    +0.024 C 
ENDROOT
BRANCH   1  11
ATOM     11  N   UNL     1     -12.012  12.126  67.355  0.00  0.00    -0.219 NA
BRANCH  11  12
ATOM     12  C   UNL     1     -11.336  11.071  68.094  0.00  0.00    +0.089 C 
BRANCH  12  14
ATOM     13  C   UNL     1     -11.556  10.876  69.966  0.00  0.00    +0.002 C 
ATOM     14  C   UNL     1     -11.941  11.016  69.489  0.00  0.00    +0.019 C 
ENDBRANCH  12  14
ENDBRANCH  11  12
ENDBRANCH   1  11
TORSDOF 3
ENDMDL
MODEL 7
REMARK VINA RESULT:      -4.6      2.262      5.855
REMARK  Name = 
REMARK  3 active torsions:
REMARK  status: ('A' for Active; 'I' for Inactive)
REMARK    1  A    between atoms: C_2  and  C_3
REMARK    2  A    between atoms: C_3  and  N_4
REMARK    3  A    between atoms: N_4  and  C_5
REMARK                            x       y       z     vdW  Elec       q    Type
REMARK                         _______ _______ _______ _____ _____    ______ ____
ROOT
ATOM      1  C   UNL     1     -12.081  14.170  66.567  0.00  0.00    +0.078 C 
ATOM      2  C   UNL     1     -10.748  14.963  65.996  0.00  0.00    +0.052 C 
ATOM      3  C   UNL     1     -10.715  16.194  66.829  0.00  0.00    +0.025 A 
ATOM      4  C   UNL     1     -10.948  16.245  68.172  0.00  0.00    +0.063 A 
ATOM      5  N   UNL     1     -10.124  17.038  68.841  0.00  0.00    -0.226 NA
ATOM      6  C   UNL     1      -9.807  18.173  68.237  0.00  0.00    +0.200 A 
ATOM      7  N   UNL     1      -8.998  19.235  68.762  0.00  0.00    -0.100 NA
ATOM      8  C   UNL     1     -11.748  15.127  68.778  0.00  0.00    +0.048 C 
ATOM      9  S   UNL     1      -9.906  17.690  66.589  0.00  0.00    -0.053 S 
ATOM     10  C   UNL     1     -11.346  13.876  68.018  0.00  0.00    +0.024 C 
ENDROOT
BRANCH   1  11
ATOM     11  N   UNL     1     -11.571  12.793  65.970  0.00  0.00    -0.219 NA
BRANCH  11  12
ATOM     12  C   UNL     1     -12.501  12.655  64.859  0.00  0.00    +0.089 C 
BRANCH  12  14
ATOM     13  C   UNL     1     -11.409  11.724  63.621  0.00  0.00    +0.002 C 
ATOM     14  C   UNL     1     -11.698  12.283  63.621  0.00  0.00    +0.019 C 
ENDBRANCH  12  14
ENDBRANCH  11  12
ENDBRANCH   1  11
TORSDOF 3
ENDMDL
MODEL 8
REMARK VINA RESULT:      -4.5      3.464      4.283
REMARK  Name = 
REMARK  3 active torsions:
REMARK  status: ('A' for Active; 'I' for Inactive)
REMARK    1  A    between atoms: C_2  and  C_3
REMARK    2  A    between atoms: C_3  and  N_4
REMARK    3  A    between atoms: N_4  and  C_5
REMARK                            x       y       z     vdW  Elec       q    Type
REMARK                         _______ _______ _______ _____ _____    ______ ____
ROOT
ATOM      1  C   UNL     1     -10.556  15.802  69.118  0.00  0.00    +0.078 C 
ATOM      2  C   UNL     1     -10.263  17.402  68.826  0.00  0.00    +0.052 C 
ATOM      3  C   UNL     1      -9.057  17.362  67.957  0.00  0.00    +0.025 A 
ATOM      4  C   UNL     1      -8.852  16.489  66.929  0.00  0.00    +0.063 A 
ATOM      5  N   UNL     1      -8.321  17.035  65.845  0.00  0.00    -0.226 NA
ATOM      6  C   UNL     1      -7.385  17.946  66.063  0.00  0.00    +0.200 A 
ATOM      7  N   UNL     1      -6.604  18.635  65.077  0.00  0.00    -0.100 NA
ATOM      8  C   UNL     1      -9.620  15.198  66.955  0.00  0.00    +0.048 C 
ATOM      9  S   UNL     1      -7.912  18.583  67.571  0.00  0.00    -0.053 S 
ATOM     10  C   UNL     1     -10.978  15.540  67.541  0.00  0.00    +0.024 C 
ENDROOT
BRANCH   1  11
ATOM     11  N   UNL     1     -12.058  16.106  69.524  0.00  0.00    -0.219 NA
BRANCH  11  12
ATOM     12  C   UNL     1     -12.169  15.247  70.693  0.00  0.00    +0.089 C 
BRANCH  12  14
ATOM     13  C   UNL     1     -12.239  15.970  72.443  0.00  0.00    +0.002 C 
ATOM     14  C   UNL     1     -11.905  16.099  71.926  0.00  0.00    +0.019 C 
ENDBRANCH  12  14
ENDBRANCH  11  12
ENDBRANCH   1  11
TORSDOF 3
ENDMDL
MODEL 9
REMARK VINA RESULT:      -4.5      2.852      3.822
REMARK  Name = 
REMARK  3 active torsions:
REMARK  status: ('A' for Active; 'I' for Inactive)
REMARK    1  A    between atoms: C_2  and  C_3
REMARK    2  A    between atoms: C_3  and  N_4
REMARK    3  A    between atoms: N_4  and  C_5
REMARK                            x       y       z     vdW  Elec       q    Type
REMARK                         _______ _______ _______ _____ _____    ______ ____
ROOT
ATOM      1  C   UNL     1     -11.200  14.335  69.397  0.00  0.00    +0.078 C 
ATOM      2  C   UNL     1     -11.496  15.951  69.574  0.00  0.00    +0.052 C 
ATOM      3  C   UNL     1     -10.559  16.566  68.597  0.00  0.00    +0.025 A 
ATOM      4  C   UNL     1     -10.319  16.107  67.335  0.00  0.00    +0.063 A 
ATOM      5  N   UNL     1     -10.237  17.055  66.413  0.00  0.00    -0.226 NA
ATOM      6  C   UNL     1      -9.611  18.161  66.785  0.00  0.00    +0.200 A 
ATOM      7  N   UNL     1      -9.322  19.306  65.970  0.00  0.00    -0.100 NA
ATOM      8  C   UNL     1     -10.617  14.661  67.058  0.00  0.00    +0.048 C 
ATOM      9  S   UNL     1      -9.970  18.175  68.467  0.00  0.00    -0.053 S 
ATOM     10  C   UNL     1     -11.852  14.331  67.877  0.00  0.00    +0.024 C 
ENDROOT
BRANCH   1  11
ATOM     11  N   UNL     1     -12.595  13.964  70.053  0.00  0.00    -0.219 NA
BRANCH  11  12
ATOM     12  C   UNL     1     -12.351  14.426  71.411  0.00  0.00    +0.089 C 
BRANCH  12  14
ATOM     13  C   UNL     1     -13.996  13.979  72.236  0.00  0.00    +0.002 C 
ATOM     14  C   UNL     1     -13.400  13.795  72.315  0.00  0.00    +0.019 C 
ENDBRANCH  12  14
ENDBRANCH  11  12
ENDBRANCH   1  11
TORSDOF 3
ENDMDL
