MODEL 1
REMARK VINA RESULT:      -4.6      0.000      0.000
REMARK  Name = 
REMARK  1 active torsions:
REMARK  status: ('A' for Active; 'I' for Inactive)
REMARK    1  A    between atoms: C_2  and  C_3
REMARK                            x       y       z     vdW  Elec       q    Type
REMARK                         _______ _______ _______ _____ _____    ______ ____
ROOT
ATOM      1  N   UNL     1     -12.539  14.195  63.776  0.00  0.00    -0.123 NA
ATOM      2  C   UNL     1     -11.570  14.361  64.850  0.00  0.00    +0.175 C 
ATOM      3  C   UNL     1     -10.540  13.297  64.867  0.00  0.00    +0.064 C 
ATOM      4  C   UNL     1     -10.949  13.034  66.468  0.00  0.00    +0.165 C 
ATOM      5  F   UNL     1     -11.771  11.783  66.097  0.00  0.00    -0.237 F 
ATOM      6  C   UNL     1     -12.243  14.040  66.133  0.00  0.00    +0.064 C 
ENDROOT
BRANCH   2   7
ATOM      7  C   UNL     1     -11.053  15.750  64.827  0.00  0.00    +0.380 C 
ATOM      8  O   UNL     1     -11.638  16.648  63.936  0.00  0.00    -0.244 OA
ATOM      9  O   UNL     1      -9.924  16.070  65.308  0.00  0.00    -0.244 OA
ENDBRANCH   2   7
TORSDOF 1
ENDMDL
MODEL 2
REMARK VINA RESULT:      -4.2      7.224      7.824
REMARK  Name = 
REMARK  1 active torsions:
REMARK  status: ('A' for Active; 'I' for Inactive)
REMARK    1  A    between atoms: C_2  and  C_3
REMARK                            x       y       z     vdW  Elec       q    Type
REMARK                         _______ _______ _______ _____ _____    ______ ____
ROOT
ATOM      1  N   UNL     1     -14.539  15.928  72.255  0.00  0.00    -0.123 NA
ATOM      2  C   UNL     1     -13.193  15.389  72.386  0.00  0.00    +0.175 C 
ATOM      3  C   UNL     1     -12.270  15.883  71.338  0.00  0.00    +0.064 C 
ATOM      4  C   UNL     1     -11.928  14.281  70.995  0.00  0.00    +0.165 C 
ATOM      5  F   UNL     1     -12.837  14.309  69.751  0.00  0.00    -0.237 F 
ATOM      6  C   UNL     1     -13.229  13.958  71.996  0.00  0.00    +0.064 C 
ENDROOT
BRANCH   2   7
ATOM      7  C   UNL     1     -12.731  15.573  73.782  0.00  0.00    +0.380 C 
ATOM      8  O   UNL     1     -12.575  16.876  74.251  0.00  0.00    -0.244 OA
ATOM      9  O   UNL     1     -12.162  14.652  74.444  0.00  0.00    -0.244 OA
ENDBRANCH   2   7
TORSDOF 1
ENDMDL
MODEL 3
REMARK VINA RESULT:      -4.2      1.481      1.915
REMARK  Name = 
REMARK  1 active torsions:
REMARK  status: ('A' for Active; 'I' for Inactive)
REMARK    1  A    between atoms: C_2  and  C_3
REMARK                            x       y       z     vdW  Elec       q    Type
REMARK                         _______ _______ _______ _____ _____    ______ ____
ROOT
ATOM      1  N   UNL     1     -10.798  14.401  66.836  0.00  0.00    -0.123 NA
ATOM      2  C   UNL     1     -11.210  14.583  65.452  0.00  0.00    +0.175 C 
ATOM      3  C   UNL     1     -12.595  14.127  65.198  0.00  0.00    +0.064 C 
ATOM      4  C   UNL     1     -11.975  13.182  63.965  0.00  0.00    +0.165 C 
ATOM      5  F   UNL     1     -12.063  11.913  64.836  0.00  0.00    -0.237 F 
ATOM      6  C   UNL     1     -10.491  13.586  64.621  0.00  0.00    +0.064 C 
ENDROOT
BRANCH   2   7
ATOM      7  C   UNL     1     -10.908  15.973  65.035  0.00  0.00    +0.380 C 
ATOM      8  O   UNL     1     -11.608  16.494  63.948  0.00  0.00    -0.244 OA
ATOM      9  O   UNL     1      -9.848  16.579  65.379  0.00  0.00    -0.244 OA
ENDBRANCH   2   7
TORSDOF 1
ENDMDL
MODEL 4
REMARK VINA RESULT:      -4.2      2.636      2.941
REMARK  Name = 
REMARK  1 active torsions:
REMARK  status: ('A' for Active; 'I' for Inactive)
REMARK    1  A    between atoms: C_2  and  C_3
REMARK                            x       y       z     vdW  Elec       q    Type
REMARK                         _______ _______ _______ _____ _____    ______ ____
ROOT
ATOM      1  N   UNL     1     -12.552  15.052  63.934  0.00  0.00    -0.123 NA
ATOM      2  C   UNL     1     -11.887  13.927  64.576  0.00  0.00    +0.175 C 
ATOM      3  C   UNL     1     -12.408  13.647  65.933  0.00  0.00    +0.064 C 
ATOM      4  C   UNL     1     -10.829  13.754  66.477  0.00  0.00    +0.165 C 
ATOM      5  F   UNL     1     -11.071  15.173  67.030  0.00  0.00    -0.237 F 
ATOM      6  C   UNL     1     -10.515  14.353  64.947  0.00  0.00    +0.064 C 
ENDROOT
BRANCH   2   7
ATOM      7  C   UNL     1     -11.877  12.774  63.645  0.00  0.00    +0.380 C 
ATOM      8  O   UNL     1     -13.062  12.060  63.480  0.00  0.00    -0.244 OA
ATOM      9  O   UNL     1     -10.807  12.209  63.264  0.00  0.00    -0.244 OA
ENDBRANCH   2   7
TORSDOF 1
ENDMDL
MODEL 5
REMARK VINA RESULT:      -4.1      1.810      2.308
REMARK  Name = 
REMARK  1 active torsions:
REMARK  status: ('A' for Active; 'I' for Inactive)
REMARK    1  A    between atoms: C_2  and  C_3
REMARK                            x       y       z     vdW  Elec       q    Type
REMARK                         _______ _______ _______ _____ _____    ______ ____
ROOT
ATOM      1  N   UNL     1     -13.266  12.252  64.254  0.00  0.00    -0.123 NA
ATOM      2  C   UNL     1     -11.918  12.731  64.527  0.00  0.00    +0.175 C 
ATOM      3  C   UNL     1     -10.920  12.230  63.556  0.00  0.00    +0.064 C 
ATOM      4  C   UNL     1     -10.038  11.676  64.866  0.00  0.00    +0.165 C 
ATOM      5  F   UNL     1     -10.516  10.229  64.629  0.00  0.00    -0.237 F 
ATOM      6  C   UNL     1     -11.419  12.038  65.740  0.00  0.00    +0.064 C 
ENDROOT
BRANCH   2   7
ATOM      7  C   UNL     1     -11.954  14.202  64.705  0.00  0.00    +0.380 C 
ATOM      8  O   UNL     1     -11.553  14.720  65.935  0.00  0.00    -0.244 OA
ATOM      9  O   UNL     1     -12.626  14.969  63.950  0.00  0.00    -0.244 OA
ENDBRANCH   2   7
TORSDOF 1
ENDMDL
MODEL 6
REMARK VINA RESULT:      -4.0      2.072      2.369
REMARK  Name = 
REMARK  1 active torsions:
REMARK  status: ('A' for Active; 'I' for Inactive)
REMARK    1  A    between atoms: C_2  and  C_3
REMARK                            x       y       z     vdW  Elec       q    Type
REMARK                         _______ _______ _______ _____ _____    ______ ____
ROOT
ATOM      1  N   UNL     1     -10.325  13.527  64.789  0.00  0.00    -0.123 NA
ATOM      2  C   UNL     1     -10.753  14.795  65.362  0.00  0.00    +0.175 C 
ATOM      3  C   UNL     1      -9.634  15.576  65.935  0.00  0.00    +0.064 C 
ATOM      4  C   UNL     1     -10.514  15.646  67.357  0.00  0.00    +0.165 C 
ATOM      5  F   UNL     1      -9.647  14.544  67.998  0.00  0.00    -0.237 F 
ATOM      6  C   UNL     1     -11.492  14.509  66.616  0.00  0.00    +0.064 C 
ENDROOT
BRANCH   2   7
ATOM      7  C   UNL     1     -11.593  15.514  64.374  0.00  0.00    +0.380 C 
ATOM      8  O   UNL     1     -11.354  16.874  64.183  0.00  0.00    -0.244 OA
ATOM      9  O   UNL     1     -12.702  15.061  63.956  0.00  0.00    -0.244 OA
ENDBRANCH   2   7
TORSDOF 1
ENDMDL
MODEL 7
REMARK VINA RESULT:      -4.0      1.587      1.969
REMARK  Name = 
REMARK  1 active torsions:
REMARK  status: ('A' for Active; 'I' for Inactive)
REMARK    1  A    between atoms: C_2  and  C_3
REMARK                            x       y       z     vdW  Elec       q    Type
REMARK                         _______ _______ _______ _____ _____    ______ ____
ROOT
ATOM      1  N   UNL     1      -9.586  15.302  65.739  0.00  0.00    -0.123 NA
ATOM      2  C   UNL     1     -10.863  14.692  65.397  0.00  0.00    +0.175 C 
ATOM      3  C   UNL     1     -11.575  14.146  66.575  0.00  0.00    +0.064 C 
ATOM      4  C   UNL     1     -11.663  12.692  65.750  0.00  0.00    +0.165 C 
ATOM      5  F   UNL     1     -10.506  12.102  66.581  0.00  0.00    -0.237 F 
ATOM      6  C   UNL     1     -10.592  13.417  64.689  0.00  0.00    +0.064 C 
ENDROOT
BRANCH   2   7
ATOM      7  C   UNL     1     -11.643  15.636  64.562  0.00  0.00    +0.380 C 
ATOM      8  O   UNL     1     -12.678  15.117  63.785  0.00  0.00    -0.244 OA
ATOM      9  O   UNL     1     -11.222  16.794  64.259  0.00  0.00    -0.244 OA
ENDBRANCH   2   7
TORSDOF 1
ENDMDL
MODEL 8
REMARK VINA RESULT:      -3.9      6.582      7.091
REMARK  Name = 
REMARK  1 active torsions:
REMARK  status: ('A' for Active; 'I' for Inactive)
REMARK    1  A    between atoms: C_2  and  C_3
REMARK                            x       y       z     vdW  Elec       q    Type
REMARK                         _______ _______ _______ _____ _____    ______ ____
ROOT
ATOM      1  N   UNL     1     -12.980  13.272  71.567  0.00  0.00    -0.123 NA
ATOM      2  C   UNL     1     -12.986  14.724  71.460  0.00  0.00    +0.175 C 
ATOM      3  C   UNL     1     -12.640  15.204  70.103  0.00  0.00    +0.064 C 
ATOM      4  C   UNL     1     -11.456  16.143  70.821  0.00  0.00    +0.165 C 
ATOM      5  F   UNL     1     -10.354  15.151  70.399  0.00  0.00    -0.237 F 
ATOM      6  C   UNL     1     -11.804  15.246  72.189  0.00  0.00    +0.064 C 
ENDROOT
BRANCH   2   7
ATOM      7  C   UNL     1     -14.256  15.246  72.017  0.00  0.00    +0.380 C 
ATOM      8  O   UNL     1     -15.437  14.948  71.338  0.00  0.00    -0.244 OA
ATOM      9  O   UNL     1     -14.300  16.198  72.854  0.00  0.00    -0.244 OA
ENDBRANCH   2   7
TORSDOF 1
ENDMDL
MODEL 9
REMARK VINA RESULT:      -3.9      2.645      2.908
REMARK  Name = 
REMARK  1 active torsions:
REMARK  status: ('A' for Active; 'I' for Inactive)
REMARK    1  A    between atoms: C_2  and  C_3
REMARK                            x       y       z     vdW  Elec       q    Type
REMARK                         _______ _______ _______ _____ _____    ______ ____
ROOT
ATOM      1  N   UNL     1     -11.749  11.956  66.464  0.00  0.00    -0.123 NA
ATOM      2  C   UNL     1     -11.679  13.320  65.960  0.00  0.00    +0.175 C 
ATOM      3  C   UNL     1     -10.291  13.775  65.719  0.00  0.00    +0.064 C 
ATOM      4  C   UNL     1     -10.637  15.091  66.692  0.00  0.00    +0.165 C 
ATOM      5  F   UNL     1      -9.881  14.464  67.881  0.00  0.00    -0.237 F 
ATOM      6  C   UNL     1     -12.027  14.241  67.069  0.00  0.00    +0.064 C 
ENDROOT
BRANCH   2   7
ATOM      7  C   UNL     1     -12.605  13.460  64.811  0.00  0.00    +0.380 C 
ATOM      8  O   UNL     1     -13.307  12.328  64.398  0.00  0.00    -0.244 OA
ATOM      9  O   UNL     1     -12.545  14.428  63.994  0.00  0.00    -0.244 OA
ENDBRANCH   2   7
TORSDOF 1
ENDMDL
