MODEL 1
REMARK VINA RESULT:      -7.7      0.000      0.000
REMARK  Name = 
REMARK  2 active torsions:
REMARK  status: ('A' for Active; 'I' for Inactive)
REMARK    1  A    between atoms: C_2  and  C_10
REMARK    2  A    between atoms: C_3  and  C_4
REMARK                            x       y       z     vdW  Elec       q    Type
REMARK                         _______ _______ _______ _____ _____    ______ ____
ROOT
ATOM      1  C   UNL     1      -9.331  15.273  67.663  0.00  0.00    +0.116 C 
ATOM      2  N   UNL     1      -8.024  14.456  67.250  0.00  0.00    -0.203 NA
ATOM      3  C   UNL     1      -7.581  13.830  68.464  0.00  0.00    +0.244 C 
ATOM      4  O   UNL     1      -7.224  12.612  68.508  0.00  0.00    -0.273 OA
ATOM      5  C   UNL     1      -6.861  14.837  69.312  0.00  0.00    +0.120 C 
ATOM      6  C   UNL     1      -5.317  14.383  68.821  0.00  0.00    +0.167 C 
ATOM      7  O   UNL     1      -5.543  15.033  67.438  0.00  0.00    -0.222 OA
ATOM      8  C   UNL     1      -4.586  15.703  69.526  0.00  0.00    +0.080 C 
ATOM      9  C   UNL     1      -5.246  16.013  70.765  0.00  0.00    +0.010 C 
ATOM     10  C   UNL     1      -3.306  14.964  69.935  0.00  0.00    +0.010 C 
ATOM     11  C   UNL     1      -4.329  16.704  68.494  0.00  0.00    +0.154 C 
ATOM     12  O   UNL     1      -3.554  16.205  67.670  0.00  0.00    -0.296 OA
ATOM     13  C   UNL     1      -3.775  17.957  69.340  0.00  0.00    +0.088 C 
ATOM     14  C   UNL     1      -2.195  17.776  68.925  0.00  0.00    +0.010 C 
ATOM     15  C   UNL     1      -4.021  19.173  68.127  0.00  0.00    +0.159 C 
ATOM     16  O   UNL     1      -3.574  18.320  66.958  0.00  0.00    -0.223 OA
ATOM     17  C   UNL     1      -5.689  18.774  67.954  0.00  0.00    +0.031 C 
ATOM     18  C   UNL     1      -6.053  19.404  69.417  0.00  0.00    +0.003 C 
ATOM     19  C   UNL     1      -6.035  20.184  67.211  0.00  0.00    +0.003 C 
ATOM     20  C   UNL     1      -7.563  20.282  67.250  0.00  0.00    +0.003 C 
ATOM     21  C   UNL     1      -8.227  18.975  67.216  0.00  0.00    +0.030 C 
ATOM     22  C   UNL     1      -9.624  19.004  67.088  0.00  0.00    +0.118 C 
ATOM     23  C   UNL     1     -10.264  17.481  67.212  0.00  0.00    +0.142 C 
ATOM     24  C   UNL     1     -10.623  20.067  67.236  0.00  0.00    +0.032 C 
ATOM     25  O   UNL     1     -10.169  18.231  65.759  0.00  0.00    -0.356 OA
ATOM     26  C   UNL     1      -8.752  16.682  66.988  0.00  0.00    +0.058 C 
ENDROOT
BRANCH   1  28
ATOM     27  C   UNL     1      -9.812  14.804  65.705  0.00  0.00    +0.028 C 
ATOM     28  C   UNL     1     -10.055  14.869  66.246  0.00  0.00    -0.023 C 
ATOM     29  C   UNL     1     -11.163  14.174  66.453  0.00  0.00    +0.013 C 
BRANCH  29  30
ATOM     30  C   UNL     1     -11.462  13.070  65.529  0.00  0.00    +0.087 A 
ATOM     31  N   UNL     1     -10.934  11.876  65.755  0.00  0.00    -0.243 NA
ATOM     32  C   UNL     1     -10.583  11.215  64.661  0.00  0.00    +0.089 A 
ATOM     33  C   UNL     1      -9.812   9.938  64.772  0.00  0.00    +0.059 C 
ATOM     34  S   UNL     1     -11.692  11.813  63.500  0.00  0.00    -0.070 S 
ATOM     35  C   UNL     1     -12.394  13.029  64.498  0.00  0.00    +0.056 A 
ENDBRANCH  29  30
ENDBRANCH   1  28
TORSDOF 2
ENDMDL
MODEL 2
REMARK VINA RESULT:      -7.3      3.009      5.483
REMARK  Name = 
REMARK  2 active torsions:
REMARK  status: ('A' for Active; 'I' for Inactive)
REMARK    1  A    between atoms: C_2  and  C_10
REMARK    2  A    between atoms: C_3  and  C_4
REMARK                            x       y       z     vdW  Elec       q    Type
REMARK                         _______ _______ _______ _____ _____    ______ ____
ROOT
ATOM      1  C   UNL     1     -10.050  16.221  66.749  0.00  0.00    +0.116 C 
ATOM      2  N   UNL     1     -10.120  17.588  67.567  0.00  0.00    -0.203 NA
ATOM      3  C   UNL     1      -9.909  18.616  66.587  0.00  0.00    +0.244 C 
ATOM      4  O   UNL     1     -10.625  19.665  66.538  0.00  0.00    -0.273 OA
ATOM      5  C   UNL     1      -8.445  18.711  66.269  0.00  0.00    +0.120 C 
ATOM      6  C   UNL     1      -8.142  20.001  67.307  0.00  0.00    +0.167 C 
ATOM      7  O   UNL     1      -8.280  19.073  68.534  0.00  0.00    -0.222 OA
ATOM      8  C   UNL     1      -6.487  19.869  67.163  0.00  0.00    +0.080 C 
ATOM      9  C   UNL     1      -6.150  19.504  65.815  0.00  0.00    +0.010 C 
ATOM     10  C   UNL     1      -6.210  21.375  67.245  0.00  0.00    +0.010 C 
ATOM     11  C   UNL     1      -5.971  19.157  68.329  0.00  0.00    +0.154 C 
ATOM     12  O   UNL     1      -6.237  19.831  69.330  0.00  0.00    -0.296 OA
ATOM     13  C   UNL     1      -4.411  18.974  67.976  0.00  0.00    +0.088 C 
ATOM     14  C   UNL     1      -3.852  20.134  68.997  0.00  0.00    +0.010 C 
ATOM     15  C   UNL     1      -4.068  17.713  69.117  0.00  0.00    +0.159 C 
ATOM     16  O   UNL     1      -4.906  18.288  70.240  0.00  0.00    -0.223 OA
ATOM     17  C   UNL     1      -5.331  16.710  68.508  0.00  0.00    +0.031 C 
ATOM     18  C   UNL     1      -4.508  16.412  67.128  0.00  0.00    +0.003 C 
ATOM     19  C   UNL     1      -4.721  15.371  69.212  0.00  0.00    +0.003 C 
ATOM     20  C   UNL     1      -5.453  14.208  68.539  0.00  0.00    +0.003 C 
ATOM     21  C   UNL     1      -6.814  14.550  68.112  0.00  0.00    +0.030 C 
ATOM     22  C   UNL     1      -7.590  13.482  67.635  0.00  0.00    +0.118 C 
ATOM     23  C   UNL     1      -9.043  14.019  67.048  0.00  0.00    +0.142 C 
ATOM     24  C   UNL     1      -7.265  12.114  67.217  0.00  0.00    +0.032 C 
ATOM     25  O   UNL     1      -8.959  13.244  68.489  0.00  0.00    -0.356 OA
ATOM     26  C   UNL     1      -8.920  15.573  67.787  0.00  0.00    +0.058 C 
ENDROOT
BRANCH   1  28
ATOM     27  C   UNL     1     -11.454  15.030  67.695  0.00  0.00    +0.028 C 
ATOM     28  C   UNL     1     -11.268  15.595  67.654  0.00  0.00    -0.023 C 
ATOM     29  C   UNL     1     -11.511  16.345  68.717  0.00  0.00    +0.013 C 
BRANCH  29  30
ATOM     30  C   UNL     1     -11.843  15.662  69.977  0.00  0.00    +0.087 A 
ATOM     31  N   UNL     1     -13.063  15.176  70.147  0.00  0.00    -0.243 NA
ATOM     32  C   UNL     1     -13.530  15.287  71.383  0.00  0.00    +0.089 A 
ATOM     33  C   UNL     1     -14.956  14.946  71.679  0.00  0.00    +0.059 C 
ATOM     34  S   UNL     1     -12.099  15.233  72.322  0.00  0.00    -0.070 S 
ATOM     35  C   UNL     1     -10.990  15.272  71.004  0.00  0.00    +0.056 A 
ENDBRANCH  29  30
ENDBRANCH   1  28
TORSDOF 2
ENDMDL
MODEL 3
REMARK VINA RESULT:      -7.1      5.072      9.392
REMARK  Name = 
REMARK  2 active torsions:
REMARK  status: ('A' for Active; 'I' for Inactive)
REMARK    1  A    between atoms: C_2  and  C_10
REMARK    2  A    between atoms: C_3  and  C_4
REMARK                            x       y       z     vdW  Elec       q    Type
REMARK                         _______ _______ _______ _____ _____    ______ ____
ROOT
ATOM      1  C   UNL     1     -11.606  11.056  68.232  0.00  0.00    +0.116 C 
ATOM      2  N   UNL     1     -10.068  11.111  67.811  0.00  0.00    -0.203 NA
ATOM      3  C   UNL     1     -10.019  10.503  66.511  0.00  0.00    +0.244 C 
ATOM      4  O   UNL     1      -9.362  11.009  65.550  0.00  0.00    -0.273 OA
ATOM      5  C   UNL     1     -10.077   9.010  66.655  0.00  0.00    +0.120 C 
ATOM      6  C   UNL     1      -8.415   8.775  66.541  0.00  0.00    +0.167 C 
ATOM      7  O   UNL     1      -8.214   9.360  67.957  0.00  0.00    -0.222 OA
ATOM      8  C   UNL     1      -8.497   7.180  67.012  0.00  0.00    +0.080 C 
ATOM      9  C   UNL     1      -9.683   6.578  66.466  0.00  0.00    +0.010 C 
ATOM     10  C   UNL     1      -7.358   6.698  66.107  0.00  0.00    +0.010 C 
ATOM     11  C   UNL     1      -8.143   7.090  68.426  0.00  0.00    +0.154 C 
ATOM     12  O   UNL     1      -6.979   7.487  68.549  0.00  0.00    -0.296 OA
ATOM     13  C   UNL     1      -8.416   5.539  68.766  0.00  0.00    +0.088 C 
ATOM     14  C   UNL     1      -6.839   5.078  68.804  0.00  0.00    +0.010 C 
ATOM     15  C   UNL     1      -8.479   5.696  70.493  0.00  0.00    +0.159 C 
ATOM     16  O   UNL     1      -7.337   6.686  70.601  0.00  0.00    -0.223 OA
ATOM     17  C   UNL     1      -9.701   6.908  70.418  0.00  0.00    +0.031 C 
ATOM     18  C   UNL     1     -10.829   5.825  69.944  0.00  0.00    +0.003 C 
ATOM     19  C   UNL     1     -10.109   6.712  71.985  0.00  0.00    +0.003 C 
ATOM     20  C   UNL     1     -11.455   7.427  72.131  0.00  0.00    +0.003 C 
ATOM     21  C   UNL     1     -11.606   8.567  71.221  0.00  0.00    +0.030 C 
ATOM     22  C   UNL     1     -12.749   9.357  71.419  0.00  0.00    +0.118 C 
ATOM     23  C   UNL     1     -12.881  10.515  70.240  0.00  0.00    +0.142 C 
ATOM     24  C   UNL     1     -13.987   9.159  72.178  0.00  0.00    +0.032 C 
ATOM     25  O   UNL     1     -12.407  10.916  71.756  0.00  0.00    -0.356 OA
ATOM     26  C   UNL     1     -11.255  10.336  69.694  0.00  0.00    +0.058 C 
ENDROOT
BRANCH   1  28
ATOM     27  C   UNL     1     -11.075  12.758  69.284  0.00  0.00    +0.028 C 
ATOM     28  C   UNL     1     -11.492  12.544  68.916  0.00  0.00    -0.023 C 
ATOM     29  C   UNL     1     -12.125  13.454  68.193  0.00  0.00    +0.013 C 
BRANCH  29  30
ATOM     30  C   UNL     1     -11.510  14.786  68.077  0.00  0.00    +0.087 A 
ATOM     31  N   UNL     1     -10.773  15.068  67.013  0.00  0.00    -0.243 NA
ATOM     32  C   UNL     1      -9.719  15.832  67.263  0.00  0.00    +0.089 A 
ATOM     33  C   UNL     1      -8.703  16.080  66.194  0.00  0.00    +0.059 C 
ATOM     34  S   UNL     1     -10.243  16.750  68.611  0.00  0.00    -0.070 S 
ATOM     35  C   UNL     1     -11.728  15.914  68.861  0.00  0.00    +0.056 A 
ENDBRANCH  29  30
ENDBRANCH   1  28
TORSDOF 2
ENDMDL
MODEL 4
REMARK VINA RESULT:      -6.9      3.072      8.044
REMARK  Name = 
REMARK  2 active torsions:
REMARK  status: ('A' for Active; 'I' for Inactive)
REMARK    1  A    between atoms: C_2  and  C_10
REMARK    2  A    between atoms: C_3  and  C_4
REMARK                            x       y       z     vdW  Elec       q    Type
REMARK                         _______ _______ _______ _____ _____    ______ ____
ROOT
ATOM      1  C   UNL     1      -7.943  17.142  68.108  0.00  0.00    +0.116 C 
ATOM      2  N   UNL     1      -8.366  17.151  66.570  0.00  0.00    -0.203 NA
ATOM      3  C   UNL     1      -9.774  17.435  66.576  0.00  0.00    +0.244 C 
ATOM      4  O   UNL     1     -10.299  18.280  65.786  0.00  0.00    -0.273 OA
ATOM      5  C   UNL     1     -10.533  16.189  66.928  0.00  0.00    +0.120 C 
ATOM      6  C   UNL     1     -10.889  15.766  65.338  0.00  0.00    +0.167 C 
ATOM      7  O   UNL     1      -9.421  15.350  65.098  0.00  0.00    -0.222 OA
ATOM      8  C   UNL     1     -11.444  14.250  65.750  0.00  0.00    +0.080 C 
ATOM      9  C   UNL     1     -12.148  14.320  67.002  0.00  0.00    +0.010 C 
ATOM     10  C   UNL     1     -12.542  14.198  64.682  0.00  0.00    +0.010 C 
ATOM     11  C   UNL     1     -10.386  13.277  65.490  0.00  0.00    +0.154 C 
ATOM     12  O   UNL     1     -10.141  13.302  64.279  0.00  0.00    -0.296 OA
ATOM     13  C   UNL     1     -11.006  11.910  66.074  0.00  0.00    +0.088 C 
ATOM     14  C   UNL     1     -11.367  11.235  64.619  0.00  0.00    +0.010 C 
ATOM     15  C   UNL     1      -9.519  11.022  66.189  0.00  0.00    +0.159 C 
ATOM     16  O   UNL     1      -8.935  11.525  64.885  0.00  0.00    -0.223 OA
ATOM     17  C   UNL     1      -8.773  12.243  67.150  0.00  0.00    +0.031 C 
ATOM     18  C   UNL     1      -9.707  11.881  68.441  0.00  0.00    +0.003 C 
ATOM     19  C   UNL     1      -7.597  11.237  67.664  0.00  0.00    +0.003 C 
ATOM     20  C   UNL     1      -6.956  11.959  68.852  0.00  0.00    +0.003 C 
ATOM     21  C   UNL     1      -7.005  13.420  68.736  0.00  0.00    +0.030 C 
ATOM     22  C   UNL     1      -6.294  14.134  69.713  0.00  0.00    +0.118 C 
ATOM     23  C   UNL     1      -6.550  15.764  69.561  0.00  0.00    +0.142 C 
ATOM     24  C   UNL     1      -5.706  13.757  71.002  0.00  0.00    +0.032 C 
ATOM     25  O   UNL     1      -5.130  15.094  69.094  0.00  0.00    -0.356 OA
ATOM     26  C   UNL     1      -7.218  15.648  67.975  0.00  0.00    +0.058 C 
ENDROOT
BRANCH   1  28
ATOM     27  C   UNL     1      -6.126  17.745  67.323  0.00  0.00    +0.028 C 
ATOM     28  C   UNL     1      -6.526  17.884  67.743  0.00  0.00    -0.023 C 
ATOM     29  C   UNL     1      -6.542  19.157  68.106  0.00  0.00    +0.013 C 
BRANCH  29  30
ATOM     30  C   UNL     1      -5.890  20.131  67.218  0.00  0.00    +0.087 A 
ATOM     31  N   UNL     1      -6.476  20.461  66.077  0.00  0.00    -0.243 NA
ATOM     32  C   UNL     1      -5.641  20.660  65.067  0.00  0.00    +0.089 A 
ATOM     33  C   UNL     1      -6.171  20.859  63.683  0.00  0.00    +0.059 C 
ATOM     34  S   UNL     1      -4.226  21.205  65.865  0.00  0.00    -0.070 S 
ATOM     35  C   UNL     1      -4.783  20.934  67.473  0.00  0.00    +0.056 A 
ENDBRANCH  29  30
ENDBRANCH   1  28
TORSDOF 2
ENDMDL
MODEL 5
REMARK VINA RESULT:      -6.7      3.101      8.423
REMARK  Name = 
REMARK  2 active torsions:
REMARK  status: ('A' for Active; 'I' for Inactive)
REMARK    1  A    between atoms: C_2  and  C_10
REMARK    2  A    between atoms: C_3  and  C_4
REMARK                            x       y       z     vdW  Elec       q    Type
REMARK                         _______ _______ _______ _____ _____    ______ ____
ROOT
ATOM      1  C   UNL     1      -7.560  14.960  69.042  0.00  0.00    +0.116 C 
ATOM      2  N   UNL     1      -8.270  15.788  67.878  0.00  0.00    -0.203 NA
ATOM      3  C   UNL     1      -9.630  15.942  68.312  0.00  0.00    +0.244 C 
ATOM      4  O   UNL     1     -10.245  17.051  68.236  0.00  0.00    -0.273 OA
ATOM      5  C   UNL     1     -10.382  14.667  68.063  0.00  0.00    +0.120 C 
ATOM      6  C   UNL     1     -11.063  15.166  66.608  0.00  0.00    +0.167 C 
ATOM      7  O   UNL     1      -9.697  15.034  65.899  0.00  0.00    -0.222 OA
ATOM      8  C   UNL     1     -11.619  13.644  66.220  0.00  0.00    +0.080 C 
ATOM      9  C   UNL     1     -12.062  12.977  67.413  0.00  0.00    +0.010 C 
ATOM     10  C   UNL     1     -12.904  14.125  65.536  0.00  0.00    +0.010 C 
ATOM     11  C   UNL     1     -10.693  13.036  65.269  0.00  0.00    +0.154 C 
ATOM     12  O   UNL     1     -10.686  13.734  64.250  0.00  0.00    -0.296 OA
ATOM     13  C   UNL     1     -11.270  11.540  65.115  0.00  0.00    +0.088 C 
ATOM     14  C   UNL     1     -11.946  11.754  63.632  0.00  0.00    +0.010 C 
ATOM     15  C   UNL     1      -9.846  10.819  64.433  0.00  0.00    +0.159 C 
ATOM     16  O   UNL     1      -9.496  11.987  63.534  0.00  0.00    -0.223 OA
ATOM     17  C   UNL     1      -8.856  11.353  65.739  0.00  0.00    +0.031 C 
ATOM     18  C   UNL     1      -9.543  10.291  66.772  0.00  0.00    +0.003 C 
ATOM     19  C   UNL     1      -7.665  10.297  65.377  0.00  0.00    +0.003 C 
ATOM     20  C   UNL     1      -6.765  10.285  66.614  0.00  0.00    +0.003 C 
ATOM     21  C   UNL     1      -6.746  11.565  67.330  0.00  0.00    +0.030 C 
ATOM     22  C   UNL     1      -5.818  11.664  68.377  0.00  0.00    +0.118 C 
ATOM     23  C   UNL     1      -5.998  13.092  69.198  0.00  0.00    +0.142 C 
ATOM     24  C   UNL     1      -5.016  10.675  69.105  0.00  0.00    +0.032 C 
ATOM     25  O   UNL     1      -4.739  12.870  68.174  0.00  0.00    -0.356 OA
ATOM     26  C   UNL     1      -6.966  13.828  67.974  0.00  0.00    +0.058 C 
ENDROOT
BRANCH   1  28
ATOM     27  C   UNL     1      -5.895  15.998  68.381  0.00  0.00    +0.028 C 
ATOM     28  C   UNL     1      -6.196  15.859  68.876  0.00  0.00    -0.023 C 
ATOM     29  C   UNL     1      -6.063  16.719  69.875  0.00  0.00    +0.013 C 
BRANCH  29  30
ATOM     30  C   UNL     1      -5.537  18.056  69.562  0.00  0.00    +0.087 A 
ATOM     31  N   UNL     1      -6.371  19.002  69.160  0.00  0.00    -0.243 NA
ATOM     32  C   UNL     1      -5.877  19.815  68.237  0.00  0.00    +0.089 A 
ATOM     33  C   UNL     1      -6.764  20.813  67.563  0.00  0.00    +0.059 C 
ATOM     34  S   UNL     1      -4.201  19.795  68.592  0.00  0.00    -0.070 S 
ATOM     35  C   UNL     1      -4.263  18.565  69.796  0.00  0.00    +0.056 A 
ENDBRANCH  29  30
ENDBRANCH   1  28
TORSDOF 2
ENDMDL
MODEL 6
REMARK VINA RESULT:      -6.6      6.646     10.329
REMARK  Name = 
REMARK  2 active torsions:
REMARK  status: ('A' for Active; 'I' for Inactive)
REMARK    1  A    between atoms: C_2  and  C_10
REMARK    2  A    between atoms: C_3  and  C_4
REMARK                            x       y       z     vdW  Elec       q    Type
REMARK                         _______ _______ _______ _____ _____    ______ ____
ROOT
ATOM      1  C   UNL     1      -8.800   9.702  67.604  0.00  0.00    +0.116 C 
ATOM      2  N   UNL     1     -10.227   9.405  68.253  0.00  0.00    -0.203 NA
ATOM      3  C   UNL     1     -10.205  10.082  69.519  0.00  0.00    +0.244 C 
ATOM      4  O   UNL     1     -11.178  10.789  69.928  0.00  0.00    -0.273 OA
ATOM      5  C   UNL     1      -9.422   9.268  70.508  0.00  0.00    +0.120 C 
ATOM      6  C   UNL     1     -10.766   8.542  71.214  0.00  0.00    +0.167 C 
ATOM      7  O   UNL     1     -10.973   7.661  69.963  0.00  0.00    -0.222 OA
ATOM      8  C   UNL     1      -9.858   7.438  72.069  0.00  0.00    +0.080 C 
ATOM      9  C   UNL     1      -8.643   8.061  72.518  0.00  0.00    +0.010 C 
ATOM     10  C   UNL     1     -10.770   7.417  73.301  0.00  0.00    +0.010 C 
ATOM     11  C   UNL     1      -9.878   6.164  71.356  0.00  0.00    +0.154 C 
ATOM     12  O   UNL     1     -11.050   5.775  71.313  0.00  0.00    -0.296 OA
ATOM     13  C   UNL     1      -8.849   5.262  72.206  0.00  0.00    +0.088 C 
ATOM     14  C   UNL     1      -9.986   4.345  72.960  0.00  0.00    +0.010 C 
ATOM     15  C   UNL     1      -8.572   4.043  71.002  0.00  0.00    +0.159 C 
ATOM     16  O   UNL     1     -10.009   3.964  70.527  0.00  0.00    -0.223 OA
ATOM     17  C   UNL     1      -8.104   5.206  69.820  0.00  0.00    +0.031 C 
ATOM     18  C   UNL     1      -6.698   5.514  70.593  0.00  0.00    +0.003 C 
ATOM     19  C   UNL     1      -7.389   4.082  68.877  0.00  0.00    +0.003 C 
ATOM     20  C   UNL     1      -6.541   4.885  67.887  0.00  0.00    +0.003 C 
ATOM     21  C   UNL     1      -7.107   6.201  67.574  0.00  0.00    +0.030 C 
ATOM     22  C   UNL     1      -6.460   6.915  66.554  0.00  0.00    +0.118 C 
ATOM     23  C   UNL     1      -7.097   8.437  66.399  0.00  0.00    +0.142 C 
ATOM     24  C   UNL     1      -5.166   6.757  65.883  0.00  0.00    +0.032 C 
ATOM     25  O   UNL     1      -7.436   7.274  65.296  0.00  0.00    -0.356 OA
ATOM     26  C   UNL     1      -8.511   8.085  67.322  0.00  0.00    +0.058 C 
ENDROOT
BRANCH   1  28
ATOM     27  C   UNL     1      -9.984   9.607  65.909  0.00  0.00    +0.028 C 
ATOM     28  C   UNL     1      -9.486   9.857  66.121  0.00  0.00    -0.023 C 
ATOM     29  C   UNL     1      -9.144  11.002  65.551  0.00  0.00    +0.013 C 
BRANCH  29  30
ATOM     30  C   UNL     1     -10.169  11.711  64.770  0.00  0.00    +0.087 A 
ATOM     31  N   UNL     1     -10.711  12.814  65.263  0.00  0.00    -0.243 NA
ATOM     32  C   UNL     1     -12.000  12.960  64.993  0.00  0.00    +0.089 A 
ATOM     33  C   UNL     1     -12.781  14.062  65.636  0.00  0.00    +0.059 C 
ATOM     34  S   UNL     1     -12.158  12.137  63.499  0.00  0.00    -0.070 S 
ATOM     35  C   UNL     1     -10.559  11.496  63.452  0.00  0.00    +0.056 A 
ENDBRANCH  29  30
ENDBRANCH   1  28
TORSDOF 2
ENDMDL
MODEL 7
REMARK VINA RESULT:      -6.5      1.604      2.203
REMARK  Name = 
REMARK  2 active torsions:
REMARK  status: ('A' for Active; 'I' for Inactive)
REMARK    1  A    between atoms: C_2  and  C_10
REMARK    2  A    between atoms: C_3  and  C_4
REMARK                            x       y       z     vdW  Elec       q    Type
REMARK                         _______ _______ _______ _____ _____    ______ ____
ROOT
ATOM      1  C   UNL     1      -8.583  15.559  69.445  0.00  0.00    +0.116 C 
ATOM      2  N   UNL     1      -7.494  14.532  68.895  0.00  0.00    -0.203 NA
ATOM      3  C   UNL     1      -6.483  14.484  69.914  0.00  0.00    +0.244 C 
ATOM      4  O   UNL     1      -5.982  13.391  70.322  0.00  0.00    -0.273 OA
ATOM      5  C   UNL     1      -5.606  15.698  69.805  0.00  0.00    +0.120 C 
ATOM      6  C   UNL     1      -4.389  14.936  68.928  0.00  0.00    +0.167 C 
ATOM      7  O   UNL     1      -5.285  14.909  67.670  0.00  0.00    -0.222 OA
ATOM      8  C   UNL     1      -3.607  16.362  68.566  0.00  0.00    +0.080 C 
ATOM      9  C   UNL     1      -3.691  17.254  69.690  0.00  0.00    +0.010 C 
ATOM     10  C   UNL     1      -2.192  15.776  68.632  0.00  0.00    +0.010 C 
ATOM     11  C   UNL     1      -3.967  16.762  67.208  0.00  0.00    +0.154 C 
ATOM     12  O   UNL     1      -3.573  15.879  66.439  0.00  0.00    -0.296 OA
ATOM     13  C   UNL     1      -3.271  18.208  67.065  0.00  0.00    +0.088 C 
ATOM     14  C   UNL     1      -2.026  17.720  66.110  0.00  0.00    +0.010 C 
ATOM     15  C   UNL     1      -4.187  18.762  65.699  0.00  0.00    +0.159 C 
ATOM     16  O   UNL     1      -4.187  17.438  64.964  0.00  0.00    -0.223 OA
ATOM     17  C   UNL     1      -5.690  18.478  66.491  0.00  0.00    +0.031 C 
ATOM     18  C   UNL     1      -5.456  19.729  67.514  0.00  0.00    +0.003 C 
ATOM     19  C   UNL     1      -6.514  19.426  65.450  0.00  0.00    +0.003 C 
ATOM     20  C   UNL     1      -7.866  19.665  66.125  0.00  0.00    +0.003 C 
ATOM     21  C   UNL     1      -8.296  18.547  66.973  0.00  0.00    +0.030 C 
ATOM     22  C   UNL     1      -9.597  18.640  67.489  0.00  0.00    +0.118 C 
ATOM     23  C   UNL     1      -9.907  17.399  68.544  0.00  0.00    +0.142 C 
ATOM     24  C   UNL     1     -10.563  19.739  67.588  0.00  0.00    +0.032 C 
ATOM     25  O   UNL     1     -10.561  17.402  67.042  0.00  0.00    -0.356 OA
ATOM     26  C   UNL     1      -8.555  16.455  68.040  0.00  0.00    +0.058 C 
ENDROOT
BRANCH   1  28
ATOM     27  C   UNL     1     -10.377  14.743  68.814  0.00  0.00    +0.028 C 
ATOM     28  C   UNL     1      -9.794  14.626  68.848  0.00  0.00    -0.023 C 
ATOM     29  C   UNL     1      -9.339  13.768  67.947  0.00  0.00    +0.013 C 
BRANCH  29  30
ATOM     30  C   UNL     1     -10.180  13.500  66.771  0.00  0.00    +0.087 A 
ATOM     31  N   UNL     1     -10.239  14.397  65.799  0.00  0.00    -0.243 NA
ATOM     32  C   UNL     1     -11.431  14.518  65.234  0.00  0.00    +0.089 A 
ATOM     33  C   UNL     1     -11.688  15.615  64.250  0.00  0.00    +0.059 C 
ATOM     34  S   UNL     1     -12.090  12.948  65.429  0.00  0.00    -0.070 S 
ATOM     35  C   UNL     1     -10.824  12.319  66.415  0.00  0.00    +0.056 A 
ENDBRANCH  29  30
ENDBRANCH   1  28
TORSDOF 2
ENDMDL
MODEL 8
REMARK VINA RESULT:      -6.3      1.779      2.158
REMARK  Name = 
REMARK  2 active torsions:
REMARK  status: ('A' for Active; 'I' for Inactive)
REMARK    1  A    between atoms: C_2  and  C_10
REMARK    2  A    between atoms: C_3  and  C_4
REMARK                            x       y       z     vdW  Elec       q    Type
REMARK                         _______ _______ _______ _____ _____    ______ ____
ROOT
ATOM      1  C   UNL     1      -8.544  15.854  68.531  0.00  0.00    +0.116 C 
ATOM      2  N   UNL     1      -7.135  15.130  68.346  0.00  0.00    -0.203 NA
ATOM      3  C   UNL     1      -6.511  15.199  69.637  0.00  0.00    +0.244 C 
ATOM      4  O   UNL     1      -5.930  14.199  70.165  0.00  0.00    -0.273 OA
ATOM      5  C   UNL     1      -5.942  16.572  69.845  0.00  0.00    +0.120 C 
ATOM      6  C   UNL     1      -4.373  16.163  69.397  0.00  0.00    +0.167 C 
ATOM      7  O   UNL     1      -4.798  16.067  67.915  0.00  0.00    -0.222 OA
ATOM      8  C   UNL     1      -3.859  17.747  69.339  0.00  0.00    +0.080 C 
ATOM      9  C   UNL     1      -4.490  18.495  70.391  0.00  0.00    +0.010 C 
ATOM     10  C   UNL     1      -2.442  17.463  69.851  0.00  0.00    +0.010 C 
ATOM     11  C   UNL     1      -3.856  18.187  67.946  0.00  0.00    +0.154 C 
ATOM     12  O   UNL     1      -3.052  17.479  67.329  0.00  0.00    -0.296 OA
ATOM     13  C   UNL     1      -3.496  19.752  68.066  0.00  0.00    +0.088 C 
ATOM     14  C   UNL     1      -1.938  19.623  67.560  0.00  0.00    +0.010 C 
ATOM     15  C   UNL     1      -4.037  20.228  66.488  0.00  0.00    +0.159 C 
ATOM     16  O   UNL     1      -3.509  19.006  65.767  0.00  0.00    -0.223 OA
ATOM     17  C   UNL     1      -5.608  19.567  66.741  0.00  0.00    +0.031 C 
ATOM     18  C   UNL     1      -5.995  20.740  67.809  0.00  0.00    +0.003 C 
ATOM     19  C   UNL     1      -6.255  20.416  65.507  0.00  0.00    +0.003 C 
ATOM     20  C   UNL     1      -7.769  20.306  65.709  0.00  0.00    +0.003 C 
ATOM     21  C   UNL     1      -8.178  19.051  66.348  0.00  0.00    +0.030 C 
ATOM     22  C   UNL     1      -9.562  18.824  66.413  0.00  0.00    +0.118 C 
ATOM     23  C   UNL     1      -9.898  17.455  67.285  0.00  0.00    +0.142 C 
ATOM     24  C   UNL     1     -10.731  19.686  66.214  0.00  0.00    +0.032 C 
ATOM     25  O   UNL     1     -10.031  17.460  65.652  0.00  0.00    -0.356 OA
ATOM     26  C   UNL     1      -8.279  16.862  67.231  0.00  0.00    +0.058 C 
ENDROOT
BRANCH   1  28
ATOM     27  C   UNL     1      -9.014  14.381  67.155  0.00  0.00    +0.028 C 
ATOM     28  C   UNL     1      -9.262  14.749  67.553  0.00  0.00    -0.023 C 
ATOM     29  C   UNL     1     -10.414  14.336  68.060  0.00  0.00    +0.013 C 
BRANCH  29  30
ATOM     30  C   UNL     1     -10.760  12.915  67.904  0.00  0.00    +0.087 A 
ATOM     31  N   UNL     1     -10.466  12.066  68.878  0.00  0.00    -0.243 NA
ATOM     32  C   UNL     1     -10.083  10.867  68.464  0.00  0.00    +0.089 A 
ATOM     33  C   UNL     1      -9.549   9.870  69.443  0.00  0.00    +0.059 C 
ATOM     34  S   UNL     1     -10.916  10.709  66.975  0.00  0.00    -0.070 S 
ATOM     35  C   UNL     1     -11.541  12.314  66.922  0.00  0.00    +0.056 A 
ENDBRANCH  29  30
ENDBRANCH   1  28
TORSDOF 2
ENDMDL
MODEL 9
REMARK VINA RESULT:      -6.3      2.541      5.181
REMARK  Name = 
REMARK  2 active torsions:
REMARK  status: ('A' for Active; 'I' for Inactive)
REMARK    1  A    between atoms: C_2  and  C_10
REMARK    2  A    between atoms: C_3  and  C_4
REMARK                            x       y       z     vdW  Elec       q    Type
REMARK                         _______ _______ _______ _____ _____    ______ ____
ROOT
ATOM      1  C   UNL     1      -8.255  13.971  66.886  0.00  0.00    +0.116 C 
ATOM      2  N   UNL     1      -9.103  15.104  67.624  0.00  0.00    -0.203 NA
ATOM      3  C   UNL     1      -9.441  16.043  66.592  0.00  0.00    +0.244 C 
ATOM      4  O   UNL     1     -10.610  16.524  66.467  0.00  0.00    -0.273 OA
ATOM      5  C   UNL     1      -8.254  16.915  66.302  0.00  0.00    +0.120 C 
ATOM      6  C   UNL     1      -8.758  18.195  67.271  0.00  0.00    +0.167 C 
ATOM      7  O   UNL     1      -8.427  17.388  68.546  0.00  0.00    -0.222 OA
ATOM      8  C   UNL     1      -7.297  18.989  67.172  0.00  0.00    +0.080 C 
ATOM      9  C   UNL     1      -6.748  18.822  65.855  0.00  0.00    +0.010 C 
ATOM     10  C   UNL     1      -7.893  20.401  67.175  0.00  0.00    +0.010 C 
ATOM     11  C   UNL     1      -6.534  18.719  68.388  0.00  0.00    +0.154 C 
ATOM     12  O   UNL     1      -7.175  19.171  69.343  0.00  0.00    -0.296 OA
ATOM     13  C   UNL     1      -5.113  19.411  68.080  0.00  0.00    +0.088 C 
ATOM     14  C   UNL     1      -5.332  20.722  69.047  0.00  0.00    +0.010 C 
ATOM     15  C   UNL     1      -4.193  18.586  69.300  0.00  0.00    +0.159 C 
ATOM     16  O   UNL     1      -5.264  18.645  70.369  0.00  0.00    -0.223 OA
ATOM     17  C   UNL     1      -4.669  17.034  68.720  0.00  0.00    +0.031 C 
ATOM     18  C   UNL     1      -3.750  17.189  67.378  0.00  0.00    +0.003 C 
ATOM     19  C   UNL     1      -3.461  16.276  69.512  0.00  0.00    +0.003 C 
ATOM     20  C   UNL     1      -3.403  14.879  68.890  0.00  0.00    +0.003 C 
ATOM     21  C   UNL     1      -4.705  14.401  68.414  0.00  0.00    +0.030 C 
ATOM     22  C   UNL     1      -4.745  13.067  67.981  0.00  0.00    +0.118 C 
ATOM     23  C   UNL     1      -6.224  12.697  67.332  0.00  0.00    +0.142 C 
ATOM     24  C   UNL     1      -3.704  12.089  67.649  0.00  0.00    +0.032 C 
ATOM     25  O   UNL     1      -5.801  12.146  68.816  0.00  0.00    -0.356 OA
ATOM     26  C   UNL     1      -7.008  14.088  67.984  0.00  0.00    +0.058 C 
ENDROOT
BRANCH   1  28
ATOM     27  C   UNL     1      -8.851  12.641  68.355  0.00  0.00    +0.028 C 
ATOM     28  C   UNL     1      -8.975  12.812  67.798  0.00  0.00    -0.023 C 
ATOM     29  C   UNL     1     -10.223  12.600  67.409  0.00  0.00    +0.013 C 
BRANCH  29  30
ATOM     30  C   UNL     1     -11.230  12.342  68.448  0.00  0.00    +0.087 A 
ATOM     31  N   UNL     1     -11.922  13.357  68.944  0.00  0.00    -0.243 NA
ATOM     32  C   UNL     1     -12.184  13.262  70.240  0.00  0.00    +0.089 A 
ATOM     33  C   UNL     1     -12.797  14.416  70.968  0.00  0.00    +0.059 C 
ATOM     34  S   UNL     1     -12.244  11.567  70.479  0.00  0.00    -0.070 S 
ATOM     35  C   UNL     1     -11.722  11.121  68.898  0.00  0.00    +0.056 A 
ENDBRANCH  29  30
ENDBRANCH   1  28
TORSDOF 2
ENDMDL
