MODEL 1
REMARK VINA RESULT:      -7.3      0.000      0.000
REMARK  Name = 
REMARK  7 active torsions:
REMARK  status: ('A' for Active; 'I' for Inactive)
REMARK    1  A    between atoms: N_7  and  C_8
REMARK    2  A    between atoms: C_11  and  O_12
REMARK    3  A    between atoms: O_12  and  C_13
REMARK    4  A    between atoms: C_13  and  C_14
REMARK    5  A    between atoms: C_17  and  C_18
REMARK    6  A    between atoms: C_17  and  C_24
REMARK    7  A    between atoms: C_18  and  N_19
REMARK                            x       y       z     vdW  Elec       q    Type
REMARK                         _______ _______ _______ _____ _____    ______ ____
ROOT
ATOM      1  C   UNL     1      -9.684  13.012  68.766  0.00  0.00    +0.191 C 
ATOM      2  O   UNL     1     -10.147  13.506  67.372  0.00  0.00    -0.325 OA
ATOM      3  C   UNL     1     -11.481  13.463  67.736  0.00  0.00    +0.230 C 
ATOM      4  O   UNL     1     -11.612  12.064  67.839  0.00  0.00    -0.327 OA
ATOM      5  C   UNL     1     -10.593  11.607  68.623  0.00  0.00    +0.178 C 
ENDROOT
BRANCH   3   6
ATOM      6  C   UNL     1     -11.730  13.995  69.100  0.00  0.00    +0.041 A 
ATOM      7  C   UNL     1     -11.527  15.329  69.430  0.00  0.00    +0.059 A 
ATOM      8 CL   UNL     1     -10.211  16.138  68.583  0.00  0.00    -0.082 Cl
ATOM      9  C   UNL     1     -12.066  15.849  70.601  0.00  0.00    +0.023 A 
ATOM     10  C   UNL     1     -12.538  15.007  71.600  0.00  0.00    +0.058 A 
ATOM     11 CL   UNL     1     -13.427  15.615  72.989  0.00  0.00    -0.082 Cl
ATOM     12  C   UNL     1     -12.436  13.637  71.401  0.00  0.00    +0.011 A 
ATOM     13  C   UNL     1     -12.323  13.221  70.092  0.00  0.00    +0.002 A 
ENDBRANCH   3   6
BRANCH   1  14
ATOM     14  C   UNL     1      -8.343  12.245  68.106  0.00  0.00    +0.237 C 
BRANCH  14  15
ATOM     15  O   UNL     1      -7.364  12.796  68.944  0.00  0.00    -0.473 OA
BRANCH  15  19
ATOM     16  C   UNL     1      -6.503  16.803  68.220  0.00  0.00    +0.048 A 
ATOM     17  C   UNL     1      -6.598  16.330  69.516  0.00  0.00    +0.018 A 
ATOM     18  C   UNL     1      -6.664  14.970  69.787  0.00  0.00    +0.038 A 
ATOM     19  C   UNL     1      -6.752  14.040  68.761  0.00  0.00    +0.139 A 
ATOM     20  C   UNL     1      -6.906  14.558  67.478  0.00  0.00    +0.038 A 
ATOM     21  C   UNL     1      -6.527  15.848  67.223  0.00  0.00    +0.018 A 
BRANCH  16  27
ATOM     22  C   UNL     1      -9.734  20.807  66.962  0.00  0.00    +0.095 C 
ATOM     23  C   UNL     1      -9.843  19.825  67.381  0.00  0.00    +0.226 C 
ATOM     24  N   UNL     1      -8.739  18.945  67.620  0.00  0.00    -0.276 N 
ATOM     25  C   UNL     1      -8.048  18.461  66.454  0.00  0.00    +0.115 C 
ATOM     26  C   UNL     1      -6.539  18.599  66.560  0.00  0.00    +0.112 C 
ATOM     27  N   UNL     1      -6.216  18.177  67.924  0.00  0.00    -0.304 N 
ATOM     28  C   UNL     1      -6.669  19.138  68.931  0.00  0.00    +0.112 C 
ATOM     29  C   UNL     1      -8.186  18.979  68.956  0.00  0.00    +0.115 C 
ATOM     30  O   UNL     1     -10.982  19.318  67.606  0.00  0.00    -0.275 OA
ENDBRANCH  16  27
ENDBRANCH  15  19
ENDBRANCH  14  15
ENDBRANCH   1  14
BRANCH   3  31
ATOM     31  C   UNL     1     -12.467  13.858  66.716  0.00  0.00    +0.168 C 
BRANCH  31  32
ATOM     32  N   UNL     1     -12.167  13.539  65.352  0.00  0.00    -0.302 N 
ATOM     33  C   UNL     1     -12.475  14.404  64.350  0.00  0.00    +0.179 A 
ATOM     34  N   UNL     1     -12.239  13.804  63.178  0.00  0.00    -0.222 NA
ATOM     35  C   UNL     1     -12.284  12.479  63.445  0.00  0.00    +0.119 A 
ATOM     36  C   UNL     1     -12.515  12.344  64.808  0.00  0.00    +0.098 A 
ENDBRANCH  31  32
ENDBRANCH   3  31
TORSDOF 7
ENDMDL
MODEL 2
REMARK VINA RESULT:      -7.2      5.880      8.844
REMARK  Name = 
REMARK  7 active torsions:
REMARK  status: ('A' for Active; 'I' for Inactive)
REMARK    1  A    between atoms: N_7  and  C_8
REMARK    2  A    between atoms: C_11  and  O_12
REMARK    3  A    between atoms: O_12  and  C_13
REMARK    4  A    between atoms: C_13  and  C_14
REMARK    5  A    between atoms: C_17  and  C_18
REMARK    6  A    between atoms: C_17  and  C_24
REMARK    7  A    between atoms: C_18  and  N_19
REMARK                            x       y       z     vdW  Elec       q    Type
REMARK                         _______ _______ _______ _____ _____    ______ ____
ROOT
ATOM      1  C   UNL     1     -12.060   8.338  71.358  0.00  0.00    +0.191 C 
ATOM      2  O   UNL     1     -11.082   8.173  72.548  0.00  0.00    -0.325 OA
ATOM      3  C   UNL     1     -10.618   6.960  72.074  0.00  0.00    +0.230 C 
ATOM      4  O   UNL     1     -11.789   6.206  72.282  0.00  0.00    -0.327 OA
ATOM      5  C   UNL     1     -12.830   6.893  71.729  0.00  0.00    +0.178 C 
ENDROOT
BRANCH   3   6
ATOM      6  C   UNL     1     -10.389   6.957  70.607  0.00  0.00    +0.041 A 
ATOM      7  C   UNL     1      -9.332   7.637  70.014  0.00  0.00    +0.059 A 
ATOM      8 CL   UNL     1      -8.841   9.132  70.805  0.00  0.00    -0.082 Cl
ATOM      9  C   UNL     1      -8.967   7.354  68.704  0.00  0.00    +0.023 A 
ATOM     10  C   UNL     1      -9.816   6.638  67.869  0.00  0.00    +0.058 A 
ATOM     11 CL   UNL     1      -9.304   6.066  66.287  0.00  0.00    -0.082 Cl
ATOM     12  C   UNL     1     -11.042   6.233  68.377  0.00  0.00    +0.011 A 
ATOM     13  C   UNL     1     -11.133   6.152  69.750  0.00  0.00    +0.002 A 
ENDBRANCH   3   6
BRANCH   1  14
ATOM     14  C   UNL     1     -13.151   9.195  72.306  0.00  0.00    +0.237 C 
BRANCH  14  15
ATOM     15  O   UNL     1     -13.398  10.253  71.419  0.00  0.00    -0.473 OA
BRANCH  15  19
ATOM     16  C   UNL     1     -11.176  12.478  68.693  0.00  0.00    +0.048 A 
ATOM     17  C   UNL     1     -11.851  13.105  69.725  0.00  0.00    +0.018 A 
ATOM     18  C   UNL     1     -12.413  12.382  70.767  0.00  0.00    +0.038 A 
ATOM     19  C   UNL     1     -12.417  10.993  70.754  0.00  0.00    +0.139 A 
ATOM     20  C   UNL     1     -11.953  10.392  69.588  0.00  0.00    +0.038 A 
ATOM     21  C   UNL     1     -11.139  11.098  68.743  0.00  0.00    +0.018 A 
BRANCH  16  27
ATOM     22  C   UNL     1     -11.735  12.896  63.443  0.00  0.00    +0.095 C 
ATOM     23  C   UNL     1     -12.340  12.558  64.263  0.00  0.00    +0.226 C 
ATOM     24  N   UNL     1     -11.899  12.576  65.625  0.00  0.00    -0.276 N 
ATOM     25  C   UNL     1     -10.812  11.693  65.953  0.00  0.00    +0.115 C 
ATOM     26  C   UNL     1      -9.708  12.379  66.739  0.00  0.00    +0.112 C 
ATOM     27  N   UNL     1     -10.404  13.205  67.727  0.00  0.00    -0.304 N 
ATOM     28  C   UNL     1     -11.086  14.349  67.120  0.00  0.00    +0.112 C 
ATOM     29  C   UNL     1     -12.281  13.741  66.393  0.00  0.00    +0.115 C 
ATOM     30  O   UNL     1     -13.469  12.012  64.079  0.00  0.00    -0.275 OA
ENDBRANCH  16  27
ENDBRANCH  15  19
ENDBRANCH  14  15
ENDBRANCH   1  14
BRANCH   3  31
ATOM     31  C   UNL     1      -9.586   6.278  72.874  0.00  0.00    +0.168 C 
BRANCH  31  32
ATOM     32  N   UNL     1     -10.030   5.472  73.972  0.00  0.00    -0.302 N 
ATOM     33  C   UNL     1      -9.814   5.863  75.255  0.00  0.00    +0.179 A 
ATOM     34  N   UNL     1     -10.178   4.870  76.074  0.00  0.00    -0.222 NA
ATOM     35  C   UNL     1     -10.127   3.752  75.315  0.00  0.00    +0.119 A 
ATOM     36  C   UNL     1      -9.758   4.143  74.034  0.00  0.00    +0.098 A 
ENDBRANCH  31  32
ENDBRANCH   3  31
TORSDOF 7
ENDMDL
MODEL 3
REMARK VINA RESULT:      -7.0      5.954      8.815
REMARK  Name = 
REMARK  7 active torsions:
REMARK  status: ('A' for Active; 'I' for Inactive)
REMARK    1  A    between atoms: N_7  and  C_8
REMARK    2  A    between atoms: C_11  and  O_12
REMARK    3  A    between atoms: O_12  and  C_13
REMARK    4  A    between atoms: C_13  and  C_14
REMARK    5  A    between atoms: C_17  and  C_18
REMARK    6  A    between atoms: C_17  and  C_24
REMARK    7  A    between atoms: C_18  and  N_19
REMARK                            x       y       z     vdW  Elec       q    Type
REMARK                         _______ _______ _______ _____ _____    ______ ____
ROOT
ATOM      1  C   UNL     1     -12.083   8.341  71.466  0.00  0.00    +0.191 C 
ATOM      2  O   UNL     1     -11.328   7.852  72.727  0.00  0.00    -0.325 OA
ATOM      3  C   UNL     1     -11.019   6.638  72.142  0.00  0.00    +0.230 C 
ATOM      4  O   UNL     1     -12.321   6.102  72.099  0.00  0.00    -0.327 OA
ATOM      5  C   UNL     1     -13.137   7.035  71.531  0.00  0.00    +0.178 C 
ENDROOT
BRANCH   3   6
ATOM      6  C   UNL     1     -10.587   6.766  70.728  0.00  0.00    +0.041 A 
ATOM      7  C   UNL     1      -9.400   7.390  70.362  0.00  0.00    +0.059 A 
ATOM      8 CL   UNL     1      -8.892   8.733  71.384  0.00  0.00    -0.082 Cl
ATOM      9  C   UNL     1      -8.881   7.211  69.086  0.00  0.00    +0.023 A 
ATOM     10  C   UNL     1      -9.664   6.681  68.069  0.00  0.00    +0.058 A 
ATOM     11 CL   UNL     1      -8.988   6.229  66.510  0.00  0.00    -0.082 Cl
ATOM     12  C   UNL     1     -10.981   6.356  68.361  0.00  0.00    +0.011 A 
ATOM     13  C   UNL     1     -11.272   6.139  69.692  0.00  0.00    +0.002 A 
ENDBRANCH   3   6
BRANCH   1  14
ATOM     14  C   UNL     1     -13.133   9.272  72.391  0.00  0.00    +0.237 C 
BRANCH  14  15
ATOM     15  O   UNL     1     -13.383  10.283  71.453  0.00  0.00    -0.473 OA
BRANCH  15  19
ATOM     16  C   UNL     1     -11.142  12.460  68.702  0.00  0.00    +0.048 A 
ATOM     17  C   UNL     1     -11.865  13.108  69.687  0.00  0.00    +0.018 A 
ATOM     18  C   UNL     1     -12.438  12.412  70.742  0.00  0.00    +0.038 A 
ATOM     19  C   UNL     1     -12.403  11.024  70.786  0.00  0.00    +0.139 A 
ATOM     20  C   UNL     1     -11.888  10.390  69.659  0.00  0.00    +0.038 A 
ATOM     21  C   UNL     1     -11.069  11.084  68.811  0.00  0.00    +0.018 A 
BRANCH  16  27
ATOM     22  C   UNL     1     -11.711  12.855  63.451  0.00  0.00    +0.095 C 
ATOM     23  C   UNL     1     -12.318  12.531  64.275  0.00  0.00    +0.226 C 
ATOM     24  N   UNL     1     -11.873  12.551  65.636  0.00  0.00    -0.276 N 
ATOM     25  C   UNL     1     -10.798  11.653  65.966  0.00  0.00    +0.115 C 
ATOM     26  C   UNL     1      -9.682  12.327  66.745  0.00  0.00    +0.112 C 
ATOM     27  N   UNL     1     -10.363  13.169  67.729  0.00  0.00    -0.304 N 
ATOM     28  C   UNL     1     -11.030  14.320  67.118  0.00  0.00    +0.112 C 
ATOM     29  C   UNL     1     -12.235  13.725  66.397  0.00  0.00    +0.115 C 
ATOM     30  O   UNL     1     -13.455  12.000  64.098  0.00  0.00    -0.275 OA
ENDBRANCH  16  27
ENDBRANCH  15  19
ENDBRANCH  14  15
ENDBRANCH   1  14
BRANCH   3  31
ATOM     31  C   UNL     1     -10.246   5.680  72.953  0.00  0.00    +0.168 C 
BRANCH  31  32
ATOM     32  N   UNL     1     -10.585   4.293  72.834  0.00  0.00    -0.302 N 
ATOM     33  C   UNL     1     -10.846   3.543  73.936  0.00  0.00    +0.179 A 
ATOM     34  N   UNL     1     -10.974   2.265  73.564  0.00  0.00    -0.222 NA
ATOM     35  C   UNL     1     -10.314   2.172  72.388  0.00  0.00    +0.119 A 
ATOM     36  C   UNL     1      -9.838   3.442  72.085  0.00  0.00    +0.098 A 
ENDBRANCH  31  32
ENDBRANCH   3  31
TORSDOF 7
ENDMDL
MODEL 4
REMARK VINA RESULT:      -7.0      3.111      8.288
REMARK  Name = 
REMARK  7 active torsions:
REMARK  status: ('A' for Active; 'I' for Inactive)
REMARK    1  A    between atoms: N_7  and  C_8
REMARK    2  A    between atoms: C_11  and  O_12
REMARK    3  A    between atoms: O_12  and  C_13
REMARK    4  A    between atoms: C_13  and  C_14
REMARK    5  A    between atoms: C_17  and  C_18
REMARK    6  A    between atoms: C_17  and  C_24
REMARK    7  A    between atoms: C_18  and  N_19
REMARK                            x       y       z     vdW  Elec       q    Type
REMARK                         _______ _______ _______ _____ _____    ______ ____
ROOT
ATOM      1  C   UNL     1      -6.505  17.555  69.082  0.00  0.00    +0.191 C 
ATOM      2  O   UNL     1      -5.865  18.516  70.116  0.00  0.00    -0.325 OA
ATOM      3  C   UNL     1      -5.786  19.546  69.196  0.00  0.00    +0.230 C 
ATOM      4  O   UNL     1      -4.803  18.987  68.358  0.00  0.00    -0.327 OA
ATOM      5  C   UNL     1      -5.192  17.717  68.048  0.00  0.00    +0.178 C 
ENDROOT
BRANCH   3   6
ATOM      6  C   UNL     1      -7.006  19.674  68.360  0.00  0.00    +0.041 A 
ATOM      7  C   UNL     1      -6.958  20.020  67.015  0.00  0.00    +0.059 A 
ATOM      8 CL   UNL     1      -5.661  21.119  66.551  0.00  0.00    -0.082 Cl
ATOM      9  C   UNL     1      -8.066  19.819  66.202  0.00  0.00    +0.023 A 
ATOM     10  C   UNL     1      -9.316  19.572  66.754  0.00  0.00    +0.058 A 
ATOM     11 CL   UNL     1     -10.693  19.092  65.770  0.00  0.00    -0.082 Cl
ATOM     12  C   UNL     1      -9.427  19.553  68.137  0.00  0.00    +0.011 A 
ATOM     13  C   UNL     1      -8.262  19.312  68.835  0.00  0.00    +0.002 A 
ENDBRANCH   3   6
BRANCH   1  14
ATOM     14  C   UNL     1      -5.800  16.216  69.813  0.00  0.00    +0.237 C 
BRANCH  14  15
ATOM     15  O   UNL     1      -6.748  15.258  69.430  0.00  0.00    -0.473 OA
BRANCH  15  19
ATOM     16  C   UNL     1     -10.254  15.097  67.191  0.00  0.00    +0.048 A 
ATOM     17  C   UNL     1     -10.295  14.974  68.569  0.00  0.00    +0.018 A 
ATOM     18  C   UNL     1      -9.182  15.240  69.353  0.00  0.00    +0.038 A 
ATOM     19  C   UNL     1      -7.953  15.532  68.776  0.00  0.00    +0.139 A 
ATOM     20  C   UNL     1      -7.883  15.404  67.392  0.00  0.00    +0.038 A 
ATOM     21  C   UNL     1      -9.033  15.453  66.651  0.00  0.00    +0.018 A 
BRANCH  16  27
ATOM     22  C   UNL     1     -11.773  11.556  63.558  0.00  0.00    +0.095 C 
ATOM     23  C   UNL     1     -11.039  11.599  64.338  0.00  0.00    +0.226 C 
ATOM     24  N   UNL     1     -10.866  12.734  65.195  0.00  0.00    -0.276 N 
ATOM     25  C   UNL     1     -10.390  13.937  64.566  0.00  0.00    +0.115 C 
ATOM     26  C   UNL     1     -11.205  15.163  64.940  0.00  0.00    +0.112 C 
ATOM     27  N   UNL     1     -11.435  15.040  66.380  0.00  0.00    -0.304 N 
ATOM     28  C   UNL     1     -12.364  13.959  66.709  0.00  0.00    +0.112 C 
ATOM     29  C   UNL     1     -11.570  12.681  66.457  0.00  0.00    +0.115 C 
ATOM     30  O   UNL     1     -10.183  10.678  64.503  0.00  0.00    -0.275 OA
ENDBRANCH  16  27
ENDBRANCH  15  19
ENDBRANCH  14  15
ENDBRANCH   1  14
BRANCH   3  31
ATOM     31  C   UNL     1      -5.204  20.817  69.661  0.00  0.00    +0.168 C 
BRANCH  31  32
ATOM     32  N   UNL     1      -4.045  20.742  70.500  0.00  0.00    -0.302 N 
ATOM     33  C   UNL     1      -4.077  21.210  71.775  0.00  0.00    +0.179 A 
ATOM     34  N   UNL     1      -2.838  21.168  72.278  0.00  0.00    -0.222 NA
ATOM     35  C   UNL     1      -2.020  21.167  71.201  0.00  0.00    +0.119 A 
ATOM     36  C   UNL     1      -2.830  21.174  70.072  0.00  0.00    +0.098 A 
ENDBRANCH  31  32
ENDBRANCH   3  31
TORSDOF 7
ENDMDL
MODEL 5
REMARK VINA RESULT:      -6.9      2.941      5.318
REMARK  Name = 
REMARK  7 active torsions:
REMARK  status: ('A' for Active; 'I' for Inactive)
REMARK    1  A    between atoms: N_7  and  C_8
REMARK    2  A    between atoms: C_11  and  O_12
REMARK    3  A    between atoms: O_12  and  C_13
REMARK    4  A    between atoms: C_13  and  C_14
REMARK    5  A    between atoms: C_17  and  C_18
REMARK    6  A    between atoms: C_17  and  C_24
REMARK    7  A    between atoms: C_18  and  N_19
REMARK                            x       y       z     vdW  Elec       q    Type
REMARK                         _______ _______ _______ _____ _____    ______ ____
ROOT
ATOM      1  C   UNL     1     -10.429  14.634  65.802  0.00  0.00    +0.191 C 
ATOM      2  O   UNL     1     -10.577  14.957  67.310  0.00  0.00    -0.325 OA
ATOM      3  C   UNL     1     -11.132  13.719  67.579  0.00  0.00    +0.230 C 
ATOM      4  O   UNL     1     -12.356  13.900  66.907  0.00  0.00    -0.327 OA
ATOM      5  C   UNL     1     -12.078  14.354  65.651  0.00  0.00    +0.178 C 
ENDROOT
BRANCH   3   6
ATOM      6  C   UNL     1     -10.444  12.607  66.875  0.00  0.00    +0.041 A 
ATOM      7  C   UNL     1      -9.165  12.183  67.217  0.00  0.00    +0.059 A 
ATOM      8 CL   UNL     1      -8.073  13.436  67.803  0.00  0.00    -0.082 Cl
ATOM      9  C   UNL     1      -8.691  10.959  66.765  0.00  0.00    +0.023 A 
ATOM     10  C   UNL     1      -9.333  10.286  65.733  0.00  0.00    +0.058 A 
ATOM     11 CL   UNL     1      -8.905   8.640  65.284  0.00  0.00    -0.082 Cl
ATOM     12  C   UNL     1     -10.446  10.882  65.159  0.00  0.00    +0.011 A 
ATOM     13  C   UNL     1     -11.096  11.824  65.929  0.00  0.00    +0.002 A 
ENDBRANCH   3   6
BRANCH   1  14
ATOM     14  C   UNL     1     -10.636  16.248  65.383  0.00  0.00    +0.237 C 
BRANCH  14  15
ATOM     15  O   UNL     1      -9.904  16.823  66.430  0.00  0.00    -0.473 OA
BRANCH  15  19
ATOM     16  C   UNL     1      -6.427  19.039  67.004  0.00  0.00    +0.048 A 
ATOM     17  C   UNL     1      -6.358  17.688  66.714  0.00  0.00    +0.018 A 
ATOM     18  C   UNL     1      -7.477  16.977  66.305  0.00  0.00    +0.038 A 
ATOM     19  C   UNL     1      -8.731  17.570  66.280  0.00  0.00    +0.139 A 
ATOM     20  C   UNL     1      -8.812  18.853  66.812  0.00  0.00    +0.038 A 
ATOM     21  C   UNL     1      -7.679  19.616  66.906  0.00  0.00    +0.018 A 
BRANCH  16  27
ATOM     22  C   UNL     1      -3.897  20.327  71.475  0.00  0.00    +0.095 C 
ATOM     23  C   UNL     1      -4.634  19.604  71.182  0.00  0.00    +0.226 C 
ATOM     24  N   UNL     1      -5.136  19.489  69.845  0.00  0.00    -0.276 N 
ATOM     25  C   UNL     1      -5.910  20.600  69.360  0.00  0.00    +0.115 C 
ATOM     26  C   UNL     1      -5.475  21.068  67.981  0.00  0.00    +0.112 C 
ATOM     27  N   UNL     1      -5.256  19.839  67.217  0.00  0.00    -0.304 N 
ATOM     28  C   UNL     1      -4.073  19.103  67.664  0.00  0.00    +0.112 C 
ATOM     29  C   UNL     1      -4.476  18.510  69.010  0.00  0.00    +0.115 C 
ATOM     30  O   UNL     1      -5.205  18.852  72.028  0.00  0.00    -0.275 OA
ENDBRANCH  16  27
ENDBRANCH  15  19
ENDBRANCH  14  15
ENDBRANCH   1  14
BRANCH   3  31
ATOM     31  C   UNL     1     -11.509  13.443  68.977  0.00  0.00    +0.168 C 
BRANCH  31  32
ATOM     32  N   UNL     1     -11.959  14.549  69.767  0.00  0.00    -0.302 N 
ATOM     33  C   UNL     1     -11.084  15.275  70.511  0.00  0.00    +0.179 A 
ATOM     34  N   UNL     1     -11.775  16.135  71.268  0.00  0.00    -0.222 NA
ATOM     35  C   UNL     1     -13.015  15.603  71.364  0.00  0.00    +0.119 A 
ATOM     36  C   UNL     1     -13.018  14.435  70.610  0.00  0.00    +0.098 A 
ENDBRANCH  31  32
ENDBRANCH   3  31
TORSDOF 7
ENDMDL
MODEL 6
REMARK VINA RESULT:      -6.9      3.780      5.889
REMARK  Name = 
REMARK  7 active torsions:
REMARK  status: ('A' for Active; 'I' for Inactive)
REMARK    1  A    between atoms: N_7  and  C_8
REMARK    2  A    between atoms: C_11  and  O_12
REMARK    3  A    between atoms: O_12  and  C_13
REMARK    4  A    between atoms: C_13  and  C_14
REMARK    5  A    between atoms: C_17  and  C_18
REMARK    6  A    between atoms: C_17  and  C_24
REMARK    7  A    between atoms: C_18  and  N_19
REMARK                            x       y       z     vdW  Elec       q    Type
REMARK                         _______ _______ _______ _____ _____    ______ ____
ROOT
ATOM      1  C   UNL     1      -9.751  15.646  67.790  0.00  0.00    +0.191 C 
ATOM      2  O   UNL     1     -10.038  15.127  69.222  0.00  0.00    -0.325 OA
ATOM      3  C   UNL     1     -11.335  14.775  68.896  0.00  0.00    +0.230 C 
ATOM      4  O   UNL     1     -11.853  16.072  68.722  0.00  0.00    -0.327 OA
ATOM      5  C   UNL     1     -11.015  16.748  67.885  0.00  0.00    +0.178 C 
ENDROOT
BRANCH   3   6
ATOM      6  C   UNL     1     -11.444  14.114  67.571  0.00  0.00    +0.041 A 
ATOM      7  C   UNL     1     -11.038  12.802  67.354  0.00  0.00    +0.059 A 
ATOM      8 CL   UNL     1      -9.660  12.257  68.308  0.00  0.00    -0.082 Cl
ATOM      9  C   UNL     1     -11.445  12.125  66.212  0.00  0.00    +0.023 A 
ATOM     10  C   UNL     1     -11.986  12.814  65.133  0.00  0.00    +0.058 A 
ATOM     11 CL   UNL     1     -12.717  11.982  63.767  0.00  0.00    -0.082 Cl
ATOM     12  C   UNL     1     -12.089  14.194  65.226  0.00  0.00    +0.011 A 
ATOM     13  C   UNL     1     -12.096  14.718  66.502  0.00  0.00    +0.002 A 
ENDBRANCH   3   6
BRANCH   1  14
ATOM     14  C   UNL     1      -8.668  16.794  68.367  0.00  0.00    +0.237 C 
BRANCH  14  15
ATOM     15  O   UNL     1      -8.535  17.550  67.195  0.00  0.00    -0.473 OA
BRANCH  15  19
ATOM     16  C   UNL     1      -5.373  19.256  65.092  0.00  0.00    +0.048 A 
ATOM     17  C   UNL     1      -6.462  20.023  65.465  0.00  0.00    +0.018 A 
ATOM     18  C   UNL     1      -7.419  19.542  66.348  0.00  0.00    +0.038 A 
ATOM     19  C   UNL     1      -7.378  18.230  66.801  0.00  0.00    +0.139 A 
ATOM     20  C   UNL     1      -6.417  17.411  66.216  0.00  0.00    +0.038 A 
ATOM     21  C   UNL     1      -5.326  17.977  65.613  0.00  0.00    +0.018 A 
BRANCH  16  27
ATOM     22  C   UNL     1      -4.918  20.535  59.973  0.00  0.00    +0.095 C 
ATOM     23  C   UNL     1      -5.722  20.316  60.649  0.00  0.00    +0.226 C 
ATOM     24  N   UNL     1      -5.524  20.002  62.032  0.00  0.00    -0.276 N 
ATOM     25  C   UNL     1      -4.841  18.767  62.312  0.00  0.00    +0.115 C 
ATOM     26  C   UNL     1      -3.719  18.926  63.322  0.00  0.00    +0.112 C 
ATOM     27  N   UNL     1      -4.266  19.800  64.361  0.00  0.00    -0.304 N 
ATOM     28  C   UNL     1      -4.442  21.177  63.899  0.00  0.00    +0.112 C 
ATOM     29  C   UNL     1      -5.635  21.114  62.950  0.00  0.00    +0.115 C 
ATOM     30  O   UNL     1      -6.921  20.214  60.250  0.00  0.00    -0.275 OA
ENDBRANCH  16  27
ENDBRANCH  15  19
ENDBRANCH  14  15
ENDBRANCH   1  14
BRANCH   3  31
ATOM     31  C   UNL     1     -12.157  14.183  69.966  0.00  0.00    +0.168 C 
BRANCH  31  32
ATOM     32  N   UNL     1     -12.584  15.049  71.024  0.00  0.00    -0.302 N 
ATOM     33  C   UNL     1     -11.819  15.222  72.133  0.00  0.00    +0.179 A 
ATOM     34  N   UNL     1     -12.511  15.943  73.023  0.00  0.00    -0.222 NA
ATOM     35  C   UNL     1     -13.808  15.772  72.683  0.00  0.00    +0.119 A 
ATOM     36  C   UNL     1     -13.831  14.963  71.553  0.00  0.00    +0.098 A 
ENDBRANCH  31  32
ENDBRANCH   3  31
TORSDOF 7
ENDMDL
MODEL 7
REMARK VINA RESULT:      -6.8      2.378      3.180
REMARK  Name = 
REMARK  7 active torsions:
REMARK  status: ('A' for Active; 'I' for Inactive)
REMARK    1  A    between atoms: N_7  and  C_8
REMARK    2  A    between atoms: C_11  and  O_12
REMARK    3  A    between atoms: O_12  and  C_13
REMARK    4  A    between atoms: C_13  and  C_14
REMARK    5  A    between atoms: C_17  and  C_18
REMARK    6  A    between atoms: C_17  and  C_24
REMARK    7  A    between atoms: C_18  and  N_19
REMARK                            x       y       z     vdW  Elec       q    Type
REMARK                         _______ _______ _______ _____ _____    ______ ____
ROOT
ATOM      1  C   UNL     1      -8.889  12.188  68.607  0.00  0.00    +0.191 C 
ATOM      2  O   UNL     1      -9.901  12.868  67.651  0.00  0.00    -0.325 OA
ATOM      3  C   UNL     1     -10.679  11.728  67.571  0.00  0.00    +0.230 C 
ATOM      4  O   UNL     1      -9.776  10.922  66.852  0.00  0.00    -0.327 OA
ATOM      5  C   UNL     1      -8.570  10.978  67.487  0.00  0.00    +0.178 C 
ENDROOT
BRANCH   3   6
ATOM      6  C   UNL     1     -10.865  11.057  68.882  0.00  0.00    +0.041 A 
ATOM      7  C   UNL     1     -11.740  11.536  69.850  0.00  0.00    +0.059 A 
ATOM      8 CL   UNL     1     -11.928  13.286  69.916  0.00  0.00    -0.082 Cl
ATOM      9  C   UNL     1     -12.122  10.723  70.910  0.00  0.00    +0.023 A 
ATOM     10  C   UNL     1     -11.421   9.560  71.201  0.00  0.00    +0.058 A 
ATOM     11 CL   UNL     1     -11.999   8.393  72.383  0.00  0.00    -0.082 Cl
ATOM     12  C   UNL     1     -10.320   9.247  70.416  0.00  0.00    +0.011 A 
ATOM     13  C   UNL     1     -10.285   9.825  69.164  0.00  0.00    +0.002 A 
ENDBRANCH   3   6
BRANCH   1  14
ATOM     14  C   UNL     1      -7.621  13.116  68.008  0.00  0.00    +0.237 C 
BRANCH  14  15
ATOM     15  O   UNL     1      -7.351  13.856  69.167  0.00  0.00    -0.473 OA
BRANCH  15  19
ATOM     16  C   UNL     1      -7.552  17.977  68.617  0.00  0.00    +0.048 A 
ATOM     17  C   UNL     1      -8.686  17.196  68.485  0.00  0.00    +0.018 A 
ATOM     18  C   UNL     1      -8.697  15.863  68.873  0.00  0.00    +0.038 A 
ATOM     19  C   UNL     1      -7.537  15.235  69.305  0.00  0.00    +0.139 A 
ATOM     20  C   UNL     1      -6.363  15.974  69.191  0.00  0.00    +0.038 A 
ATOM     21  C   UNL     1      -6.431  17.339  69.112  0.00  0.00    +0.018 A 
BRANCH  16  27
ATOM     22  C   UNL     1      -6.027  20.934  64.496  0.00  0.00    +0.095 C 
ATOM     23  C   UNL     1      -6.236  19.896  64.671  0.00  0.00    +0.226 C 
ATOM     24  N   UNL     1      -6.653  19.379  65.940  0.00  0.00    -0.276 N 
ATOM     25  C   UNL     1      -5.687  19.450  67.003  0.00  0.00    +0.115 C 
ATOM     26  C   UNL     1      -6.259  20.026  68.286  0.00  0.00    +0.112 C 
ATOM     27  N   UNL     1      -7.574  19.399  68.429  0.00  0.00    -0.304 N 
ATOM     28  C   UNL     1      -8.536  19.880  67.437  0.00  0.00    +0.112 C 
ATOM     29  C   UNL     1      -8.082  19.249  66.125  0.00  0.00    +0.115 C 
ATOM     30  O   UNL     1      -6.028  19.014  63.783  0.00  0.00    -0.275 OA
ENDBRANCH  16  27
ENDBRANCH  15  19
ENDBRANCH  14  15
ENDBRANCH   1  14
BRANCH   3  31
ATOM     31  C   UNL     1     -11.881  11.794  66.721  0.00  0.00    +0.168 C 
BRANCH  31  32
ATOM     32  N   UNL     1     -11.815  12.618  65.551  0.00  0.00    -0.302 N 
ATOM     33  C   UNL     1     -12.576  13.738  65.444  0.00  0.00    +0.179 A 
ATOM     34  N   UNL     1     -12.446  14.228  64.206  0.00  0.00    -0.222 NA
ATOM     35  C   UNL     1     -12.044  13.180  63.452  0.00  0.00    +0.119 A 
ATOM     36  C   UNL     1     -11.915  12.090  64.304  0.00  0.00    +0.098 A 
ENDBRANCH  31  32
ENDBRANCH   3  31
TORSDOF 7
ENDMDL
MODEL 8
REMARK VINA RESULT:      -6.8      2.473      4.252
REMARK  Name = 
REMARK  7 active torsions:
REMARK  status: ('A' for Active; 'I' for Inactive)
REMARK    1  A    between atoms: N_7  and  C_8
REMARK    2  A    between atoms: C_11  and  O_12
REMARK    3  A    between atoms: O_12  and  C_13
REMARK    4  A    between atoms: C_13  and  C_14
REMARK    5  A    between atoms: C_17  and  C_18
REMARK    6  A    between atoms: C_17  and  C_24
REMARK    7  A    between atoms: C_18  and  N_19
REMARK                            x       y       z     vdW  Elec       q    Type
REMARK                         _______ _______ _______ _____ _____    ______ ____
ROOT
ATOM      1  C   UNL     1     -10.855  14.729  69.017  0.00  0.00    +0.191 C 
ATOM      2  O   UNL     1     -11.116  15.159  67.551  0.00  0.00    -0.325 OA
ATOM      3  C   UNL     1     -10.312  14.151  67.052  0.00  0.00    +0.230 C 
ATOM      4  O   UNL     1      -9.073  14.644  67.505  0.00  0.00    -0.327 OA
ATOM      5  C   UNL     1      -9.198  14.932  68.832  0.00  0.00    +0.178 C 
ENDROOT
BRANCH   3   6
ATOM      6  C   UNL     1     -10.508  12.852  67.745  0.00  0.00    +0.041 A 
ATOM      7  C   UNL     1      -9.454  11.994  68.038  0.00  0.00    +0.059 A 
ATOM      8 CL   UNL     1      -8.125  11.988  66.882  0.00  0.00    -0.082 Cl
ATOM      9  C   UNL     1      -9.627  10.964  68.953  0.00  0.00    +0.023 A 
ATOM     10  C   UNL     1     -10.899  10.573  69.351  0.00  0.00    +0.058 A 
ATOM     11 CL   UNL     1     -11.157   9.434  70.666  0.00  0.00    -0.082 Cl
ATOM     12  C   UNL     1     -11.987  11.229  68.793  0.00  0.00    +0.011 A 
ATOM     13  C   UNL     1     -11.740  12.482  68.274  0.00  0.00    +0.002 A 
ENDBRANCH   3   6
BRANCH   1  14
ATOM     14  C   UNL     1     -11.016  16.310  69.564  0.00  0.00    +0.237 C 
BRANCH  14  15
ATOM     15  O   UNL     1     -11.164  16.938  68.320  0.00  0.00    -0.473 OA
BRANCH  15  19
ATOM     16  C   UNL     1      -8.261  19.628  67.031  0.00  0.00    +0.048 A 
ATOM     17  C   UNL     1      -9.135  19.052  66.126  0.00  0.00    +0.018 A 
ATOM     18  C   UNL     1     -10.242  18.330  66.548  0.00  0.00    +0.038 A 
ATOM     19  C   UNL     1     -10.452  18.063  67.894  0.00  0.00    +0.139 A 
ATOM     20  C   UNL     1      -9.428  18.440  68.758  0.00  0.00    +0.038 A 
ATOM     21  C   UNL     1      -8.534  19.399  68.366  0.00  0.00    +0.018 A 
BRANCH  16  27
ATOM     22  C   UNL     1      -3.179  18.826  65.775  0.00  0.00    +0.095 C 
ATOM     23  C   UNL     1      -4.054  18.216  65.892  0.00  0.00    +0.226 C 
ATOM     24  N   UNL     1      -5.339  18.743  66.243  0.00  0.00    -0.276 N 
ATOM     25  C   UNL     1      -5.455  19.310  67.559  0.00  0.00    +0.115 C 
ATOM     26  C   UNL     1      -6.117  20.678  67.559  0.00  0.00    +0.112 C 
ATOM     27  N   UNL     1      -7.241  20.553  66.631  0.00  0.00    -0.304 N 
ATOM     28  C   UNL     1      -6.808  20.437  65.238  0.00  0.00    +0.112 C 
ATOM     29  C   UNL     1      -6.222  19.032  65.135  0.00  0.00    +0.115 C 
ATOM     30  O   UNL     1      -4.000  16.951  65.831  0.00  0.00    -0.275 OA
ENDBRANCH  16  27
ENDBRANCH  15  19
ENDBRANCH  14  15
ENDBRANCH   1  14
BRANCH   3  31
ATOM     31  C   UNL     1     -10.171  14.069  65.588  0.00  0.00    +0.168 C 
BRANCH  31  32
ATOM     32  N   UNL     1     -10.929  13.061  64.909  0.00  0.00    -0.302 N 
ATOM     33  C   UNL     1     -10.325  12.189  64.060  0.00  0.00    +0.179 A 
ATOM     34  N   UNL     1     -11.268  11.467  63.444  0.00  0.00    -0.222 NA
ATOM     35  C   UNL     1     -12.393  12.213  63.527  0.00  0.00    +0.119 A 
ATOM     36  C   UNL     1     -12.070  13.362  64.238  0.00  0.00    +0.098 A 
ENDBRANCH  31  32
ENDBRANCH   3  31
TORSDOF 7
ENDMDL
MODEL 9
REMARK VINA RESULT:      -6.8      2.749      5.449
REMARK  Name = 
REMARK  7 active torsions:
REMARK  status: ('A' for Active; 'I' for Inactive)
REMARK    1  A    between atoms: N_7  and  C_8
REMARK    2  A    between atoms: C_11  and  O_12
REMARK    3  A    between atoms: O_12  and  C_13
REMARK    4  A    between atoms: C_13  and  C_14
REMARK    5  A    between atoms: C_17  and  C_18
REMARK    6  A    between atoms: C_17  and  C_24
REMARK    7  A    between atoms: C_18  and  N_19
REMARK                            x       y       z     vdW  Elec       q    Type
REMARK                         _______ _______ _______ _____ _____    ______ ____
ROOT
ATOM      1  C   UNL     1     -10.908  15.435  68.092  0.00  0.00    +0.191 C 
ATOM      2  O   UNL     1      -9.465  15.039  68.491  0.00  0.00    -0.325 OA
ATOM      3  C   UNL     1      -9.687  13.707  68.194  0.00  0.00    +0.230 C 
ATOM      4  O   UNL     1     -10.590  13.420  69.236  0.00  0.00    -0.327 OA
ATOM      5  C   UNL     1     -11.562  14.376  69.220  0.00  0.00    +0.178 C 
ENDROOT
BRANCH   3   6
ATOM      6  C   UNL     1     -10.447  13.510  66.934  0.00  0.00    +0.041 A 
ATOM      7  C   UNL     1      -9.996  13.982  65.707  0.00  0.00    +0.059 A 
ATOM      8 CL   UNL     1      -9.077  15.485  65.754  0.00  0.00    -0.082 Cl
ATOM      9  C   UNL     1     -10.557  13.510  64.528  0.00  0.00    +0.023 A 
ATOM     10  C   UNL     1     -11.760  12.815  64.542  0.00  0.00    +0.058 A 
ATOM     11 CL   UNL     1     -12.389  12.009  63.112  0.00  0.00    -0.082 Cl
ATOM     12  C   UNL     1     -12.389  12.625  65.764  0.00  0.00    +0.011 A 
ATOM     13  C   UNL     1     -11.585  12.712  66.881  0.00  0.00    +0.002 A 
ENDBRANCH   3   6
BRANCH   1  14
ATOM     14  C   UNL     1     -10.930  16.687  69.213  0.00  0.00    +0.237 C 
BRANCH  14  15
ATOM     15  O   UNL     1     -11.209  17.740  68.331  0.00  0.00    -0.473 OA
BRANCH  15  19
ATOM     16  C   UNL     1      -7.932  19.894  66.935  0.00  0.00    +0.048 A 
ATOM     17  C   UNL     1      -9.043  19.708  66.131  0.00  0.00    +0.018 A 
ATOM     18  C   UNL     1     -10.226  19.189  66.640  0.00  0.00    +0.038 A 
ATOM     19  C   UNL     1     -10.302  18.734  67.949  0.00  0.00    +0.139 A 
ATOM     20  C   UNL     1      -9.104  18.703  68.657  0.00  0.00    +0.038 A 
ATOM     21  C   UNL     1      -8.062  19.491  68.250  0.00  0.00    +0.018 A 
BRANCH  16  27
ATOM     22  C   UNL     1      -3.028  18.235  65.818  0.00  0.00    +0.095 C 
ATOM     23  C   UNL     1      -3.988  17.777  65.960  0.00  0.00    +0.226 C 
ATOM     24  N   UNL     1      -5.178  18.518  66.255  0.00  0.00    -0.276 N 
ATOM     25  C   UNL     1      -5.213  19.183  67.530  0.00  0.00    +0.115 C 
ATOM     26  C   UNL     1      -5.654  20.633  67.429  0.00  0.00    +0.112 C 
ATOM     27  N   UNL     1      -6.778  20.622  66.493  0.00  0.00    -0.304 N 
ATOM     28  C   UNL     1      -6.360  20.347  65.117  0.00  0.00    +0.112 C 
ATOM     29  C   UNL     1      -5.998  18.866  65.116  0.00  0.00    +0.115 C 
ATOM     30  O   UNL     1      -4.130  16.517  65.982  0.00  0.00    -0.275 OA
ENDBRANCH  16  27
ENDBRANCH  15  19
ENDBRANCH  14  15
ENDBRANCH   1  14
BRANCH   3  31
ATOM     31  C   UNL     1      -8.564  12.776  68.405  0.00  0.00    +0.168 C 
BRANCH  31  32
ATOM     32  N   UNL     1      -7.249  13.250  68.090  0.00  0.00    -0.302 N 
ATOM     33  C   UNL     1      -6.439  12.551  67.253  0.00  0.00    +0.179 A 
ATOM     34  N   UNL     1      -5.227  13.119  67.255  0.00  0.00    -0.222 NA
ATOM     35  C   UNL     1      -5.162  13.805  68.419  0.00  0.00    +0.119 A 
ATOM     36  C   UNL     1      -6.383  13.639  69.061  0.00  0.00    +0.098 A 
ENDBRANCH  31  32
ENDBRANCH   3  31
TORSDOF 7
ENDMDL
