MODEL 1
REMARK VINA RESULT:      -4.5      0.000      0.000
REMARK  Name = 
REMARK  2 active torsions:
REMARK  status: ('A' for Active; 'I' for Inactive)
REMARK    1  A    between atoms: C_2  and  C_5
REMARK    2  A    between atoms: C_5  and  C_6
REMARK                            x       y       z     vdW  Elec       q    Type
REMARK                         _______ _______ _______ _____ _____    ______ ____
ROOT
ATOM      1  C   UNL     1     -11.964  14.876  70.088  0.00  0.00    -0.021 A 
ATOM      2  C   UNL     1     -11.734  16.000  69.305  0.00  0.00    -0.004 A 
ATOM      3  C   UNL     1     -11.100  15.865  68.074  0.00  0.00    -0.000 A 
ATOM      4  C   UNL     1     -10.860  14.601  67.546  0.00  0.00    -0.000 A 
ATOM      5  C   UNL     1     -11.645  13.586  68.077  0.00  0.00    -0.000 A 
ATOM      6  C   UNL     1     -12.090  13.683  69.389  0.00  0.00    -0.004 A 
ENDROOT
BRANCH   1   7
ATOM      7  C   UNL     1     -11.763  14.925  71.561  0.00  0.00    +0.044 C 
BRANCH   7   9
ATOM      8  C   UNL     1     -13.574  13.426  72.423  0.00  0.00    +0.019 C 
ATOM      9  C   UNL     1     -13.057  14.833  72.314  0.00  0.00    +0.081 C 
ATOM     10  N   UNL     1     -14.102  15.670  71.769  0.00  0.00    -0.134 NA
ATOM     11  C   UNL     1     -12.771  15.376  73.712  0.00  0.00    +0.019 C 
ENDBRANCH   7   9
ENDBRANCH   1   7
TORSDOF 2
ENDMDL
MODEL 2
REMARK VINA RESULT:      -4.5      1.670      4.580
REMARK  Name = 
REMARK  2 active torsions:
REMARK  status: ('A' for Active; 'I' for Inactive)
REMARK    1  A    between atoms: C_2  and  C_5
REMARK    2  A    between atoms: C_5  and  C_6
REMARK                            x       y       z     vdW  Elec       q    Type
REMARK                         _______ _______ _______ _____ _____    ______ ____
ROOT
ATOM      1  C   UNL     1     -12.464  15.185  70.734  0.00  0.00    -0.021 A 
ATOM      2  C   UNL     1     -13.809  15.210  71.075  0.00  0.00    -0.004 A 
ATOM      3  C   UNL     1     -14.181  15.351  72.407  0.00  0.00    -0.000 A 
ATOM      4  C   UNL     1     -13.225  15.648  73.372  0.00  0.00    -0.000 A 
ATOM      5  C   UNL     1     -12.048  16.200  72.881  0.00  0.00    -0.000 A 
ATOM      6  C   UNL     1     -11.620  15.865  71.603  0.00  0.00    -0.004 A 
ENDROOT
BRANCH   1   7
ATOM      7  C   UNL     1     -11.959  14.235  69.706  0.00  0.00    +0.044 C 
BRANCH   7   9
ATOM      8  C   UNL     1      -9.821  14.795  68.529  0.00  0.00    +0.019 C 
ATOM      9  C   UNL     1     -11.317  14.940  68.548  0.00  0.00    +0.081 C 
ATOM     10  N   UNL     1     -11.648  16.345  68.473  0.00  0.00    -0.134 NA
ATOM     11  C   UNL     1     -11.902  14.303  67.290  0.00  0.00    +0.019 C 
ENDBRANCH   7   9
ENDBRANCH   1   7
TORSDOF 2
ENDMDL
MODEL 3
REMARK VINA RESULT:      -4.4      1.946      4.459
REMARK  Name = 
REMARK  2 active torsions:
REMARK  status: ('A' for Active; 'I' for Inactive)
REMARK    1  A    between atoms: C_2  and  C_5
REMARK    2  A    between atoms: C_5  and  C_6
REMARK                            x       y       z     vdW  Elec       q    Type
REMARK                         _______ _______ _______ _____ _____    ______ ____
ROOT
ATOM      1  C   UNL     1     -12.411  15.184  70.726  0.00  0.00    -0.021 A 
ATOM      2  C   UNL     1     -11.549  15.185  71.814  0.00  0.00    -0.004 A 
ATOM      3  C   UNL     1     -11.993  15.655  73.045  0.00  0.00    -0.000 A 
ATOM      4  C   UNL     1     -13.338  15.951  73.237  0.00  0.00    -0.000 A 
ATOM      5  C   UNL     1     -14.204  15.357  72.327  0.00  0.00    -0.000 A 
ATOM      6  C   UNL     1     -13.760  15.088  71.039  0.00  0.00    -0.004 A 
ENDROOT
BRANCH   1   7
ATOM      7  C   UNL     1     -11.927  15.579  69.376  0.00  0.00    +0.044 C 
BRANCH   7   9
ATOM      8  C   UNL     1     -11.747  13.093  69.128  0.00  0.00    +0.019 C 
ATOM      9  C   UNL     1     -11.278  14.439  68.648  0.00  0.00    +0.081 C 
ATOM     10  N   UNL     1      -9.834  14.471  68.697  0.00  0.00    -0.134 NA
ATOM     11  C   UNL     1     -11.652  14.609  67.178  0.00  0.00    +0.019 C 
ENDBRANCH   7   9
ENDBRANCH   1   7
TORSDOF 2
ENDMDL
MODEL 4
REMARK VINA RESULT:      -4.4      2.258      3.165
REMARK  Name = 
REMARK  2 active torsions:
REMARK  status: ('A' for Active; 'I' for Inactive)
REMARK    1  A    between atoms: C_2  and  C_5
REMARK    2  A    between atoms: C_5  and  C_6
REMARK                            x       y       z     vdW  Elec       q    Type
REMARK                         _______ _______ _______ _____ _____    ______ ____
ROOT
ATOM      1  C   UNL     1     -12.745  12.787  71.384  0.00  0.00    -0.021 A 
ATOM      2  C   UNL     1     -12.161  12.732  70.126  0.00  0.00    -0.004 A 
ATOM      3  C   UNL     1     -11.612  11.538  69.672  0.00  0.00    -0.000 A 
ATOM      4  C   UNL     1     -11.805  10.362  70.389  0.00  0.00    -0.000 A 
ATOM      5  C   UNL     1     -12.879  10.383  71.269  0.00  0.00    -0.000 A 
ATOM      6  C   UNL     1     -13.262  11.584  71.850  0.00  0.00    -0.004 A 
ENDROOT
BRANCH   1   7
ATOM      7  C   UNL     1     -12.532  13.964  72.268  0.00  0.00    +0.044 C 
BRANCH   7   9
ATOM      8  C   UNL     1     -14.848  14.672  71.629  0.00  0.00    +0.019 C 
ATOM      9  C   UNL     1     -13.439  15.107  71.919  0.00  0.00    +0.081 C 
ATOM     10  N   UNL     1     -12.962  15.904  70.812  0.00  0.00    -0.134 NA
ATOM     11  C   UNL     1     -13.437  16.033  73.133  0.00  0.00    +0.019 C 
ENDBRANCH   7   9
ENDBRANCH   1   7
TORSDOF 2
ENDMDL
MODEL 5
REMARK VINA RESULT:      -4.3      3.756      6.110
REMARK  Name = 
REMARK  2 active torsions:
REMARK  status: ('A' for Active; 'I' for Inactive)
REMARK    1  A    between atoms: C_2  and  C_5
REMARK    2  A    between atoms: C_5  and  C_6
REMARK                            x       y       z     vdW  Elec       q    Type
REMARK                         _______ _______ _______ _____ _____    ______ ____
ROOT
ATOM      1  C   UNL     1     -11.822  12.829  66.792  0.00  0.00    -0.021 A 
ATOM      2  C   UNL     1     -11.686  13.515  67.992  0.00  0.00    -0.004 A 
ATOM      3  C   UNL     1     -11.666  12.811  69.191  0.00  0.00    -0.000 A 
ATOM      4  C   UNL     1     -11.599  11.422  69.185  0.00  0.00    -0.000 A 
ATOM      5  C   UNL     1     -11.129  10.863  68.003  0.00  0.00    -0.000 A 
ATOM      6  C   UNL     1     -11.353  11.522  66.802  0.00  0.00    -0.004 A 
ENDROOT
BRANCH   1   7
ATOM      7  C   UNL     1     -12.692  13.361  65.709  0.00  0.00    +0.044 C 
BRANCH   7   9
ATOM      8  C   UNL     1     -10.467  14.168  64.891  0.00  0.00    +0.019 C 
ATOM      9  C   UNL     1     -11.899  13.871  64.543  0.00  0.00    +0.081 C 
ATOM     10  N   UNL     1     -12.477  15.040  63.920  0.00  0.00    -0.134 NA
ATOM     11  C   UNL     1     -11.943  12.768  63.488  0.00  0.00    +0.019 C 
ENDBRANCH   7   9
ENDBRANCH   1   7
TORSDOF 2
ENDMDL
MODEL 6
REMARK VINA RESULT:      -4.1      5.930      7.832
REMARK  Name = 
REMARK  2 active torsions:
REMARK  status: ('A' for Active; 'I' for Inactive)
REMARK    1  A    between atoms: C_2  and  C_5
REMARK    2  A    between atoms: C_5  and  C_6
REMARK                            x       y       z     vdW  Elec       q    Type
REMARK                         _______ _______ _______ _____ _____    ______ ____
ROOT
ATOM      1  C   UNL     1      -7.710  19.986  67.765  0.00  0.00    -0.021 A 
ATOM      2  C   UNL     1      -6.734  20.703  67.086  0.00  0.00    -0.004 A 
ATOM      3  C   UNL     1      -5.646  21.217  67.783  0.00  0.00    -0.000 A 
ATOM      4  C   UNL     1      -5.438  20.866  69.112  0.00  0.00    -0.000 A 
ATOM      5  C   UNL     1      -6.080  19.703  69.518  0.00  0.00    -0.000 A 
ATOM      6  C   UNL     1      -7.278  19.340  68.916  0.00  0.00    -0.004 A 
ENDROOT
BRANCH   1   7
ATOM      7  C   UNL     1      -9.151  20.177  67.446  0.00  0.00    +0.044 C 
BRANCH   7   9
ATOM      8  C   UNL     1     -10.471  18.063  67.686  0.00  0.00    +0.019 C 
ATOM      9  C   UNL     1      -9.741  18.986  66.751  0.00  0.00    +0.081 C 
ATOM     10  N   UNL     1      -8.774  18.218  66.001  0.00  0.00    -0.134 NA
ATOM     11  C   UNL     1     -10.723  19.543  65.722  0.00  0.00    +0.019 C 
ENDBRANCH   7   9
ENDBRANCH   1   7
TORSDOF 2
ENDMDL
MODEL 7
REMARK VINA RESULT:      -4.0      4.252      5.836
REMARK  Name = 
REMARK  2 active torsions:
REMARK  status: ('A' for Active; 'I' for Inactive)
REMARK    1  A    between atoms: C_2  and  C_5
REMARK    2  A    between atoms: C_5  and  C_6
REMARK                            x       y       z     vdW  Elec       q    Type
REMARK                         _______ _______ _______ _____ _____    ______ ____
ROOT
ATOM      1  C   UNL     1     -11.850  12.667  65.881  0.00  0.00    -0.021 A 
ATOM      2  C   UNL     1     -12.633  12.664  64.734  0.00  0.00    -0.004 A 
ATOM      3  C   UNL     1     -12.126  12.129  63.554  0.00  0.00    -0.000 A 
ATOM      4  C   UNL     1     -10.919  11.439  63.561  0.00  0.00    -0.000 A 
ATOM      5  C   UNL     1     -10.521  10.967  64.806  0.00  0.00    -0.000 A 
ATOM      6  C   UNL     1     -10.896  11.660  65.949  0.00  0.00    -0.004 A 
ENDROOT
BRANCH   1   7
ATOM      7  C   UNL     1     -11.835  13.848  66.785  0.00  0.00    +0.044 C 
BRANCH   7   9
ATOM      8  C   UNL     1     -10.769  15.371  65.106  0.00  0.00    +0.019 C 
ATOM      9  C   UNL     1     -10.697  14.779  66.486  0.00  0.00    +0.081 C 
ATOM     10  N   UNL     1      -9.396  14.173  66.663  0.00  0.00    -0.134 NA
ATOM     11  C   UNL     1     -10.783  15.897  67.521  0.00  0.00    +0.019 C 
ENDBRANCH   7   9
ENDBRANCH   1   7
TORSDOF 2
ENDMDL
MODEL 8
REMARK VINA RESULT:      -4.0      4.640      5.949
REMARK  Name = 
REMARK  2 active torsions:
REMARK  status: ('A' for Active; 'I' for Inactive)
REMARK    1  A    between atoms: C_2  and  C_5
REMARK    2  A    between atoms: C_5  and  C_6
REMARK                            x       y       z     vdW  Elec       q    Type
REMARK                         _______ _______ _______ _____ _____    ______ ____
ROOT
ATOM      1  C   UNL     1      -9.911  17.575  67.022  0.00  0.00    -0.021 A 
ATOM      2  C   UNL     1      -9.863  18.079  68.314  0.00  0.00    -0.004 A 
ATOM      3  C   UNL     1      -9.734  19.449  68.516  0.00  0.00    -0.000 A 
ATOM      4  C   UNL     1      -9.834  20.326  67.441  0.00  0.00    -0.000 A 
ATOM      5  C   UNL     1     -10.477  19.811  66.322  0.00  0.00    -0.000 A 
ATOM      6  C   UNL     1     -10.405  18.449  66.062  0.00  0.00    -0.004 A 
ENDROOT
BRANCH   1   7
ATOM      7  C   UNL     1      -9.187  16.324  66.669  0.00  0.00    +0.044 C 
BRANCH   7   9
ATOM      8  C   UNL     1     -10.626  15.071  65.047  0.00  0.00    +0.019 C 
ATOM      9  C   UNL     1     -10.120  15.168  66.459  0.00  0.00    +0.081 C 
ATOM     10  N   UNL     1     -11.250  15.169  67.359  0.00  0.00    -0.134 NA
ATOM     11  C   UNL     1      -9.318  13.913  66.795  0.00  0.00    +0.019 C 
ENDBRANCH   7   9
ENDBRANCH   1   7
TORSDOF 2
ENDMDL
MODEL 9
REMARK VINA RESULT:      -4.0      1.889      4.379
REMARK  Name = 
REMARK  2 active torsions:
REMARK  status: ('A' for Active; 'I' for Inactive)
REMARK    1  A    between atoms: C_2  and  C_5
REMARK    2  A    between atoms: C_5  and  C_6
REMARK                            x       y       z     vdW  Elec       q    Type
REMARK                         _______ _______ _______ _____ _____    ______ ____
ROOT
ATOM      1  C   UNL     1     -12.160  14.414  70.637  0.00  0.00    -0.021 A 
ATOM      2  C   UNL     1     -11.440  15.368  71.343  0.00  0.00    -0.004 A 
ATOM      3  C   UNL     1     -11.985  15.935  72.490  0.00  0.00    -0.000 A 
ATOM      4  C   UNL     1     -13.159  15.424  73.032  0.00  0.00    -0.000 A 
ATOM      5  C   UNL     1     -13.470  14.127  72.640  0.00  0.00    -0.000 A 
ATOM      6  C   UNL     1     -13.065  13.677  71.391  0.00  0.00    -0.004 A 
ENDROOT
BRANCH   1   7
ATOM      7  C   UNL     1     -12.176  14.424  69.149  0.00  0.00    +0.044 C 
BRANCH   7   9
ATOM      8  C   UNL     1     -11.808  12.909  67.189  0.00  0.00    +0.019 C 
ATOM      9  C   UNL     1     -11.355  13.313  68.565  0.00  0.00    +0.081 C 
ATOM     10  N   UNL     1     -11.302  12.135  69.400  0.00  0.00    -0.134 NA
ATOM     11  C   UNL     1      -9.924  13.840  68.490  0.00  0.00    +0.019 C 
ENDBRANCH   7   9
ENDBRANCH   1   7
TORSDOF 2
ENDMDL
