MODEL 1
REMARK VINA RESULT:      -9.6      0.000      0.000
REMARK  Name = 
REMARK  7 active torsions:
REMARK  status: ('A' for Active; 'I' for Inactive)
REMARK    1  A    between atoms: C_4  and  O_5
REMARK    2  A    between atoms: O_5  and  C_6
REMARK    3  A    between atoms: C_10  and  O_11
REMARK    4  A    between atoms: O_11  and  C_12
REMARK    5  A    between atoms: C_16  and  O_17
REMARK    6  A    between atoms: O_17  and  C_18
REMARK    7  A    between atoms: C_33  and  C_34
REMARK                            x       y       z     vdW  Elec       q    Type
REMARK                         _______ _______ _______ _____ _____    ______ ____
ROOT
ATOM      1  O   UNL     1      -8.984  12.497  66.136  0.00  0.00    -0.333 OA
ENDROOT
BRANCH   1   2
ATOM      2  C   UNL     1      -9.321  11.254  66.930  0.00  0.00    +0.118 C 
ATOM      3  C   UNL     1      -7.942  10.466  66.479  0.00  0.00    +0.030 C 
ATOM      4  C   UNL     1      -7.901   9.294  67.634  0.00  0.00    +0.002 C 
ATOM      5  C   UNL     1      -8.285  10.393  68.772  0.00  0.00    +0.000 C 
ATOM      6  C   UNL     1      -9.218   9.977  69.776  0.00  0.00    +0.002 C 
ATOM      7  C   UNL     1      -8.855   8.405  69.638  0.00  0.00    +0.028 C 
ATOM      8  C   UNL     1      -9.651   8.023  70.967  0.00  0.00    +0.129 C 
ATOM      9  C   UNL     1      -9.693   6.600  70.884  0.00  0.00    +0.057 C 
ATOM     10  C   UNL     1     -10.496   6.157  72.217  0.00  0.00    +0.027 C 
ATOM     11  C   UNL     1     -11.207   7.616  72.436  0.00  0.00    +0.007 C 
ATOM     12  C   UNL     1      -8.518   5.901  70.597  0.00  0.00    +0.005 C 
ATOM     13  C   UNL     1     -10.892   6.295  69.806  0.00  0.00    +0.154 C 
ATOM     14  O   UNL     1     -10.555   4.817  69.729  0.00  0.00    -0.223 OA
ATOM     15  C   UNL     1      -9.925   6.651  68.522  0.00  0.00    +0.033 C 
ATOM     16  O   UNL     1      -8.905   8.672  71.893  0.00  0.00    -0.226 OA
ATOM     17  C   UNL     1     -11.049   8.296  71.071  0.00  0.00    +0.031 C 
ATOM     18  C   UNL     1     -10.152   8.261  68.558  0.00  0.00    +0.005 C 
ATOM     19  C   UNL     1      -9.327   8.662  67.244  0.00  0.00    +0.000 C 
ATOM     20  C   UNL     1      -8.769   7.385  66.602  0.00  0.00    +0.000 C 
ATOM     21  C   UNL     1     -10.086   9.190  66.205  0.00  0.00    +0.002 C 
ATOM     22  C   UNL     1     -10.142  10.550  65.692  0.00  0.00    +0.030 C 
BRANCH  10  23
ATOM     23  C   UNL     1      -9.260   6.529  73.166  0.00  0.00    +0.005 C 
ATOM     24  C   UNL     1      -8.154   5.547  73.416  0.00  0.00    +0.231 C 
ATOM     25  O   UNL     1      -7.243   6.443  74.015  0.00  0.00    -0.441 OA
ATOM     26  C   UNL     1      -8.043   7.192  74.891  0.00  0.00    +0.341 C 
ATOM     27  O   UNL     1      -7.497   8.206  75.439  0.00  0.00    -0.245 OA
ATOM     28  C   UNL     1      -9.422   7.067  74.382  0.00  0.00    +0.077 C 
ENDBRANCH  10  23
ENDBRANCH   1   2
BRANCH   1  33
ATOM     29  C   UNL     1      -9.748  16.125  67.433  0.00  0.00    +0.175 C 
ATOM     30  C   UNL     1     -10.928  15.042  68.028  0.00  0.00    +0.186 C 
ATOM     31  O   UNL     1     -11.799  14.921  66.795  0.00  0.00    -0.220 OA
ATOM     32  C   UNL     1     -10.064  13.661  67.921  0.00  0.00    +0.097 C 
ATOM     33  C   UNL     1     -10.377  13.100  66.405  0.00  0.00    +0.238 C 
ATOM     34  O   UNL     1     -10.058  14.380  65.743  0.00  0.00    -0.330 OA
ATOM     35  C   UNL     1      -8.968  15.242  66.181  0.00  0.00    +0.147 C 
ATOM     36  C   UNL     1      -8.060  14.324  67.209  0.00  0.00    +0.035 C 
BRANCH  29  37
ATOM     37  O   UNL     1     -10.650  16.822  66.453  0.00  0.00    -0.328 OA
BRANCH  37  42
ATOM     38  C   UNL     1      -7.761  18.997  67.861  0.00  0.00    +0.175 C 
ATOM     39  C   UNL     1      -9.039  19.031  69.000  0.00  0.00    +0.186 C 
ATOM     40  O   UNL     1      -9.980  19.987  68.317  0.00  0.00    -0.220 OA
ATOM     41  C   UNL     1      -9.671  17.680  68.321  0.00  0.00    +0.097 C 
ATOM     42  C   UNL     1     -10.399  18.245  66.944  0.00  0.00    +0.238 C 
ATOM     43  O   UNL     1      -9.081  18.295  66.165  0.00  0.00    -0.330 OA
ATOM     44  C   UNL     1      -8.638  19.680  66.563  0.00  0.00    +0.147 C 
ATOM     45  C   UNL     1      -7.317  19.599  65.604  0.00  0.00    +0.035 C 
BRANCH  38  46
ATOM     46  O   UNL     1      -7.069  20.260  68.211  0.00  0.00    -0.328 OA
BRANCH  46  54
ATOM     47  C   UNL     1      -4.917  16.472  68.887  0.00  0.00    +0.035 C 
ATOM     48  C   UNL     1      -4.495  18.003  68.467  0.00  0.00    +0.151 C 
ATOM     49  C   UNL     1      -3.998  18.333  70.071  0.00  0.00    +0.209 C 
ATOM     50  O   UNL     1      -3.477  19.684  69.708  0.00  0.00    -0.218 OA
ATOM     51  C   UNL     1      -5.529  18.801  70.679  0.00  0.00    +0.190 C 
ATOM     52  O   UNL     1      -4.869  19.359  71.918  0.00  0.00    -0.220 OA
ATOM     53  C   UNL     1      -5.651  20.277  70.000  0.00  0.00    +0.097 C 
ATOM     54  C   UNL     1      -5.597  19.959  68.374  0.00  0.00    +0.238 C 
ATOM     55  O   UNL     1      -5.919  18.474  68.571  0.00  0.00    -0.330 OA
ENDBRANCH  46  54
ENDBRANCH  38  46
ENDBRANCH  37  42
ENDBRANCH  29  37
ENDBRANCH   1  33
TORSDOF 7
ENDMDL
MODEL 2
REMARK VINA RESULT:      -9.6      2.239     12.029
REMARK  Name = 
REMARK  7 active torsions:
REMARK  status: ('A' for Active; 'I' for Inactive)
REMARK    1  A    between atoms: C_4  and  O_5
REMARK    2  A    between atoms: O_5  and  C_6
REMARK    3  A    between atoms: C_10  and  O_11
REMARK    4  A    between atoms: O_11  and  C_12
REMARK    5  A    between atoms: C_16  and  O_17
REMARK    6  A    between atoms: O_17  and  C_18
REMARK    7  A    between atoms: C_33  and  C_34
REMARK                            x       y       z     vdW  Elec       q    Type
REMARK                         _______ _______ _______ _____ _____    ______ ____
ROOT
ATOM      1  O   UNL     1     -11.747  13.333  67.730  0.00  0.00    -0.333 OA
ENDROOT
BRANCH   1   2
ATOM      2  C   UNL     1     -10.714  14.388  67.402  0.00  0.00    +0.118 C 
ATOM      3  C   UNL     1     -11.755  15.640  67.681  0.00  0.00    +0.030 C 
ATOM      4  C   UNL     1     -10.672  16.869  67.849  0.00  0.00    +0.002 C 
ATOM      5  C   UNL     1      -9.730  15.921  68.778  0.00  0.00    +0.000 C 
ATOM      6  C   UNL     1      -8.317  16.015  68.564  0.00  0.00    +0.002 C 
ATOM      7  C   UNL     1      -8.379  17.529  67.994  0.00  0.00    +0.028 C 
ATOM      8  C   UNL     1      -6.796  17.711  68.078  0.00  0.00    +0.129 C 
ATOM      9  C   UNL     1      -6.601  18.917  67.343  0.00  0.00    +0.057 C 
ATOM     10  C   UNL     1      -5.000  19.149  67.397  0.00  0.00    +0.027 C 
ATOM     11  C   UNL     1      -4.649  17.585  67.732  0.00  0.00    +0.007 C 
ATOM     12  C   UNL     1      -7.405  20.023  67.625  0.00  0.00    +0.005 C 
ATOM     13  C   UNL     1      -6.692  18.450  65.772  0.00  0.00    +0.154 C 
ATOM     14  O   UNL     1      -6.706  19.880  65.265  0.00  0.00    -0.223 OA
ATOM     15  C   UNL     1      -8.336  18.378  65.816  0.00  0.00    +0.033 C 
ATOM     16  O   UNL     1      -6.614  17.643  69.419  0.00  0.00    -0.226 OA
ATOM     17  C   UNL     1      -5.933  16.842  67.343  0.00  0.00    +0.031 C 
ATOM     18  C   UNL     1      -8.441  16.877  66.432  0.00  0.00    +0.005 C 
ATOM     19  C   UNL     1     -10.032  16.695  66.385  0.00  0.00    +0.000 C 
ATOM     20  C   UNL     1     -10.657  17.960  65.782  0.00  0.00    +0.000 C 
ATOM     21  C   UNL     1     -10.491  15.713  65.513  0.00  0.00    +0.002 C 
ATOM     22  C   UNL     1     -11.089  14.419  65.802  0.00  0.00    +0.030 C 
BRANCH  10  23
ATOM     23  C   UNL     1      -5.044  19.554  68.946  0.00  0.00    +0.005 C 
ATOM     24  C   UNL     1      -5.311  20.968  69.369  0.00  0.00    +0.231 C 
ATOM     25  O   UNL     1      -5.537  20.711  70.738  0.00  0.00    -0.441 OA
ATOM     26  C   UNL     1      -4.517  19.811  71.080  0.00  0.00    +0.341 C 
ATOM     27  O   UNL     1      -4.592  19.272  72.233  0.00  0.00    -0.245 OA
ATOM     28  C   UNL     1      -4.088  19.190  69.812  0.00  0.00    +0.077 C 
ENDBRANCH  10  23
ENDBRANCH   1   2
BRANCH   1  33
ATOM     29  C   UNL     1     -10.599  10.307  69.957  0.00  0.00    +0.175 C 
ATOM     30  C   UNL     1      -9.335  10.753  68.898  0.00  0.00    +0.186 C 
ATOM     31  O   UNL     1      -9.825  10.087  67.630  0.00  0.00    -0.220 OA
ATOM     32  C   UNL     1      -9.786  12.298  68.620  0.00  0.00    +0.097 C 
ATOM     33  C   UNL     1     -10.786  12.201  67.315  0.00  0.00    +0.238 C 
ATOM     34  O   UNL     1     -11.629  11.139  67.897  0.00  0.00    -0.330 OA
ATOM     35  C   UNL     1     -11.981  11.100  69.310  0.00  0.00    +0.147 C 
ATOM     36  C   UNL     1     -11.579  12.583  69.911  0.00  0.00    +0.035 C 
BRANCH  29  37
ATOM     37  O   UNL     1     -10.944   9.021  69.261  0.00  0.00    -0.328 OA
BRANCH  37  42
ATOM     38  C   UNL     1     -10.128   6.285  71.890  0.00  0.00    +0.175 C 
ATOM     39  C   UNL     1     -11.562   5.816  71.080  0.00  0.00    +0.186 C 
ATOM     40  O   UNL     1     -12.554   6.736  71.737  0.00  0.00    -0.220 OA
ATOM     41  C   UNL     1     -11.193   6.836  69.852  0.00  0.00    +0.097 C 
ATOM     42  C   UNL     1     -11.591   8.326  70.456  0.00  0.00    +0.238 C 
ATOM     43  O   UNL     1     -10.288   8.448  71.251  0.00  0.00    -0.330 OA
ATOM     44  C   UNL     1     -10.730   7.757  72.515  0.00  0.00    +0.147 C 
ATOM     45  C   UNL     1      -9.300   8.052  73.249  0.00  0.00    +0.035 C 
BRANCH  38  46
ATOM     46  O   UNL     1     -10.294   5.543  73.162  0.00  0.00    -0.328 OA
BRANCH  46  54
ATOM     47  C   UNL     1     -11.293   1.276  73.642  0.00  0.00    +0.035 C 
ATOM     48  C   UNL     1      -9.999   2.123  73.091  0.00  0.00    +0.151 C 
ATOM     49  C   UNL     1      -9.182   1.887  74.576  0.00  0.00    +0.209 C 
ATOM     50  O   UNL     1      -7.932   2.533  74.073  0.00  0.00    -0.218 OA
ATOM     51  C   UNL     1      -9.849   3.228  75.405  0.00  0.00    +0.190 C 
ATOM     52  O   UNL     1      -8.813   3.074  76.494  0.00  0.00    -0.220 OA
ATOM     53  C   UNL     1      -9.015   4.432  74.692  0.00  0.00    +0.097 C 
ATOM     54  C   UNL     1      -9.438   4.299  73.095  0.00  0.00    +0.238 C 
ATOM     55  O   UNL     1     -10.664   3.434  73.407  0.00  0.00    -0.330 OA
ENDBRANCH  46  54
ENDBRANCH  38  46
ENDBRANCH  37  42
ENDBRANCH  29  37
ENDBRANCH   1  33
TORSDOF 7
ENDMDL
MODEL 3
REMARK VINA RESULT:      -9.3      1.775     11.216
REMARK  Name = 
REMARK  7 active torsions:
REMARK  status: ('A' for Active; 'I' for Inactive)
REMARK    1  A    between atoms: C_4  and  O_5
REMARK    2  A    between atoms: O_5  and  C_6
REMARK    3  A    between atoms: C_10  and  O_11
REMARK    4  A    between atoms: O_11  and  C_12
REMARK    5  A    between atoms: C_16  and  O_17
REMARK    6  A    between atoms: O_17  and  C_18
REMARK    7  A    between atoms: C_33  and  C_34
REMARK                            x       y       z     vdW  Elec       q    Type
REMARK                         _______ _______ _______ _____ _____    ______ ____
ROOT
ATOM      1  O   UNL     1     -11.125  12.937  67.543  0.00  0.00    -0.333 OA
ENDROOT
BRANCH   1   2
ATOM      2  C   UNL     1     -10.216  14.112  67.256  0.00  0.00    +0.118 C 
ATOM      3  C   UNL     1     -11.371  15.230  67.636  0.00  0.00    +0.030 C 
ATOM      4  C   UNL     1     -10.416  16.553  67.854  0.00  0.00    +0.002 C 
ATOM      5  C   UNL     1      -9.354  15.655  68.700  0.00  0.00    +0.000 C 
ATOM      6  C   UNL     1      -7.965  15.908  68.459  0.00  0.00    +0.002 C 
ATOM      7  C   UNL     1      -8.199  17.439  67.985  0.00  0.00    +0.028 C 
ATOM      8  C   UNL     1      -6.641  17.779  68.044  0.00  0.00    +0.129 C 
ATOM      9  C   UNL     1      -6.592  19.041  67.380  0.00  0.00    +0.057 C 
ATOM     10  C   UNL     1      -5.023  19.434  67.411  0.00  0.00    +0.027 C 
ATOM     11  C   UNL     1      -4.504  17.898  67.641  0.00  0.00    +0.007 C 
ATOM     12  C   UNL     1      -7.497  20.038  67.749  0.00  0.00    +0.005 C 
ATOM     13  C   UNL     1      -6.681  18.659  65.786  0.00  0.00    +0.154 C 
ATOM     14  O   UNL     1      -6.857  20.108  65.369  0.00  0.00    -0.223 OA
ATOM     15  C   UNL     1      -8.308  18.414  65.863  0.00  0.00    +0.033 C 
ATOM     16  O   UNL     1      -6.413  17.652  69.373  0.00  0.00    -0.226 OA
ATOM     17  C   UNL     1      -5.715  17.050  67.237  0.00  0.00    +0.031 C 
ATOM     18  C   UNL     1      -8.240  16.877  66.389  0.00  0.00    +0.005 C 
ATOM     19  C   UNL     1      -9.805  16.533  66.367  0.00  0.00    +0.000 C 
ATOM     20  C   UNL     1     -10.573  17.759  65.858  0.00  0.00    +0.000 C 
ATOM     21  C   UNL     1     -10.186  15.562  65.448  0.00  0.00    +0.002 C 
ATOM     22  C   UNL     1     -10.639  14.198  65.670  0.00  0.00    +0.030 C 
BRANCH  10  23
ATOM     23  C   UNL     1      -5.062  19.740  68.982  0.00  0.00    +0.005 C 
ATOM     24  C   UNL     1      -5.344  21.121  69.495  0.00  0.00    +0.231 C 
ATOM     25  O   UNL     1      -5.559  20.777  70.847  0.00  0.00    -0.441 OA
ATOM     26  C   UNL     1      -4.525  19.870  71.126  0.00  0.00    +0.341 C 
ATOM     27  O   UNL     1      -4.587  19.258  72.243  0.00  0.00    -0.245 OA
ATOM     28  C   UNL     1      -4.097  19.335  69.819  0.00  0.00    +0.077 C 
ENDBRANCH  10  23
ENDBRANCH   1   2
BRANCH   1  33
ATOM     29  C   UNL     1     -10.318   9.403  69.054  0.00  0.00    +0.175 C 
ATOM     30  C   UNL     1      -8.893  10.091  68.408  0.00  0.00    +0.186 C 
ATOM     31  O   UNL     1      -9.119   9.798  66.940  0.00  0.00    -0.220 OA
ATOM     32  C   UNL     1      -9.332  11.662  68.473  0.00  0.00    +0.097 C 
ATOM     33  C   UNL     1     -10.070  11.939  67.027  0.00  0.00    +0.238 C 
ATOM     34  O   UNL     1     -10.973  10.777  67.137  0.00  0.00    -0.330 OA
ATOM     35  C   UNL     1     -11.579  10.368  68.397  0.00  0.00    +0.147 C 
ATOM     36  C   UNL     1     -11.341  11.628  69.436  0.00  0.00    +0.035 C 
BRANCH  29  37
ATOM     37  O   UNL     1     -10.488   8.357  67.988  0.00  0.00    -0.328 OA
BRANCH  37  42
ATOM     38  C   UNL     1      -9.446   6.887  71.426  0.00  0.00    +0.175 C 
ATOM     39  C   UNL     1      -9.269   5.649  70.257  0.00  0.00    +0.186 C 
ATOM     40  O   UNL     1     -10.708   5.259  70.060  0.00  0.00    -0.220 OA
ATOM     41  C   UNL     1      -9.252   6.781  69.071  0.00  0.00    +0.097 C 
ATOM     42  C   UNL     1     -10.848   7.200  68.915  0.00  0.00    +0.238 C 
ATOM     43  O   UNL     1     -10.809   8.137  70.125  0.00  0.00    -0.330 OA
ATOM     44  C   UNL     1     -11.123   7.129  71.201  0.00  0.00    +0.147 C 
ATOM     45  C   UNL     1     -11.132   8.279  72.362  0.00  0.00    +0.035 C 
BRANCH  38  46
ATOM     46  O   UNL     1      -9.611   6.066  72.649  0.00  0.00    -0.328 OA
BRANCH  46  54
ATOM     47  C   UNL     1      -8.262   6.087  76.846  0.00  0.00    +0.035 C 
ATOM     48  C   UNL     1      -7.617   5.624  75.408  0.00  0.00    +0.151 C 
ATOM     49  C   UNL     1      -6.707   7.071  75.324  0.00  0.00    +0.209 C 
ATOM     50  O   UNL     1      -5.994   6.635  74.085  0.00  0.00    -0.218 OA
ATOM     51  C   UNL     1      -7.914   8.044  74.597  0.00  0.00    +0.190 C 
ATOM     52  O   UNL     1      -6.881   9.105  74.295  0.00  0.00    -0.220 OA
ATOM     53  C   UNL     1      -7.855   7.461  73.077  0.00  0.00    +0.097 C 
ATOM     54  C   UNL     1      -8.246   5.861  73.264  0.00  0.00    +0.238 C 
ATOM     55  O   UNL     1      -8.837   6.084  74.659  0.00  0.00    -0.330 OA
ENDBRANCH  46  54
ENDBRANCH  38  46
ENDBRANCH  37  42
ENDBRANCH  29  37
ENDBRANCH   1  33
TORSDOF 7
ENDMDL
MODEL 4
REMARK VINA RESULT:      -9.3      1.840     11.686
REMARK  Name = 
REMARK  7 active torsions:
REMARK  status: ('A' for Active; 'I' for Inactive)
REMARK    1  A    between atoms: C_4  and  O_5
REMARK    2  A    between atoms: O_5  and  C_6
REMARK    3  A    between atoms: C_10  and  O_11
REMARK    4  A    between atoms: O_11  and  C_12
REMARK    5  A    between atoms: C_16  and  O_17
REMARK    6  A    between atoms: O_17  and  C_18
REMARK    7  A    between atoms: C_33  and  C_34
REMARK                            x       y       z     vdW  Elec       q    Type
REMARK                         _______ _______ _______ _____ _____    ______ ____
ROOT
ATOM      1  O   UNL     1     -10.918  13.124  67.359  0.00  0.00    -0.333 OA
ENDROOT
BRANCH   1   2
ATOM      2  C   UNL     1     -10.027  14.322  67.117  0.00  0.00    +0.118 C 
ATOM      3  C   UNL     1     -11.186  15.406  67.573  0.00  0.00    +0.030 C 
ATOM      4  C   UNL     1     -10.241  16.727  67.841  0.00  0.00    +0.002 C 
ATOM      5  C   UNL     1      -9.155  15.799  68.622  0.00  0.00    +0.000 C 
ATOM      6  C   UNL     1      -7.773  16.081  68.370  0.00  0.00    +0.002 C 
ATOM      7  C   UNL     1      -8.032  17.630  67.978  0.00  0.00    +0.028 C 
ATOM      8  C   UNL     1      -6.477  17.985  68.027  0.00  0.00    +0.129 C 
ATOM      9  C   UNL     1      -6.453  19.278  67.426  0.00  0.00    +0.057 C 
ATOM     10  C   UNL     1      -4.887  19.687  67.450  0.00  0.00    +0.027 C 
ATOM     11  C   UNL     1      -4.349  18.148  67.593  0.00  0.00    +0.007 C 
ATOM     12  C   UNL     1      -7.361  20.246  67.861  0.00  0.00    +0.005 C 
ATOM     13  C   UNL     1      -6.567  18.977  65.817  0.00  0.00    +0.154 C 
ATOM     14  O   UNL     1      -6.765  20.443  65.477  0.00  0.00    -0.223 OA
ATOM     15  C   UNL     1      -8.189  18.710  65.910  0.00  0.00    +0.033 C 
ATOM     16  O   UNL     1      -6.223  17.793  69.344  0.00  0.00    -0.226 OA
ATOM     17  C   UNL     1      -5.558  17.307  67.168  0.00  0.00    +0.031 C 
ATOM     18  C   UNL     1      -8.095  17.149  66.356  0.00  0.00    +0.005 C 
ATOM     19  C   UNL     1      -9.657  16.789  66.344  0.00  0.00    +0.000 C 
ATOM     20  C   UNL     1     -10.447  18.030  65.912  0.00  0.00    +0.000 C 
ATOM     21  C   UNL     1     -10.045  15.860  65.384  0.00  0.00    +0.002 C 
ATOM     22  C   UNL     1     -10.479  14.482  65.545  0.00  0.00    +0.030 C 
BRANCH  10  23
ATOM     23  C   UNL     1      -4.902  19.914  69.035  0.00  0.00    +0.005 C 
ATOM     24  C   UNL     1      -5.278  21.241  69.624  0.00  0.00    +0.231 C 
ATOM     25  O   UNL     1      -5.422  20.815  70.962  0.00  0.00    -0.441 OA
ATOM     26  C   UNL     1      -4.310  19.985  71.167  0.00  0.00    +0.341 C 
ATOM     27  O   UNL     1      -4.286  19.317  72.253  0.00  0.00    -0.245 OA
ATOM     28  C   UNL     1      -3.881  19.550  69.823  0.00  0.00    +0.077 C 
ENDBRANCH  10  23
ENDBRANCH   1   2
BRANCH   1  33
ATOM     29  C   UNL     1     -10.249   9.619  69.003  0.00  0.00    +0.175 C 
ATOM     30  C   UNL     1      -8.764  10.338  68.558  0.00  0.00    +0.186 C 
ATOM     31  O   UNL     1      -8.774  10.032  67.076  0.00  0.00    -0.220 OA
ATOM     32  C   UNL     1      -9.245  11.898  68.546  0.00  0.00    +0.097 C 
ATOM     33  C   UNL     1      -9.777  12.149  67.008  0.00  0.00    +0.238 C 
ATOM     34  O   UNL     1     -10.659  10.966  67.000  0.00  0.00    -0.330 OA
ATOM     35  C   UNL     1     -11.427  10.549  68.165  0.00  0.00    +0.147 C 
ATOM     36  C   UNL     1     -11.368  11.820  69.215  0.00  0.00    +0.035 C 
BRANCH  29  37
ATOM     37  O   UNL     1     -10.242   8.564  67.934  0.00  0.00    -0.328 OA
BRANCH  37  42
ATOM     38  C   UNL     1      -9.658   6.867  71.375  0.00  0.00    +0.175 C 
ATOM     39  C   UNL     1      -9.541   5.655  70.172  0.00  0.00    +0.186 C 
ATOM     40  O   UNL     1     -10.997   5.452  69.854  0.00  0.00    -0.220 OA
ATOM     41  C   UNL     1      -9.295   6.813  69.039  0.00  0.00    +0.097 C 
ATOM     42  C   UNL     1     -10.811   7.430  68.783  0.00  0.00    +0.238 C 
ATOM     43  O   UNL     1     -10.753   8.317  70.030  0.00  0.00    -0.330 OA
ATOM     44  C   UNL     1     -11.270   7.322  71.038  0.00  0.00    +0.147 C 
ATOM     45  C   UNL     1     -11.230   8.427  72.241  0.00  0.00    +0.035 C 
BRANCH  38  46
ATOM     46  O   UNL     1     -10.016   6.035  72.548  0.00  0.00    -0.328 OA
BRANCH  46  54
ATOM     47  C   UNL     1      -7.610   2.842  74.406  0.00  0.00    +0.035 C 
ATOM     48  C   UNL     1      -7.490   4.474  74.272  0.00  0.00    +0.151 C 
ATOM     49  C   UNL     1      -8.082   4.673  75.865  0.00  0.00    +0.209 C 
ATOM     50  O   UNL     1      -7.864   6.150  75.838  0.00  0.00    -0.218 OA
ATOM     51  C   UNL     1      -9.750   4.651  75.481  0.00  0.00    +0.190 C 
ATOM     52  O   UNL     1     -10.078   5.163  76.864  0.00  0.00    -0.220 OA
ATOM     53  C   UNL     1      -9.898   6.135  74.826  0.00  0.00    +0.097 C 
ATOM     54  C   UNL     1      -8.867   6.087  73.529  0.00  0.00    +0.238 C 
ATOM     55  O   UNL     1      -8.799   4.557  73.535  0.00  0.00    -0.330 OA
ENDBRANCH  46  54
ENDBRANCH  38  46
ENDBRANCH  37  42
ENDBRANCH  29  37
ENDBRANCH   1  33
TORSDOF 7
ENDMDL
MODEL 5
REMARK VINA RESULT:      -9.1      2.233     11.984
REMARK  Name = 
REMARK  7 active torsions:
REMARK  status: ('A' for Active; 'I' for Inactive)
REMARK    1  A    between atoms: C_4  and  O_5
REMARK    2  A    between atoms: O_5  and  C_6
REMARK    3  A    between atoms: C_10  and  O_11
REMARK    4  A    between atoms: O_11  and  C_12
REMARK    5  A    between atoms: C_16  and  O_17
REMARK    6  A    between atoms: O_17  and  C_18
REMARK    7  A    between atoms: C_33  and  C_34
REMARK                            x       y       z     vdW  Elec       q    Type
REMARK                         _______ _______ _______ _____ _____    ______ ____
ROOT
ATOM      1  O   UNL     1     -11.596  13.399  67.516  0.00  0.00    -0.333 OA
ENDROOT
BRANCH   1   2
ATOM      2  C   UNL     1     -10.602  14.502  67.231  0.00  0.00    +0.118 C 
ATOM      3  C   UNL     1     -11.672  15.704  67.602  0.00  0.00    +0.030 C 
ATOM      4  C   UNL     1     -10.622  16.953  67.821  0.00  0.00    +0.002 C 
ATOM      5  C   UNL     1      -9.634  15.982  68.675  0.00  0.00    +0.000 C 
ATOM      6  C   UNL     1      -8.229  16.131  68.440  0.00  0.00    +0.002 C 
ATOM      7  C   UNL     1      -8.347  17.673  67.961  0.00  0.00    +0.028 C 
ATOM      8  C   UNL     1      -6.769  17.897  68.026  0.00  0.00    +0.129 C 
ATOM      9  C   UNL     1      -6.624  19.150  67.358  0.00  0.00    +0.057 C 
ATOM     10  C   UNL     1      -5.029  19.426  67.396  0.00  0.00    +0.027 C 
ATOM     11  C   UNL     1      -4.627  17.857  67.632  0.00  0.00    +0.007 C 
ATOM     12  C   UNL     1      -7.454  20.213  67.721  0.00  0.00    +0.005 C 
ATOM     13  C   UNL     1      -6.734  18.772  65.765  0.00  0.00    +0.154 C 
ATOM     14  O   UNL     1      -6.800  20.228  65.343  0.00  0.00    -0.223 OA
ATOM     15  C   UNL     1      -8.374  18.648  65.836  0.00  0.00    +0.033 C 
ATOM     16  O   UNL     1      -6.557  17.758  69.356  0.00  0.00    -0.226 OA
ATOM     17  C   UNL     1      -5.896  17.099  67.225  0.00  0.00    +0.031 C 
ATOM     18  C   UNL     1      -8.422  17.111  66.365  0.00  0.00    +0.005 C 
ATOM     19  C   UNL     1     -10.008  16.884  66.337  0.00  0.00    +0.000 C 
ATOM     20  C   UNL     1     -10.681  18.162  65.821  0.00  0.00    +0.000 C 
ATOM     21  C   UNL     1     -10.456  15.940  65.419  0.00  0.00    +0.002 C 
ATOM     22  C   UNL     1     -11.010  14.614  65.642  0.00  0.00    +0.030 C 
BRANCH  10  23
ATOM     23  C   UNL     1      -5.053  19.739  68.966  0.00  0.00    +0.005 C 
ATOM     24  C   UNL     1      -5.308  21.127  69.475  0.00  0.00    +0.231 C 
ATOM     25  O   UNL     1      -5.520  20.791  70.830  0.00  0.00    -0.441 OA
ATOM     26  C   UNL     1      -4.500  19.868  71.106  0.00  0.00    +0.341 C 
ATOM     27  O   UNL     1      -4.565  19.262  72.225  0.00  0.00    -0.245 OA
ATOM     28  C   UNL     1      -4.090  19.321  69.798  0.00  0.00    +0.077 C 
ENDBRANCH  10  23
ENDBRANCH   1   2
BRANCH   1  33
ATOM     29  C   UNL     1     -10.352  10.218  69.456  0.00  0.00    +0.175 C 
ATOM     30  C   UNL     1      -9.116  10.777  68.418  0.00  0.00    +0.186 C 
ATOM     31  O   UNL     1      -9.618  10.212  67.106  0.00  0.00    -0.220 OA
ATOM     32  C   UNL     1      -9.600  12.331  68.280  0.00  0.00    +0.097 C 
ATOM     33  C   UNL     1     -10.622  12.326  66.989  0.00  0.00    +0.238 C 
ATOM     34  O   UNL     1     -11.435  11.202  67.493  0.00  0.00    -0.330 OA
ATOM     35  C   UNL     1     -11.760  11.035  68.903  0.00  0.00    +0.147 C 
ATOM     36  C   UNL     1     -11.373  12.470  69.621  0.00  0.00    +0.035 C 
BRANCH  29  37
ATOM     37  O   UNL     1     -10.686   8.989  68.658  0.00  0.00    -0.328 OA
BRANCH  37  42
ATOM     38  C   UNL     1      -9.199   5.609  69.853  0.00  0.00    +0.175 C 
ATOM     39  C   UNL     1     -10.902   5.438  69.802  0.00  0.00    +0.186 C 
ATOM     40  O   UNL     1     -11.284   6.185  71.051  0.00  0.00    -0.220 OA
ATOM     41  C   UNL     1     -10.996   6.738  68.809  0.00  0.00    +0.097 C 
ATOM     42  C   UNL     1     -10.792   8.023  69.835  0.00  0.00    +0.238 C 
ATOM     43  O   UNL     1      -9.269   7.869  69.864  0.00  0.00    -0.330 OA
ATOM     44  C   UNL     1      -9.165   6.879  70.996  0.00  0.00    +0.147 C 
ATOM     45  C   UNL     1      -7.532   6.903  70.948  0.00  0.00    +0.035 C 
BRANCH  38  46
ATOM     46  O   UNL     1      -8.863   4.556  70.840  0.00  0.00    -0.328 OA
BRANCH  46  54
ATOM     47  C   UNL     1      -7.795   3.856  66.621  0.00  0.00    +0.035 C 
ATOM     48  C   UNL     1      -7.157   3.444  68.077  0.00  0.00    +0.151 C 
ATOM     49  C   UNL     1      -7.826   1.874  67.953  0.00  0.00    +0.209 C 
ATOM     50  O   UNL     1      -7.156   1.412  69.205  0.00  0.00    -0.218 OA
ATOM     51  C   UNL     1      -9.366   2.244  68.606  0.00  0.00    +0.190 C 
ATOM     52  O   UNL     1      -9.666   0.769  68.740  0.00  0.00    -0.220 OA
ATOM     53  C   UNL     1      -8.969   2.373  70.181  0.00  0.00    +0.097 C 
ATOM     54  C   UNL     1      -7.870   3.613  70.200  0.00  0.00    +0.238 C 
ATOM     55  O   UNL     1      -8.285   4.111  68.813  0.00  0.00    -0.330 OA
ENDBRANCH  46  54
ENDBRANCH  38  46
ENDBRANCH  37  42
ENDBRANCH  29  37
ENDBRANCH   1  33
TORSDOF 7
ENDMDL
MODEL 6
REMARK VINA RESULT:      -9.0      1.826     11.689
REMARK  Name = 
REMARK  7 active torsions:
REMARK  status: ('A' for Active; 'I' for Inactive)
REMARK    1  A    between atoms: C_4  and  O_5
REMARK    2  A    between atoms: O_5  and  C_6
REMARK    3  A    between atoms: C_10  and  O_11
REMARK    4  A    between atoms: O_11  and  C_12
REMARK    5  A    between atoms: C_16  and  O_17
REMARK    6  A    between atoms: O_17  and  C_18
REMARK    7  A    between atoms: C_33  and  C_34
REMARK                            x       y       z     vdW  Elec       q    Type
REMARK                         _______ _______ _______ _____ _____    ______ ____
ROOT
ATOM      1  O   UNL     1     -10.741  14.060  65.969  0.00  0.00    -0.333 OA
ENDROOT
BRANCH   1   2
ATOM      2  C   UNL     1      -9.871  15.287  66.128  0.00  0.00    +0.118 C 
ATOM      3  C   UNL     1     -10.583  15.734  67.550  0.00  0.00    +0.030 C 
ATOM      4  C   UNL     1      -9.440  16.772  68.119  0.00  0.00    +0.002 C 
ATOM      5  C   UNL     1      -8.268  15.726  67.692  0.00  0.00    +0.000 C 
ATOM      6  C   UNL     1      -7.085  16.290  67.115  0.00  0.00    +0.002 C 
ATOM      7  C   UNL     1      -7.266  17.726  67.840  0.00  0.00    +0.028 C 
ATOM      8  C   UNL     1      -5.794  18.200  67.447  0.00  0.00    +0.129 C 
ATOM      9  C   UNL     1      -5.840  19.590  67.762  0.00  0.00    +0.057 C 
ATOM     10  C   UNL     1      -4.361  20.124  67.378  0.00  0.00    +0.027 C 
ATOM     11  C   UNL     1      -4.027  18.879  66.369  0.00  0.00    +0.007 C 
ATOM     12  C   UNL     1      -6.350  19.990  68.999  0.00  0.00    +0.005 C 
ATOM     13  C   UNL     1      -6.640  20.263  66.497  0.00  0.00    +0.154 C 
ATOM     14  O   UNL     1      -6.757  21.610  67.186  0.00  0.00    -0.223 OA
ATOM     15  C   UNL     1      -8.103  19.768  67.069  0.00  0.00    +0.033 C 
ATOM     16  O   UNL     1      -5.054  17.319  68.163  0.00  0.00    -0.226 OA
ATOM     17  C   UNL     1      -5.407  18.280  66.074  0.00  0.00    +0.031 C 
ATOM     18  C   UNL     1      -8.051  18.269  66.442  0.00  0.00    +0.005 C 
ATOM     19  C   UNL     1      -9.514  17.769  66.860  0.00  0.00    +0.000 C 
ATOM     20  C   UNL     1     -10.234  18.907  67.595  0.00  0.00    +0.000 C 
ATOM     21  C   UNL     1     -10.383  17.524  65.802  0.00  0.00    +0.002 C 
ATOM     22  C   UNL     1     -10.899  16.263  65.295  0.00  0.00    +0.030 C 
BRANCH  10  23
ATOM     23  C   UNL     1      -3.696  19.386  68.635  0.00  0.00    +0.005 C 
ATOM     24  C   UNL     1      -3.582  20.073  69.964  0.00  0.00    +0.231 C 
ATOM     25  O   UNL     1      -3.239  18.938  70.730  0.00  0.00    -0.441 OA
ATOM     26  C   UNL     1      -2.290  18.277  69.936  0.00  0.00    +0.341 C 
ATOM     27  O   UNL     1      -1.938  17.112  70.315  0.00  0.00    -0.245 OA
ATOM     28  C   UNL     1      -2.517  18.754  68.558  0.00  0.00    +0.077 C 
ENDBRANCH  10  23
ENDBRANCH   1   2
BRANCH   1  33
ATOM     29  C   UNL     1     -10.901  10.349  67.246  0.00  0.00    +0.175 C 
ATOM     30  C   UNL     1     -11.251  11.415  68.534  0.00  0.00    +0.186 C 
ATOM     31  O   UNL     1      -9.844  11.846  68.889  0.00  0.00    -0.220 OA
ATOM     32  C   UNL     1     -11.746  12.700  67.656  0.00  0.00    +0.097 C 
ATOM     33  C   UNL     1     -10.368  13.558  67.378  0.00  0.00    +0.238 C 
ATOM     34  O   UNL     1      -9.613  12.397  66.871  0.00  0.00    -0.330 OA
ATOM     35  C   UNL     1     -10.219  11.366  66.039  0.00  0.00    +0.147 C 
ATOM     36  C   UNL     1     -11.668  11.984  65.548  0.00  0.00    +0.035 C 
BRANCH  29  37
ATOM     37  O   UNL     1      -9.544   9.937  67.743  0.00  0.00    -0.328 OA
BRANCH  37  42
ATOM     38  C   UNL     1      -9.484   6.672  69.840  0.00  0.00    +0.175 C 
ATOM     39  C   UNL     1      -8.339   6.500  68.579  0.00  0.00    +0.186 C 
ATOM     40  O   UNL     1      -9.257   6.229  67.419  0.00  0.00    -0.220 OA
ATOM     41  C   UNL     1      -8.320   8.127  68.384  0.00  0.00    +0.097 C 
ATOM     42  C   UNL     1      -9.724   8.433  67.559  0.00  0.00    +0.238 C 
ATOM     43  O   UNL     1     -10.584   8.365  68.824  0.00  0.00    -0.330 OA
ATOM     44  C   UNL     1     -10.850   6.882  68.835  0.00  0.00    +0.147 C 
ATOM     45  C   UNL     1     -11.819   7.004  70.146  0.00  0.00    +0.035 C 
BRANCH  38  46
ATOM     46  O   UNL     1      -9.769   5.246  70.126  0.00  0.00    -0.328 OA
BRANCH  46  54
ATOM     47  C   UNL     1     -10.828   2.820  73.652  0.00  0.00    +0.035 C 
ATOM     48  C   UNL     1      -9.436   3.403  73.004  0.00  0.00    +0.151 C 
ATOM     49  C   UNL     1      -9.410   4.678  74.145  0.00  0.00    +0.209 C 
ATOM     50  O   UNL     1      -8.078   5.166  73.676  0.00  0.00    -0.218 OA
ATOM     51  C   UNL     1     -10.404   5.768  73.275  0.00  0.00    +0.190 C 
ATOM     52  O   UNL     1      -9.998   6.885  74.207  0.00  0.00    -0.220 OA
ATOM     53  C   UNL     1      -9.346   6.248  72.133  0.00  0.00    +0.097 C 
ATOM     54  C   UNL     1      -8.968   4.842  71.343  0.00  0.00    +0.238 C 
ATOM     55  O   UNL     1     -10.186   4.102  71.904  0.00  0.00    -0.330 OA
ENDBRANCH  46  54
ENDBRANCH  38  46
ENDBRANCH  37  42
ENDBRANCH  29  37
ENDBRANCH   1  33
TORSDOF 7
ENDMDL
MODEL 7
REMARK VINA RESULT:      -8.9      2.012      3.576
REMARK  Name = 
REMARK  7 active torsions:
REMARK  status: ('A' for Active; 'I' for Inactive)
REMARK    1  A    between atoms: C_4  and  O_5
REMARK    2  A    between atoms: O_5  and  C_6
REMARK    3  A    between atoms: C_10  and  O_11
REMARK    4  A    between atoms: O_11  and  C_12
REMARK    5  A    between atoms: C_16  and  O_17
REMARK    6  A    between atoms: O_17  and  C_18
REMARK    7  A    between atoms: C_33  and  C_34
REMARK                            x       y       z     vdW  Elec       q    Type
REMARK                         _______ _______ _______ _____ _____    ______ ____
ROOT
ATOM      1  O   UNL     1     -11.713  11.873  69.266  0.00  0.00    -0.333 OA
ENDROOT
BRANCH   1   2
ATOM      2  C   UNL     1     -11.298  10.784  70.229  0.00  0.00    +0.118 C 
ATOM      3  C   UNL     1     -11.836   9.569  69.249  0.00  0.00    +0.030 C 
ATOM      4  C   UNL     1     -11.027   8.298  69.912  0.00  0.00    +0.002 C 
ATOM      5  C   UNL     1      -9.673   9.197  70.000  0.00  0.00    +0.000 C 
ATOM      6  C   UNL     1      -8.884   9.052  71.187  0.00  0.00    +0.002 C 
ATOM      7  C   UNL     1      -9.400   7.549  71.496  0.00  0.00    +0.028 C 
ATOM      8  C   UNL     1      -8.279   7.306  72.605  0.00  0.00    +0.129 C 
ATOM      9  C   UNL     1      -8.734   6.103  73.222  0.00  0.00    +0.057 C 
ATOM     10  C   UNL     1      -7.625   5.811  74.364  0.00  0.00    +0.027 C 
ATOM     11  C   UNL     1      -7.086   7.355  74.426  0.00  0.00    +0.007 C 
ATOM     12  C   UNL     1      -9.105   5.025  72.416  0.00  0.00    +0.005 C 
ATOM     13  C   UNL     1      -9.939   6.594  74.221  0.00  0.00    +0.154 C 
ATOM     14  O   UNL     1     -10.374   5.172  74.525  0.00  0.00    -0.223 OA
ATOM     15  C   UNL     1     -11.011   6.728  72.978  0.00  0.00    +0.033 C 
ATOM     16  O   UNL     1      -7.163   7.350  71.838  0.00  0.00    -0.226 OA
ATOM     17  C   UNL     1      -8.210   8.151  73.754  0.00  0.00    +0.031 C 
ATOM     18  C   UNL     1     -10.573   8.224  72.515  0.00  0.00    +0.005 C 
ATOM     19  C   UNL     1     -11.672   8.467  71.375  0.00  0.00    +0.000 C 
ATOM     20  C   UNL     1     -12.582   7.234  71.295  0.00  0.00    +0.000 C 
ATOM     21  C   UNL     1     -12.590   9.477  71.641  0.00  0.00    +0.002 C 
ATOM     22  C   UNL     1     -12.734  10.789  71.030  0.00  0.00    +0.030 C 
BRANCH  10  23
ATOM     23  C   UNL     1      -6.524   5.387  73.280  0.00  0.00    +0.005 C 
ATOM     24  C   UNL     1      -6.445   3.981  72.765  0.00  0.00    +0.231 C 
ATOM     25  O   UNL     1      -5.575   4.228  71.682  0.00  0.00    -0.441 OA
ATOM     26  C   UNL     1      -4.601   5.078  72.228  0.00  0.00    +0.341 C 
ATOM     27  O   UNL     1      -3.778   5.605  71.409  0.00  0.00    -0.245 OA
ATOM     28  C   UNL     1      -5.227   5.697  73.412  0.00  0.00    +0.077 C 
ENDBRANCH  10  23
ENDBRANCH   1   2
BRANCH   1  33
ATOM     29  C   UNL     1      -9.884  14.452  66.934  0.00  0.00    +0.175 C 
ATOM     30  C   UNL     1      -9.839  12.899  66.221  0.00  0.00    +0.186 C 
ATOM     31  O   UNL     1      -8.708  12.290  67.022  0.00  0.00    -0.220 OA
ATOM     32  C   UNL     1     -11.130  12.248  66.980  0.00  0.00    +0.097 C 
ATOM     33  C   UNL     1     -10.505  11.587  68.353  0.00  0.00    +0.238 C 
ATOM     34  O   UNL     1      -9.788  12.814  68.752  0.00  0.00    -0.330 OA
ATOM     35  C   UNL     1     -10.345  14.147  68.562  0.00  0.00    +0.147 C 
ATOM     36  C   UNL     1     -11.940  13.918  68.211  0.00  0.00    +0.035 C 
BRANCH  29  37
ATOM     37  O   UNL     1      -8.427  14.502  67.298  0.00  0.00    -0.328 OA
BRANCH  37  42
ATOM     38  C   UNL     1      -6.766  17.923  68.072  0.00  0.00    +0.175 C 
ATOM     39  C   UNL     1      -8.353  18.232  67.510  0.00  0.00    +0.186 C 
ATOM     40  O   UNL     1      -8.164  18.006  66.035  0.00  0.00    -0.220 OA
ATOM     41  C   UNL     1      -8.768  16.684  67.853  0.00  0.00    +0.097 C 
ATOM     42  C   UNL     1      -8.104  15.822  66.603  0.00  0.00    +0.238 C 
ATOM     43  O   UNL     1      -6.706  15.826  67.229  0.00  0.00    -0.330 OA
ATOM     44  C   UNL     1      -6.211  17.132  66.663  0.00  0.00    +0.147 C 
ATOM     45  C   UNL     1      -4.734  16.933  67.334  0.00  0.00    +0.035 C 
BRANCH  38  46
ATOM     46  O   UNL     1      -6.119  19.215  67.743  0.00  0.00    -0.328 OA
BRANCH  46  54
ATOM     47  C   UNL     1      -2.909  21.112  70.095  0.00  0.00    +0.035 C 
ATOM     48  C   UNL     1      -4.543  21.253  70.012  0.00  0.00    +0.151 C 
ATOM     49  C   UNL     1      -4.721  20.290  71.416  0.00  0.00    +0.209 C 
ATOM     50  O   UNL     1      -6.199  20.499  71.459  0.00  0.00    -0.218 OA
ATOM     51  C   UNL     1      -4.699  18.765  70.636  0.00  0.00    +0.190 C 
ATOM     52  O   UNL     1      -5.194  18.107  71.903  0.00  0.00    -0.220 OA
ATOM     53  C   UNL     1      -6.191  18.773  69.981  0.00  0.00    +0.097 C 
ATOM     54  C   UNL     1      -6.162  20.090  68.974  0.00  0.00    +0.238 C 
ATOM     55  O   UNL     1      -4.632  20.163  68.980  0.00  0.00    -0.330 OA
ENDBRANCH  46  54
ENDBRANCH  38  46
ENDBRANCH  37  42
ENDBRANCH  29  37
ENDBRANCH   1  33
TORSDOF 7
ENDMDL
MODEL 8
REMARK VINA RESULT:      -8.8      3.314     12.511
REMARK  Name = 
REMARK  7 active torsions:
REMARK  status: ('A' for Active; 'I' for Inactive)
REMARK    1  A    between atoms: C_4  and  O_5
REMARK    2  A    between atoms: O_5  and  C_6
REMARK    3  A    between atoms: C_10  and  O_11
REMARK    4  A    between atoms: O_11  and  C_12
REMARK    5  A    between atoms: C_16  and  O_17
REMARK    6  A    between atoms: O_17  and  C_18
REMARK    7  A    between atoms: C_33  and  C_34
REMARK                            x       y       z     vdW  Elec       q    Type
REMARK                         _______ _______ _______ _____ _____    ______ ____
ROOT
ATOM      1  O   UNL     1     -11.112  13.059  67.432  0.00  0.00    -0.333 OA
ENDROOT
BRANCH   1   2
ATOM      2  C   UNL     1     -10.216  14.248  67.165  0.00  0.00    +0.118 C 
ATOM      3  C   UNL     1     -11.365  15.346  67.613  0.00  0.00    +0.030 C 
ATOM      4  C   UNL     1     -10.411  16.665  67.854  0.00  0.00    +0.002 C 
ATOM      5  C   UNL     1      -9.325  15.743  68.641  0.00  0.00    +0.000 C 
ATOM      6  C   UNL     1      -7.943  16.012  68.375  0.00  0.00    +0.002 C 
ATOM      7  C   UNL     1      -8.196  17.557  67.961  0.00  0.00    +0.028 C 
ATOM      8  C   UNL     1      -6.639  17.904  67.993  0.00  0.00    +0.129 C 
ATOM      9  C   UNL     1      -6.612  19.188  67.373  0.00  0.00    +0.057 C 
ATOM     10  C   UNL     1      -5.044  19.588  67.379  0.00  0.00    +0.027 C 
ATOM     11  C   UNL     1      -4.513  18.048  67.542  0.00  0.00    +0.007 C 
ATOM     12  C   UNL     1      -7.511  20.167  67.800  0.00  0.00    +0.005 C 
ATOM     13  C   UNL     1      -6.739  18.863  65.770  0.00  0.00    +0.154 C 
ATOM     14  O   UNL     1      -6.932  20.324  65.409  0.00  0.00    -0.223 OA
ATOM     15  C   UNL     1      -8.362  18.607  65.879  0.00  0.00    +0.033 C 
ATOM     16  O   UNL     1      -6.377  17.731  69.311  0.00  0.00    -0.226 OA
ATOM     17  C   UNL     1      -5.730  17.208  67.139  0.00  0.00    +0.031 C 
ATOM     18  C   UNL     1      -8.274  17.052  66.347  0.00  0.00    +0.005 C 
ATOM     19  C   UNL     1      -9.837  16.701  66.352  0.00  0.00    +0.000 C 
ATOM     20  C   UNL     1     -10.624  17.940  65.906  0.00  0.00    +0.000 C 
ATOM     21  C   UNL     1     -10.237  15.760  65.409  0.00  0.00    +0.002 C 
ATOM     22  C   UNL     1     -10.679  14.387  65.594  0.00  0.00    +0.030 C 
BRANCH  10  23
ATOM     23  C   UNL     1      -5.045  19.839  68.961  0.00  0.00    +0.005 C 
ATOM     24  C   UNL     1      -5.389  21.182  69.532  0.00  0.00    +0.231 C 
ATOM     25  O   UNL     1      -5.536  20.780  70.877  0.00  0.00    -0.441 OA
ATOM     26  C   UNL     1      -4.442  19.928  71.089  0.00  0.00    +0.341 C 
ATOM     27  O   UNL     1      -4.428  19.276  72.185  0.00  0.00    -0.245 OA
ATOM     28  C   UNL     1      -4.029  19.464  69.750  0.00  0.00    +0.077 C 
ENDBRANCH  10  23
ENDBRANCH   1   2
BRANCH   1  33
ATOM     29  C   UNL     1      -9.624   9.447  67.851  0.00  0.00    +0.175 C 
ATOM     30  C   UNL     1      -8.684  10.330  66.730  0.00  0.00    +0.186 C 
ATOM     31  O   UNL     1      -9.569  10.203  65.508  0.00  0.00    -0.220 OA
ATOM     32  C   UNL     1      -9.069  11.837  67.225  0.00  0.00    +0.097 C 
ATOM     33  C   UNL     1     -10.405  12.226  66.344  0.00  0.00    +0.238 C 
ATOM     34  O   UNL     1     -11.129  10.986  66.684  0.00  0.00    -0.330 OA
ATOM     35  C   UNL     1     -11.064  10.374  68.004  0.00  0.00    +0.147 C 
ATOM     36  C   UNL     1     -10.388  11.512  68.990  0.00  0.00    +0.035 C 
BRANCH  29  37
ATOM     37  O   UNL     1     -10.257   8.531  66.842  0.00  0.00    -0.328 OA
BRANCH  37  42
ATOM     38  C   UNL     1      -9.611   4.940  65.517  0.00  0.00    +0.175 C 
ATOM     39  C   UNL     1     -10.269   4.802  67.092  0.00  0.00    +0.186 C 
ATOM     40  O   UNL     1      -9.064   5.160  67.917  0.00  0.00    -0.220 OA
ATOM     41  C   UNL     1     -10.840   6.334  66.980  0.00  0.00    +0.097 C 
ATOM     42  C   UNL     1      -9.494   7.267  67.231  0.00  0.00    +0.238 C 
ATOM     43  O   UNL     1      -9.005   7.101  65.789  0.00  0.00    -0.330 OA
ATOM     44  C   UNL     1      -8.220   5.826  65.964  0.00  0.00    +0.147 C 
ATOM     45  C   UNL     1      -7.715   5.852  64.410  0.00  0.00    +0.035 C 
BRANCH  38  46
ATOM     46  O   UNL     1      -8.898   3.645  65.420  0.00  0.00    -0.328 OA
BRANCH  46  54
ATOM     47  C   UNL     1      -8.274   0.875  62.048  0.00  0.00    +0.035 C 
ATOM     48  C   UNL     1      -9.418   1.070  63.210  0.00  0.00    +0.151 C 
ATOM     49  C   UNL     1     -10.446   1.866  62.098  0.00  0.00    +0.209 C 
ATOM     50  O   UNL     1     -11.567   1.947  63.082  0.00  0.00    -0.218 OA
ATOM     51  C   UNL     1      -9.808   3.441  62.302  0.00  0.00    +0.190 C 
ATOM     52  O   UNL     1     -10.993   4.020  61.565  0.00  0.00    -0.220 OA
ATOM     53  C   UNL     1     -10.450   3.809  63.754  0.00  0.00    +0.097 C 
ATOM     54  C   UNL     1      -9.821   2.649  64.757  0.00  0.00    +0.238 C 
ATOM     55  O   UNL     1      -8.713   2.276  63.767  0.00  0.00    -0.330 OA
ENDBRANCH  46  54
ENDBRANCH  38  46
ENDBRANCH  37  42
ENDBRANCH  29  37
ENDBRANCH   1  33
TORSDOF 7
ENDMDL
MODEL 9
REMARK VINA RESULT:      -8.7      1.801      3.318
REMARK  Name = 
REMARK  7 active torsions:
REMARK  status: ('A' for Active; 'I' for Inactive)
REMARK    1  A    between atoms: C_4  and  O_5
REMARK    2  A    between atoms: O_5  and  C_6
REMARK    3  A    between atoms: C_10  and  O_11
REMARK    4  A    between atoms: O_11  and  C_12
REMARK    5  A    between atoms: C_16  and  O_17
REMARK    6  A    between atoms: O_17  and  C_18
REMARK    7  A    between atoms: C_33  and  C_34
REMARK                            x       y       z     vdW  Elec       q    Type
REMARK                         _______ _______ _______ _____ _____    ______ ____
ROOT
ATOM      1  O   UNL     1      -9.614   8.972  67.017  0.00  0.00    -0.333 OA
ENDROOT
BRANCH   1   2
ATOM      2  C   UNL     1      -9.724   8.001  68.172  0.00  0.00    +0.118 C 
ATOM      3  C   UNL     1      -8.463   7.073  67.647  0.00  0.00    +0.030 C 
ATOM      4  C   UNL     1      -8.124   6.254  69.033  0.00  0.00    +0.002 C 
ATOM      5  C   UNL     1      -8.268   7.631  69.889  0.00  0.00    +0.000 C 
ATOM      6  C   UNL     1      -8.933   7.533  71.155  0.00  0.00    +0.002 C 
ATOM      7  C   UNL     1      -8.566   5.970  71.365  0.00  0.00    +0.028 C 
ATOM      8  C   UNL     1      -9.024   5.987  72.894  0.00  0.00    +0.129 C 
ATOM      9  C   UNL     1      -9.043   4.596  73.209  0.00  0.00    +0.057 C 
ATOM     10  C   UNL     1      -9.505   4.556  74.760  0.00  0.00    +0.027 C 
ATOM     11  C   UNL     1     -10.188   6.044  74.734  0.00  0.00    +0.007 C 
ATOM     12  C   UNL     1      -7.946   3.806  72.861  0.00  0.00    +0.005 C 
ATOM     13  C   UNL     1     -10.448   4.055  72.557  0.00  0.00    +0.154 C 
ATOM     14  O   UNL     1     -10.096   2.600  72.807  0.00  0.00    -0.223 OA
ATOM     15  C   UNL     1      -9.812   4.019  71.039  0.00  0.00    +0.033 C 
ATOM     16  O   UNL     1      -8.105   6.835  73.415  0.00  0.00    -0.226 OA
ATOM     17  C   UNL     1     -10.368   6.327  73.238  0.00  0.00    +0.031 C 
ATOM     18  C   UNL     1     -10.071   5.586  70.691  0.00  0.00    +0.005 C 
ATOM     19  C   UNL     1      -9.583   5.590  69.165  0.00  0.00    +0.000 C 
ATOM     20  C   UNL     1      -9.151   4.170  68.781  0.00  0.00    +0.000 C 
ATOM     21  C   UNL     1     -10.575   5.846  68.225  0.00  0.00    +0.002 C 
ATOM     22  C   UNL     1     -10.787   7.019  67.392  0.00  0.00    +0.030 C 
BRANCH  10  23
ATOM     23  C   UNL     1      -8.095   5.126  75.264  0.00  0.00    +0.005 C 
ATOM     24  C   UNL     1      -6.949   4.204  75.558  0.00  0.00    +0.231 C 
ATOM     25  O   UNL     1      -5.940   5.187  75.648  0.00  0.00    -0.441 OA
ATOM     26  C   UNL     1      -6.537   6.206  76.405  0.00  0.00    +0.341 C 
ATOM     27  O   UNL     1      -5.897   7.306  76.490  0.00  0.00    -0.245 OA
ATOM     28  C   UNL     1      -7.992   6.010  76.265  0.00  0.00    +0.077 C 
ENDBRANCH  10  23
ENDBRANCH   1   2
BRANCH   1  33
ATOM     29  C   UNL     1     -10.044  12.690  68.210  0.00  0.00    +0.175 C 
ATOM     30  C   UNL     1     -11.198  11.700  68.990  0.00  0.00    +0.186 C 
ATOM     31  O   UNL     1     -12.212  11.572  67.873  0.00  0.00    -0.220 OA
ATOM     32  C   UNL     1     -10.420  10.270  68.854  0.00  0.00    +0.097 C 
ATOM     33  C   UNL     1     -10.935   9.661  67.413  0.00  0.00    +0.238 C 
ATOM     34  O   UNL     1     -10.634  10.892  66.657  0.00  0.00    -0.330 OA
ATOM     35  C   UNL     1      -9.459  11.712  66.923  0.00  0.00    +0.147 C 
ATOM     36  C   UNL     1      -8.483  10.793  67.885  0.00  0.00    +0.035 C 
BRANCH  29  37
ATOM     37  O   UNL     1     -11.020  13.391  67.307  0.00  0.00    -0.328 OA
BRANCH  37  42
ATOM     38  C   UNL     1      -8.858  16.606  67.543  0.00  0.00    +0.175 C 
ATOM     39  C   UNL     1      -9.021  15.972  69.125  0.00  0.00    +0.186 C 
ATOM     40  O   UNL     1     -10.429  16.397  69.441  0.00  0.00    -0.220 OA
ATOM     41  C   UNL     1      -9.437  14.518  68.492  0.00  0.00    +0.097 C 
ATOM     42  C   UNL     1     -11.012  14.736  68.027  0.00  0.00    +0.238 C 
ATOM     43  O   UNL     1     -10.620  15.446  66.728  0.00  0.00    -0.330 OA
ATOM     44  C   UNL     1     -10.525  16.853  67.260  0.00  0.00    +0.147 C 
ATOM     45  C   UNL     1     -10.203  17.457  65.776  0.00  0.00    +0.035 C 
BRANCH  38  46
ATOM     46  O   UNL     1      -8.583  18.027  67.860  0.00  0.00    -0.328 OA
BRANCH  46  54
ATOM     47  C   UNL     1      -5.884  20.067  70.686  0.00  0.00    +0.035 C 
ATOM     48  C   UNL     1      -5.696  19.047  69.412  0.00  0.00    +0.151 C 
ATOM     49  C   UNL     1      -5.284  20.358  68.392  0.00  0.00    +0.209 C 
ATOM     50  O   UNL     1      -4.972  19.458  67.242  0.00  0.00    -0.218 OA
ATOM     51  C   UNL     1      -6.879  20.798  67.950  0.00  0.00    +0.190 C 
ATOM     52  O   UNL     1      -6.335  21.676  66.848  0.00  0.00    -0.220 OA
ATOM     53  C   UNL     1      -7.216  19.589  66.911  0.00  0.00    +0.097 C 
ATOM     54  C   UNL     1      -7.085  18.228  67.847  0.00  0.00    +0.238 C 
ATOM     55  O   UNL     1      -7.177  19.020  69.155  0.00  0.00    -0.330 OA
ENDBRANCH  46  54
ENDBRANCH  38  46
ENDBRANCH  37  42
ENDBRANCH  29  37
ENDBRANCH   1  33
TORSDOF 7
ENDMDL
