MODEL 1
REMARK VINA RESULT:      -6.5      0.000      0.000
REMARK  Name = 
REMARK  0 active torsions:
REMARK  status: ('A' for Active; 'I' for Inactive)
REMARK                            x       y       z     vdW  Elec       q    Type
REMARK                         _______ _______ _______ _____ _____    ______ ____
ROOT
ATOM      1  C   UNL     1     -11.292  13.617  68.377  0.00  0.00    +0.007 C 
ATOM      2  C   UNL     1     -10.416  12.761  67.536  0.00  0.00    +0.052 C 
ATOM      3  C   UNL     1     -11.046  11.482  67.337  0.00  0.00    +0.150 C 
ATOM      4  O   UNL     1     -12.051  11.115  67.967  0.00  0.00    -0.296 OA
ATOM      5  C   UNL     1     -11.408  11.464  65.862  0.00  0.00    +0.064 C 
ATOM      6  C   UNL     1     -11.809  12.940  65.738  0.00  0.00    +0.008 C 
ATOM      7  C   UNL     1     -10.270  13.358  66.038  0.00  0.00    +0.007 C 
ATOM      8  C   UNL     1     -10.609  14.918  66.557  0.00  0.00    +0.005 C 
ATOM      9  C   UNL     1     -10.606  15.543  65.080  0.00  0.00    +0.025 C 
ATOM     10  C   UNL     1     -10.648  16.996  65.473  0.00  0.00    -0.035 C 
ATOM     11  C   UNL     1     -10.376  17.302  66.752  0.00  0.00    -0.047 C 
ATOM     12  C   UNL     1      -9.191  16.686  67.358  0.00  0.00    +0.015 C 
ATOM     13  C   UNL     1      -9.056  16.765  68.803  0.00  0.00    +0.004 C 
ATOM     14  C   UNL     1      -8.035  17.516  66.795  0.00  0.00    +0.006 C 
ATOM     15  C   UNL     1      -8.212  18.905  67.337  0.00  0.00    +0.034 C 
ATOM     16  C   UNL     1      -9.409  19.557  66.411  0.00  0.00    +0.156 C 
ATOM     17  O   UNL     1      -9.547  20.746  67.346  0.00  0.00    -0.223 OA
ATOM     18  C   UNL     1     -10.570  18.715  67.226  0.00  0.00    +0.055 C 
ATOM     19  C   UNL     1      -8.958  15.207  66.762  0.00  0.00    +0.004 C 
ATOM     20  C   UNL     1      -8.893  14.447  68.193  0.00  0.00    +0.001 C 
ATOM     21  C   UNL     1      -9.034  12.947  67.964  0.00  0.00    +0.007 C 
ENDROOT
TORSDOF 0
ENDMDL
MODEL 2
REMARK VINA RESULT:      -6.5      1.430      5.845
REMARK  Name = 
REMARK  0 active torsions:
REMARK  status: ('A' for Active; 'I' for Inactive)
REMARK                            x       y       z     vdW  Elec       q    Type
REMARK                         _______ _______ _______ _____ _____    ______ ____
ROOT
ATOM      1  C   UNL     1      -8.473  16.683  68.403  0.00  0.00    +0.007 C 
ATOM      2  C   UNL     1      -9.702  17.511  68.506  0.00  0.00    +0.052 C 
ATOM      3  C   UNL     1      -9.337  18.901  68.598  0.00  0.00    +0.150 C 
ATOM      4  O   UNL     1      -8.171  19.286  68.784  0.00  0.00    -0.296 OA
ATOM      5  C   UNL     1      -9.806  19.502  67.285  0.00  0.00    +0.064 C 
ATOM      6  C   UNL     1      -9.455  18.311  66.383  0.00  0.00    +0.008 C 
ATOM      7  C   UNL     1     -10.583  17.431  67.149  0.00  0.00    +0.007 C 
ATOM      8  C   UNL     1      -9.942  15.933  66.746  0.00  0.00    +0.005 C 
ATOM      9  C   UNL     1     -10.689  15.857  65.328  0.00  0.00    +0.025 C 
ATOM     10  C   UNL     1     -10.372  14.420  65.007  0.00  0.00    -0.035 C 
ATOM     11  C   UNL     1      -9.915  13.646  66.005  0.00  0.00    -0.047 C 
ATOM     12  C   UNL     1     -10.635  13.694  67.282  0.00  0.00    +0.015 C 
ATOM     13  C   UNL     1      -9.986  13.107  68.443  0.00  0.00    +0.004 C 
ATOM     14  C   UNL     1     -11.871  12.829  67.024  0.00  0.00    +0.006 C 
ATOM     15  C   UNL     1     -11.364  11.436  66.784  0.00  0.00    +0.034 C 
ATOM     16  C   UNL     1     -10.800  11.464  65.235  0.00  0.00    +0.156 C 
ATOM     17  O   UNL     1     -10.132  10.112  65.406  0.00  0.00    -0.223 OA
ATOM     18  C   UNL     1      -9.430  12.259  65.694  0.00  0.00    +0.055 C 
ATOM     19  C   UNL     1     -11.222  15.172  67.543  0.00  0.00    +0.004 C 
ATOM     20  C   UNL     1     -10.564  15.368  69.012  0.00  0.00    +0.001 C 
ATOM     21  C   UNL     1     -10.642  16.840  69.398  0.00  0.00    +0.007 C 
ENDROOT
TORSDOF 0
ENDMDL
MODEL 3
REMARK VINA RESULT:      -6.3      1.777      5.688
REMARK  Name = 
REMARK  0 active torsions:
REMARK  status: ('A' for Active; 'I' for Inactive)
REMARK                            x       y       z     vdW  Elec       q    Type
REMARK                         _______ _______ _______ _____ _____    ______ ____
ROOT
ATOM      1  C   UNL     1      -7.080  15.908  67.242  0.00  0.00    +0.007 C 
ATOM      2  C   UNL     1      -7.799  16.731  68.248  0.00  0.00    +0.052 C 
ATOM      3  C   UNL     1      -7.011  17.893  68.568  0.00  0.00    +0.150 C 
ATOM      4  O   UNL     1      -5.830  18.032  68.209  0.00  0.00    -0.296 OA
ATOM      5  C   UNL     1      -7.798  19.055  67.988  0.00  0.00    +0.064 C 
ATOM      6  C   UNL     1      -8.285  18.350  66.714  0.00  0.00    +0.008 C 
ATOM      7  C   UNL     1      -9.167  17.347  67.637  0.00  0.00    +0.007 C 
ATOM      8  C   UNL     1      -9.287  16.120  66.499  0.00  0.00    +0.005 C 
ATOM      9  C   UNL     1     -10.569  16.752  65.770  0.00  0.00    +0.025 C 
ATOM     10  C   UNL     1     -10.903  15.577  64.889  0.00  0.00    -0.035 C 
ATOM     11  C   UNL     1     -10.322  14.401  65.175  0.00  0.00    -0.047 C 
ATOM     12  C   UNL     1     -10.339  13.959  66.573  0.00  0.00    +0.015 C 
ATOM     13  C   UNL     1      -9.465  12.858  66.942  0.00  0.00    +0.004 C 
ATOM     14  C   UNL     1     -11.763  13.430  66.759  0.00  0.00    +0.006 C 
ATOM     15  C   UNL     1     -11.889  12.239  65.854  0.00  0.00    +0.034 C 
ATOM     16  C   UNL     1     -12.100  12.884  64.352  0.00  0.00    +0.156 C 
ATOM     17  O   UNL     1     -11.894  11.532  63.693  0.00  0.00    -0.223 OA
ATOM     18  C   UNL     1     -10.496  13.248  64.227  0.00  0.00    +0.055 C 
ATOM     19  C   UNL     1     -10.244  15.226  67.565  0.00  0.00    +0.004 C 
ATOM     20  C   UNL     1      -8.976  14.687  68.420  0.00  0.00    +0.001 C 
ATOM     21  C   UNL     1      -8.401  15.840  69.234  0.00  0.00    +0.007 C 
ENDROOT
TORSDOF 0
ENDMDL
MODEL 4
REMARK VINA RESULT:      -6.3      1.387      2.443
REMARK  Name = 
REMARK  0 active torsions:
REMARK  status: ('A' for Active; 'I' for Inactive)
REMARK                            x       y       z     vdW  Elec       q    Type
REMARK                         _______ _______ _______ _____ _____    ______ ____
ROOT
ATOM      1  C   UNL     1     -11.304  14.755  65.976  0.00  0.00    +0.007 C 
ATOM      2  C   UNL     1     -11.248  13.958  67.228  0.00  0.00    +0.052 C 
ATOM      3  C   UNL     1     -11.687  12.613  66.960  0.00  0.00    +0.150 C 
ATOM      4  O   UNL     1     -12.229  12.275  65.894  0.00  0.00    -0.296 OA
ATOM      5  C   UNL     1     -10.435  11.769  67.116  0.00  0.00    +0.064 C 
ATOM      6  C   UNL     1      -9.444  12.766  66.500  0.00  0.00    +0.008 C 
ATOM      7  C   UNL     1      -9.724  13.773  67.741  0.00  0.00    +0.007 C 
ATOM      8  C   UNL     1      -9.221  15.167  66.954  0.00  0.00    +0.005 C 
ATOM      9  C   UNL     1      -7.673  14.967  67.324  0.00  0.00    +0.025 C 
ATOM     10  C   UNL     1      -7.179  16.316  66.873  0.00  0.00    -0.035 C 
ATOM     11  C   UNL     1      -8.097  17.269  66.643  0.00  0.00    -0.047 C 
ATOM     12  C   UNL     1      -9.138  17.465  67.657  0.00  0.00    +0.015 C 
ATOM     13  C   UNL     1     -10.293  18.267  67.289  0.00  0.00    +0.004 C 
ATOM     14  C   UNL     1      -8.420  18.261  68.750  0.00  0.00    +0.006 C 
ATOM     15  C   UNL     1      -8.059  19.583  68.138  0.00  0.00    +0.034 C 
ATOM     16  C   UNL     1      -6.735  19.259  67.211  0.00  0.00    +0.156 C 
ATOM     17  O   UNL     1      -6.812  20.621  66.545  0.00  0.00    -0.223 OA
ATOM     18  C   UNL     1      -7.664  18.573  66.033  0.00  0.00    +0.055 C 
ATOM     19  C   UNL     1      -9.514  16.063  68.356  0.00  0.00    +0.004 C 
ATOM     20  C   UNL     1     -11.112  16.156  68.091  0.00  0.00    +0.001 C 
ATOM     21  C   UNL     1     -11.734  14.785  68.328  0.00  0.00    +0.007 C 
ENDROOT
TORSDOF 0
ENDMDL
MODEL 5
REMARK VINA RESULT:      -6.2      1.198      2.360
REMARK  Name = 
REMARK  0 active torsions:
REMARK  status: ('A' for Active; 'I' for Inactive)
REMARK                            x       y       z     vdW  Elec       q    Type
REMARK                         _______ _______ _______ _____ _____    ______ ____
ROOT
ATOM      1  C   UNL     1      -9.130  12.688  67.838  0.00  0.00    +0.007 C 
ATOM      2  C   UNL     1     -10.465  12.340  67.286  0.00  0.00    +0.052 C 
ATOM      3  C   UNL     1     -10.834  11.019  67.725  0.00  0.00    +0.150 C 
ATOM      4  O   UNL     1     -10.043  10.243  68.286  0.00  0.00    -0.296 OA
ATOM      5  C   UNL     1     -11.993  11.249  68.680  0.00  0.00    +0.064 C 
ATOM      6  C   UNL     1     -11.464  12.536  69.328  0.00  0.00    +0.008 C 
ATOM      7  C   UNL     1     -11.623  13.291  67.900  0.00  0.00    +0.007 C 
ATOM      8  C   UNL     1     -10.529  14.520  68.228  0.00  0.00    +0.005 C 
ATOM      9  C   UNL     1     -11.607  15.452  68.964  0.00  0.00    +0.025 C 
ATOM     10  C   UNL     1     -10.766  16.697  69.066  0.00  0.00    -0.035 C 
ATOM     11  C   UNL     1      -9.649  16.756  68.322  0.00  0.00    -0.047 C 
ATOM     12  C   UNL     1      -9.758  16.377  66.909  0.00  0.00    +0.015 C 
ATOM     13  C   UNL     1      -8.523  16.146  66.178  0.00  0.00    +0.004 C 
ATOM     14  C   UNL     1     -10.392  17.609  66.260  0.00  0.00    +0.006 C 
ATOM     15  C   UNL     1      -9.393  18.721  66.407  0.00  0.00    +0.034 C 
ATOM     16  C   UNL     1      -9.547  19.207  67.975  0.00  0.00    +0.156 C 
ATOM     17  O   UNL     1      -8.288  20.050  67.884  0.00  0.00    -0.223 OA
ATOM     18  C   UNL     1      -8.697  17.901  68.517  0.00  0.00    +0.055 C 
ATOM     19  C   UNL     1     -10.854  15.210  66.721  0.00  0.00    +0.004 C 
ATOM     20  C   UNL     1      -9.884  14.183  65.923  0.00  0.00    +0.001 C 
ATOM     21  C   UNL     1     -10.532  12.804  65.905  0.00  0.00    +0.007 C 
ENDROOT
TORSDOF 0
ENDMDL
MODEL 6
REMARK VINA RESULT:      -6.1      2.160      3.698
REMARK  Name = 
REMARK  0 active torsions:
REMARK  status: ('A' for Active; 'I' for Inactive)
REMARK                            x       y       z     vdW  Elec       q    Type
REMARK                         _______ _______ _______ _____ _____    ______ ____
ROOT
ATOM      1  C   UNL     1      -8.875  15.111  68.322  0.00  0.00    +0.007 C 
ATOM      2  C   UNL     1     -10.216  15.306  67.714  0.00  0.00    +0.052 C 
ATOM      3  C   UNL     1     -11.154  14.401  68.327  0.00  0.00    +0.150 C 
ATOM      4  O   UNL     1     -10.812  13.472  69.077  0.00  0.00    -0.296 OA
ATOM      5  C   UNL     1     -12.084  15.302  69.121  0.00  0.00    +0.064 C 
ATOM      6  C   UNL     1     -11.027  16.309  69.597  0.00  0.00    +0.008 C 
ATOM      7  C   UNL     1     -10.812  16.772  68.057  0.00  0.00    +0.007 C 
ATOM      8  C   UNL     1      -9.277  17.414  68.278  0.00  0.00    +0.005 C 
ATOM      9  C   UNL     1      -9.811  18.851  68.751  0.00  0.00    +0.025 C 
ATOM     10  C   UNL     1      -8.493  19.578  68.725  0.00  0.00    -0.035 C 
ATOM     11  C   UNL     1      -7.469  18.987  68.086  0.00  0.00    -0.047 C 
ATOM     12  C   UNL     1      -7.731  18.441  66.750  0.00  0.00    +0.015 C 
ATOM     13  C   UNL     1      -6.735  17.546  66.183  0.00  0.00    +0.004 C 
ATOM     14  C   UNL     1      -7.723  19.681  65.853  0.00  0.00    +0.006 C 
ATOM     15  C   UNL     1      -6.326  20.230  65.908  0.00  0.00    +0.034 C 
ATOM     16  C   UNL     1      -6.250  21.016  67.355  0.00  0.00    +0.156 C 
ATOM     17  O   UNL     1      -4.743  21.168  67.244  0.00  0.00    -0.223 OA
ATOM     18  C   UNL     1      -6.098  19.595  68.178  0.00  0.00    +0.055 C 
ATOM     19  C   UNL     1      -9.239  17.881  66.656  0.00  0.00    +0.004 C 
ATOM     20  C   UNL     1      -8.845  16.399  66.128  0.00  0.00    +0.001 C 
ATOM     21  C   UNL     1     -10.054  15.483  66.275  0.00  0.00    +0.007 C 
ENDROOT
TORSDOF 0
ENDMDL
MODEL 7
REMARK VINA RESULT:      -6.0      3.951      6.359
REMARK  Name = 
REMARK  0 active torsions:
REMARK  status: ('A' for Active; 'I' for Inactive)
REMARK                            x       y       z     vdW  Elec       q    Type
REMARK                         _______ _______ _______ _____ _____    ______ ____
ROOT
ATOM      1  C   UNL     1      -8.741  17.841  68.474  0.00  0.00    +0.007 C 
ATOM      2  C   UNL     1      -8.809  18.124  67.017  0.00  0.00    +0.052 C 
ATOM      3  C   UNL     1     -10.183  18.322  66.632  0.00  0.00    +0.150 C 
ATOM      4  O   UNL     1     -11.141  18.068  67.379  0.00  0.00    -0.296 OA
ATOM      5  C   UNL     1     -10.267  19.797  66.279  0.00  0.00    +0.064 C 
ATOM      6  C   UNL     1      -9.326  20.318  67.374  0.00  0.00    +0.008 C 
ATOM      7  C   UNL     1      -8.099  19.535  66.657  0.00  0.00    +0.007 C 
ATOM      8  C   UNL     1      -7.118  19.461  68.017  0.00  0.00    +0.005 C 
ATOM      9  C   UNL     1      -6.473  20.911  67.783  0.00  0.00    +0.025 C 
ATOM     10  C   UNL     1      -5.386  20.821  68.821  0.00  0.00    -0.035 C 
ATOM     11  C   UNL     1      -5.107  19.608  69.326  0.00  0.00    -0.047 C 
ATOM     12  C   UNL     1      -4.943  18.501  68.378  0.00  0.00    +0.015 C 
ATOM     13  C   UNL     1      -4.945  17.150  68.914  0.00  0.00    +0.004 C 
ATOM     14  C   UNL     1      -3.534  18.719  67.822  0.00  0.00    +0.006 C 
ATOM     15  C   UNL     1      -2.594  18.534  68.978  0.00  0.00    +0.034 C 
ATOM     16  C   UNL     1      -2.704  19.943  69.827  0.00  0.00    +0.156 C 
ATOM     17  O   UNL     1      -1.938  19.350  70.996  0.00  0.00    -0.223 OA
ATOM     18  C   UNL     1      -4.151  19.496  70.480  0.00  0.00    +0.055 C 
ATOM     19  C   UNL     1      -5.916  18.699  67.108  0.00  0.00    +0.004 C 
ATOM     20  C   UNL     1      -6.623  17.242  67.198  0.00  0.00    +0.001 C 
ATOM     21  C   UNL     1      -7.873  17.243  66.327  0.00  0.00    +0.007 C 
ENDROOT
TORSDOF 0
ENDMDL
MODEL 8
REMARK VINA RESULT:      -6.0      3.050      4.959
REMARK  Name = 
REMARK  0 active torsions:
REMARK  status: ('A' for Active; 'I' for Inactive)
REMARK                            x       y       z     vdW  Elec       q    Type
REMARK                         _______ _______ _______ _____ _____    ______ ____
ROOT
ATOM      1  C   UNL     1      -7.842  10.376  66.165  0.00  0.00    +0.007 C 
ATOM      2  C   UNL     1      -8.759   9.482  66.916  0.00  0.00    +0.052 C 
ATOM      3  C   UNL     1      -7.989   8.600  67.754  0.00  0.00    +0.150 C 
ATOM      4  O   UNL     1      -6.755   8.485  67.666  0.00  0.00    -0.296 OA
ATOM      5  C   UNL     1      -8.299   9.057  69.169  0.00  0.00    +0.064 C 
ATOM      6  C   UNL     1      -8.354  10.564  68.884  0.00  0.00    +0.008 C 
ATOM      7  C   UNL     1      -9.668  10.316  67.965  0.00  0.00    +0.007 C 
ATOM      8  C   UNL     1      -9.524  11.727  67.067  0.00  0.00    +0.005 C 
ATOM      9  C   UNL     1     -10.307  12.633  68.134  0.00  0.00    +0.025 C 
ATOM     10  C   UNL     1     -10.449  13.870  67.286  0.00  0.00    -0.035 C 
ATOM     11  C   UNL     1     -10.214  13.751  65.969  0.00  0.00    -0.047 C 
ATOM     12  C   UNL     1     -10.842  12.626  65.268  0.00  0.00    +0.015 C 
ATOM     13  C   UNL     1     -10.361  12.313  63.932  0.00  0.00    +0.004 C 
ATOM     14  C   UNL     1     -12.289  13.088  65.083  0.00  0.00    +0.006 C 
ATOM     15  C   UNL     1     -12.235  14.281  64.173  0.00  0.00    +0.034 C 
ATOM     16  C   UNL     1     -11.742  15.518  65.145  0.00  0.00    +0.156 C 
ATOM     17  O   UNL     1     -11.507  16.424  63.949  0.00  0.00    -0.223 OA
ATOM     18  C   UNL     1     -10.180  14.987  65.115  0.00  0.00    +0.055 C 
ATOM     19  C   UNL     1     -10.946  11.344  66.240  0.00  0.00    +0.004 C 
ATOM     20  C   UNL     1     -10.210  10.303  65.238  0.00  0.00    +0.001 C 
ATOM     21  C   UNL     1      -9.827   9.052  66.020  0.00  0.00    +0.007 C 
ENDROOT
TORSDOF 0
ENDMDL
MODEL 9
REMARK VINA RESULT:      -6.0      3.048      6.780
REMARK  Name = 
REMARK  0 active torsions:
REMARK  status: ('A' for Active; 'I' for Inactive)
REMARK                            x       y       z     vdW  Elec       q    Type
REMARK                         _______ _______ _______ _____ _____    ______ ____
ROOT
ATOM      1  C   UNL     1     -11.822  12.191  65.789  0.00  0.00    +0.007 C 
ATOM      2  C   UNL     1     -10.598  13.025  65.899  0.00  0.00    +0.052 C 
ATOM      3  C   UNL     1     -10.697  14.142  64.997  0.00  0.00    +0.150 C 
ATOM      4  O   UNL     1     -11.577  14.236  64.125  0.00  0.00    -0.296 OA
ATOM      5  C   UNL     1     -10.835  15.351  65.907  0.00  0.00    +0.064 C 
ATOM      6  C   UNL     1     -11.719  14.695  66.976  0.00  0.00    +0.008 C 
ATOM      7  C   UNL     1     -10.484  13.714  67.360  0.00  0.00    +0.007 C 
ATOM      8  C   UNL     1     -11.422  12.517  68.069  0.00  0.00    +0.005 C 
ATOM      9  C   UNL     1     -11.453  13.222  69.510  0.00  0.00    +0.025 C 
ATOM     10  C   UNL     1     -12.063  12.082  70.282  0.00  0.00    -0.035 C 
ATOM     11  C   UNL     1     -12.085  10.875  69.694  0.00  0.00    -0.047 C 
ATOM     12  C   UNL     1     -10.847  10.405  69.064  0.00  0.00    +0.015 C 
ATOM     13  C   UNL     1     -10.937   9.258  68.176  0.00  0.00    +0.004 C 
ATOM     14  C   UNL     1     -10.002   9.937  70.251  0.00  0.00    +0.006 C 
ATOM     15  C   UNL     1     -10.733   8.772  70.853  0.00  0.00    +0.034 C 
ATOM     16  C   UNL     1     -11.955   9.457  71.722  0.00  0.00    +0.156 C 
ATOM     17  O   UNL     1     -12.627   8.111  71.923  0.00  0.00    -0.223 OA
ATOM     18  C   UNL     1     -12.831   9.750  70.356  0.00  0.00    +0.055 C 
ATOM     19  C   UNL     1     -10.025  11.646  68.445  0.00  0.00    +0.004 C 
ATOM     20  C   UNL     1      -9.878  11.032  66.950  0.00  0.00    +0.001 C 
ATOM     21  C   UNL     1      -9.441  12.141  66.001  0.00  0.00    +0.007 C 
ENDROOT
TORSDOF 0
ENDMDL
