MODEL 1
REMARK VINA RESULT:      -5.7      0.000      0.000
REMARK  Name = 
REMARK  11 active torsions:
REMARK  status: ('A' for Active; 'I' for Inactive)
REMARK    1  A    between atoms: O_2  and  C_3
REMARK    2  A    between atoms: C_3  and  C_4
REMARK    3  A    between atoms: N_6  and  C_7
REMARK    4  A    between atoms: C_10  and  C_11
REMARK    5  A    between atoms: N_13  and  C_14
REMARK    6  A    between atoms: C_14  and  C_15
REMARK    7  A    between atoms: C_15  and  C_17
REMARK    8  A    between atoms: C_21  and  C_22
REMARK    9  A    between atoms: N_24  and  C_26
REMARK   10  A    between atoms: C_26  and  C_27
REMARK   11  A    between atoms: C_27  and  C_29
REMARK                            x       y       z     vdW  Elec       q    Type
REMARK                         _______ _______ _______ _____ _____    ______ ____
ROOT
ATOM      1  C   UNL     1     -10.064  10.873  65.876  0.00  0.00    +0.084 A 
ATOM      2  C   UNL     1     -10.571  12.130  65.559  0.00  0.00    +0.051 A 
ATOM      3  I   UNL     1     -11.674  12.451  63.771  0.00  0.00    -0.041 I 
ATOM      4  C   UNL     1     -10.626  13.054  66.597  0.00  0.00    +0.066 A 
ATOM      5  C   UNL     1     -10.674  12.532  67.884  0.00  0.00    +0.040 A 
ATOM      6  I   UNL     1     -11.093  13.829  69.505  0.00  0.00    -0.042 I 
ATOM      7  C   UNL     1     -10.776  11.167  68.134  0.00  0.00    +0.067 A 
ATOM      8  C   UNL     1     -10.244  10.361  67.161  0.00  0.00    +0.051 A 
ATOM      9  I   UNL     1     -10.109   8.307  67.575  0.00  0.00    -0.041 I 
ENDROOT
BRANCH   4  10
ATOM     10  C   UNL     1     -11.157  14.371  66.345  0.00  0.00    +0.250 C 
ATOM     11  N   UNL     1     -10.368  15.539  66.269  0.00  0.00    -0.272 N 
ATOM     12  C   UNL     1      -8.923  15.496  66.168  0.00  0.00    +0.115 C 
ATOM     13  O   UNL     1     -12.418  14.481  66.381  0.00  0.00    -0.270 OA
BRANCH  11  14
ATOM     14  C   UNL     1     -10.951  16.803  66.697  0.00  0.00    +0.129 C 
BRANCH  14  15
ATOM     15  C   UNL     1      -9.691  17.852  66.486  0.00  0.00    +0.204 C 
ATOM     16  O   UNL     1     -10.500  18.754  65.565  0.00  0.00    -0.218 OA
BRANCH  15  17
ATOM     17  C   UNL     1     -10.061  18.754  67.823  0.00  0.00    +0.217 C 
ATOM     18  O   UNL     1     -11.134  19.518  67.446  0.00  0.00    -0.218 OA
ENDBRANCH  15  17
ENDBRANCH  14  15
ENDBRANCH  11  14
ENDBRANCH   4  10
BRANCH   7  19
ATOM     19  C   UNL     1     -11.526  10.711  69.292  0.00  0.00    +0.266 C 
ATOM     20  N   UNL     1     -10.987   9.975  70.360  0.00  0.00    -0.199 NA
ATOM     21  O   UNL     1     -12.761  10.472  69.117  0.00  0.00    -0.268 OA
BRANCH  20  22
ATOM     22  C   UNL     1     -11.653   9.568  71.542  0.00  0.00    +0.151 C 
BRANCH  22  23
ATOM     23  C   UNL     1     -11.802   7.927  71.490  0.00  0.00    +0.206 C 
ATOM     24  O   UNL     1     -11.486   7.749  72.967  0.00  0.00    -0.218 OA
BRANCH  23  25
ATOM     25  C   UNL     1     -13.426   8.017  71.775  0.00  0.00    +0.217 C 
ATOM     26  O   UNL     1     -13.588   9.212  72.473  0.00  0.00    -0.218 OA
ENDBRANCH  23  25
ENDBRANCH  22  23
ENDBRANCH  20  22
ENDBRANCH   7  19
BRANCH   1  28
ATOM     27  C   UNL     1      -8.630   9.641  64.214  0.00  0.00    +0.276 C 
ATOM     28  N   UNL     1      -9.907   9.989  64.766  0.00  0.00    -0.176 NA
ATOM     29  O   UNL     1      -7.608  10.184  64.701  0.00  0.00    -0.270 OA
BRANCH  27  30
ATOM     30  C   UNL     1      -8.517   8.796  62.981  0.00  0.00    +0.229 C 
BRANCH  30  32
ATOM     31  C   UNL     1      -8.590  10.224  61.311  0.00  0.00    +0.175 C 
ATOM     32  O   UNL     1      -9.232   9.489  62.004  0.00  0.00    -0.342 OA
ENDBRANCH  30  32
ENDBRANCH  27  30
ENDBRANCH   1  28
TORSDOF 11
ENDMDL
MODEL 2
REMARK VINA RESULT:      -5.2      2.376      2.851
REMARK  Name = 
REMARK  11 active torsions:
REMARK  status: ('A' for Active; 'I' for Inactive)
REMARK    1  A    between atoms: O_2  and  C_3
REMARK    2  A    between atoms: C_3  and  C_4
REMARK    3  A    between atoms: N_6  and  C_7
REMARK    4  A    between atoms: C_10  and  C_11
REMARK    5  A    between atoms: N_13  and  C_14
REMARK    6  A    between atoms: C_14  and  C_15
REMARK    7  A    between atoms: C_15  and  C_17
REMARK    8  A    between atoms: C_21  and  C_22
REMARK    9  A    between atoms: N_24  and  C_26
REMARK   10  A    between atoms: C_26  and  C_27
REMARK   11  A    between atoms: C_27  and  C_29
REMARK                            x       y       z     vdW  Elec       q    Type
REMARK                         _______ _______ _______ _____ _____    ______ ____
ROOT
ATOM      1  C   UNL     1      -8.610   9.821  65.395  0.00  0.00    +0.084 A 
ATOM      2  C   UNL     1      -9.465  10.919  65.350  0.00  0.00    +0.051 A 
ATOM      3  I   UNL     1     -10.198  11.665  63.500  0.00  0.00    -0.041 I 
ATOM      4  C   UNL     1     -10.078  11.275  66.547  0.00  0.00    +0.066 A 
ATOM      5  C   UNL     1     -10.204  10.268  67.497  0.00  0.00    +0.040 A 
ATOM      6  I   UNL     1     -11.408  10.612  69.204  0.00  0.00    -0.042 I 
ATOM      7  C   UNL     1      -9.847   8.948  67.240  0.00  0.00    +0.067 A 
ATOM      8  C   UNL     1      -8.859   8.790  66.302  0.00  0.00    +0.051 A 
ATOM      9  I   UNL     1      -8.069   6.862  66.047  0.00  0.00    -0.041 I 
ENDROOT
BRANCH   4  10
ATOM     10  C   UNL     1     -10.989  12.391  66.570  0.00  0.00    +0.250 C 
ATOM     11  N   UNL     1     -10.694  13.640  67.159  0.00  0.00    -0.272 N 
ATOM     12  C   UNL     1      -9.352  14.012  67.560  0.00  0.00    +0.115 C 
ATOM     13  O   UNL     1     -12.176  12.151  66.199  0.00  0.00    -0.270 OA
BRANCH  11  14
ATOM     14  C   UNL     1     -11.783  14.410  67.746  0.00  0.00    +0.129 C 
BRANCH  14  15
ATOM     15  C   UNL     1     -11.039  15.130  69.035  0.00  0.00    +0.204 C 
ATOM     16  O   UNL     1     -11.688  16.477  68.750  0.00  0.00    -0.218 OA
BRANCH  15  17
ATOM     17  C   UNL     1     -12.222  14.701  70.109  0.00  0.00    +0.217 C 
ATOM     18  O   UNL     1     -12.759  15.887  70.535  0.00  0.00    -0.218 OA
ENDBRANCH  15  17
ENDBRANCH  14  15
ENDBRANCH  11  14
ENDBRANCH   4  10
BRANCH   7  19
ATOM     19  C   UNL     1     -10.604   7.874  67.858  0.00  0.00    +0.266 C 
ATOM     20  N   UNL     1     -10.225   7.190  69.025  0.00  0.00    -0.199 NA
ATOM     21  O   UNL     1     -11.312   7.154  67.087  0.00  0.00    -0.268 OA
BRANCH  20  22
ATOM     22  C   UNL     1     -10.958   6.188  69.707  0.00  0.00    +0.151 C 
BRANCH  22  23
ATOM     23  C   UNL     1     -10.722   6.413  71.323  0.00  0.00    +0.206 C 
ATOM     24  O   UNL     1      -9.893   7.674  71.130  0.00  0.00    -0.218 OA
BRANCH  23  25
ATOM     25  C   UNL     1     -12.127   7.272  71.458  0.00  0.00    +0.217 C 
ATOM     26  O   UNL     1     -11.813   8.309  72.333  0.00  0.00    -0.218 OA
ENDBRANCH  23  25
ENDBRANCH  22  23
ENDBRANCH  20  22
ENDBRANCH   7  19
BRANCH   1  28
ATOM     27  C   UNL     1      -6.540   9.941  63.969  0.00  0.00    +0.276 C 
ATOM     28  N   UNL     1      -7.904   9.556  64.183  0.00  0.00    -0.176 NA
ATOM     29  O   UNL     1      -5.958  10.587  64.875  0.00  0.00    -0.270 OA
BRANCH  27  30
ATOM     30  C   UNL     1      -5.871   9.740  62.642  0.00  0.00    +0.229 C 
BRANCH  30  32
ATOM     31  C   UNL     1      -6.561  11.295  61.250  0.00  0.00    +0.175 C 
ATOM     32  O   UNL     1      -6.788  10.211  61.703  0.00  0.00    -0.342 OA
ENDBRANCH  30  32
ENDBRANCH  27  30
ENDBRANCH   1  28
TORSDOF 11
ENDMDL
MODEL 3
REMARK VINA RESULT:      -5.2      2.828      7.874
REMARK  Name = 
REMARK  11 active torsions:
REMARK  status: ('A' for Active; 'I' for Inactive)
REMARK    1  A    between atoms: O_2  and  C_3
REMARK    2  A    between atoms: C_3  and  C_4
REMARK    3  A    between atoms: N_6  and  C_7
REMARK    4  A    between atoms: C_10  and  C_11
REMARK    5  A    between atoms: N_13  and  C_14
REMARK    6  A    between atoms: C_14  and  C_15
REMARK    7  A    between atoms: C_15  and  C_17
REMARK    8  A    between atoms: C_21  and  C_22
REMARK    9  A    between atoms: N_24  and  C_26
REMARK   10  A    between atoms: C_26  and  C_27
REMARK   11  A    between atoms: C_27  and  C_29
REMARK                            x       y       z     vdW  Elec       q    Type
REMARK                         _______ _______ _______ _____ _____    ______ ____
ROOT
ATOM      1  C   UNL     1      -9.055   8.481  66.373  0.00  0.00    +0.084 A 
ATOM      2  C   UNL     1      -8.789   8.267  67.723  0.00  0.00    +0.051 A 
ATOM      3  I   UNL     1      -6.850   7.702  68.384  0.00  0.00    -0.041 I 
ATOM      4  C   UNL     1      -9.725   8.765  68.623  0.00  0.00    +0.066 A 
ATOM      5  C   UNL     1     -10.511   9.819  68.175  0.00  0.00    +0.040 A 
ATOM      6  I   UNL     1     -11.722  10.861  69.564  0.00  0.00    -0.042 I 
ATOM      7  C   UNL     1     -10.310  10.429  66.940  0.00  0.00    +0.067 A 
ATOM      8  C   UNL     1      -9.757   9.621  65.981  0.00  0.00    +0.051 A 
ATOM      9  I   UNL     1      -9.669  10.369  64.021  0.00  0.00    -0.041 I 
ENDROOT
BRANCH   4  10
ATOM     10  C   UNL     1      -9.505   8.595  70.038  0.00  0.00    +0.250 C 
ATOM     11  N   UNL     1     -10.134   7.604  70.822  0.00  0.00    -0.272 N 
ATOM     12  C   UNL     1     -10.854   6.492  70.236  0.00  0.00    +0.115 C 
ATOM     13  O   UNL     1      -8.850   9.512  70.615  0.00  0.00    -0.270 OA
BRANCH  11  14
ATOM     14  C   UNL     1     -10.418   7.897  72.220  0.00  0.00    +0.129 C 
BRANCH  14  15
ATOM     15  C   UNL     1      -9.274   6.993  73.000  0.00  0.00    +0.204 C 
ATOM     16  O   UNL     1      -8.814   8.172  73.846  0.00  0.00    -0.218 OA
BRANCH  15  17
ATOM     17  C   UNL     1     -10.318   6.463  74.169  0.00  0.00    +0.217 C 
ATOM     18  O   UNL     1     -10.955   5.386  73.610  0.00  0.00    -0.218 OA
ENDBRANCH  15  17
ENDBRANCH  14  15
ENDBRANCH  11  14
ENDBRANCH   4  10
BRANCH   7  19
ATOM     19  C   UNL     1     -10.565  11.853  66.801  0.00  0.00    +0.266 C 
ATOM     20  N   UNL     1     -11.609  12.412  66.048  0.00  0.00    -0.199 NA
ATOM     21  O   UNL     1      -9.560  12.626  66.879  0.00  0.00    -0.268 OA
BRANCH  20  22
ATOM     22  C   UNL     1     -11.946  13.784  65.936  0.00  0.00    +0.151 C 
BRANCH  22  23
ATOM     23  C   UNL     1     -11.354  14.326  64.496  0.00  0.00    +0.206 C 
ATOM     24  O   UNL     1     -12.689  14.900  64.047  0.00  0.00    -0.218 OA
BRANCH  23  25
ATOM     25  C   UNL     1     -10.884  15.758  65.173  0.00  0.00    +0.217 C 
ATOM     26  O   UNL     1     -11.282  16.722  64.249  0.00  0.00    -0.218 OA
ENDBRANCH  23  25
ENDBRANCH  22  23
ENDBRANCH  20  22
ENDBRANCH   7  19
BRANCH   1  28
ATOM     27  C   UNL     1      -8.266   6.488  65.052  0.00  0.00    +0.276 C 
ATOM     28  N   UNL     1      -8.142   7.854  65.472  0.00  0.00    -0.176 NA
ATOM     29  O   UNL     1      -9.195   5.800  65.544  0.00  0.00    -0.270 OA
BRANCH  27  30
ATOM     30  C   UNL     1      -7.225   5.839  64.191  0.00  0.00    +0.229 C 
BRANCH  30  32
ATOM     31  C   UNL     1      -7.858   6.319  62.141  0.00  0.00    +0.175 C 
ATOM     32  O   UNL     1      -7.893   5.500  63.014  0.00  0.00    -0.342 OA
ENDBRANCH  30  32
ENDBRANCH  27  30
ENDBRANCH   1  28
TORSDOF 11
ENDMDL
MODEL 4
REMARK VINA RESULT:      -5.1      3.720      6.499
REMARK  Name = 
REMARK  11 active torsions:
REMARK  status: ('A' for Active; 'I' for Inactive)
REMARK    1  A    between atoms: O_2  and  C_3
REMARK    2  A    between atoms: C_3  and  C_4
REMARK    3  A    between atoms: N_6  and  C_7
REMARK    4  A    between atoms: C_10  and  C_11
REMARK    5  A    between atoms: N_13  and  C_14
REMARK    6  A    between atoms: C_14  and  C_15
REMARK    7  A    between atoms: C_15  and  C_17
REMARK    8  A    between atoms: C_21  and  C_22
REMARK    9  A    between atoms: N_24  and  C_26
REMARK   10  A    between atoms: C_26  and  C_27
REMARK   11  A    between atoms: C_27  and  C_29
REMARK                            x       y       z     vdW  Elec       q    Type
REMARK                         _______ _______ _______ _____ _____    ______ ____
ROOT
ATOM      1  C   UNL     1      -9.324   9.617  69.148  0.00  0.00    +0.084 A 
ATOM      2  C   UNL     1     -10.272  10.624  68.987  0.00  0.00    +0.051 A 
ATOM      3  I   UNL     1     -11.989  10.725  70.236  0.00  0.00    -0.041 I 
ATOM      4  C   UNL     1      -9.883  11.724  68.232  0.00  0.00    +0.066 A 
ATOM      5  C   UNL     1      -8.516  11.966  68.155  0.00  0.00    +0.040 A 
ATOM      6  I   UNL     1      -7.841  13.790  67.318  0.00  0.00    -0.042 I 
ATOM      7  C   UNL     1      -7.584  11.227  68.878  0.00  0.00    +0.067 A 
ATOM      8  C   UNL     1      -7.968   9.944  69.172  0.00  0.00    +0.051 A 
ATOM      9  I   UNL     1      -6.526   8.675  70.018  0.00  0.00    -0.041 I 
ENDROOT
BRANCH   4  10
ATOM     10  C   UNL     1     -10.808  12.813  68.038  0.00  0.00    +0.250 C 
ATOM     11  N   UNL     1     -11.564  13.008  66.862  0.00  0.00    -0.272 N 
ATOM     12  C   UNL     1     -11.687  11.988  65.840  0.00  0.00    +0.115 C 
ATOM     13  O   UNL     1     -10.784  13.728  68.913  0.00  0.00    -0.270 OA
BRANCH  11  14
ATOM     14  C   UNL     1     -11.896  14.369  66.464  0.00  0.00    +0.129 C 
BRANCH  14  15
ATOM     15  C   UNL     1     -11.237  14.455  64.950  0.00  0.00    +0.204 C 
ATOM     16  O   UNL     1     -12.550  14.903  64.325  0.00  0.00    -0.218 OA
BRANCH  15  17
ATOM     17  C   UNL     1     -10.706  16.011  65.139  0.00  0.00    +0.217 C 
ATOM     18  O   UNL     1     -11.364  16.727  64.174  0.00  0.00    -0.218 OA
ENDBRANCH  15  17
ENDBRANCH  14  15
ENDBRANCH  11  14
ENDBRANCH   4  10
BRANCH   7  19
ATOM     19  C   UNL     1      -6.382  11.882  69.364  0.00  0.00    +0.266 C 
ATOM     20  N   UNL     1      -5.113  11.774  68.772  0.00  0.00    -0.199 NA
ATOM     21  O   UNL     1      -6.313  12.101  70.614  0.00  0.00    -0.268 OA
BRANCH  20  22
ATOM     22  C   UNL     1      -3.927  12.444  69.161  0.00  0.00    +0.151 C 
BRANCH  22  23
ATOM     23  C   UNL     1      -3.210  13.020  67.793  0.00  0.00    +0.206 C 
ATOM     24  O   UNL     1      -4.296  12.480  66.874  0.00  0.00    -0.218 OA
BRANCH  23  25
ATOM     25  C   UNL     1      -3.969  14.479  67.951  0.00  0.00    +0.217 C 
ATOM     26  O   UNL     1      -3.560  15.202  66.832  0.00  0.00    -0.218 OA
ENDBRANCH  23  25
ENDBRANCH  22  23
ENDBRANCH  20  22
ENDBRANCH   7  19
BRANCH   1  28
ATOM     27  C   UNL     1     -10.279   7.288  69.136  0.00  0.00    +0.276 C 
ATOM     28  N   UNL     1      -9.793   8.449  69.822  0.00  0.00    -0.176 NA
ATOM     29  O   UNL     1     -10.342   7.325  67.882  0.00  0.00    -0.270 OA
BRANCH  27  30
ATOM     30  C   UNL     1     -10.863   6.127  69.883  0.00  0.00    +0.229 C 
BRANCH  30  32
ATOM     31  C   UNL     1     -12.109   6.488  71.658  0.00  0.00    +0.175 C 
ATOM     32  O   UNL     1     -12.025   6.626  70.472  0.00  0.00    -0.342 OA
ENDBRANCH  30  32
ENDBRANCH  27  30
ENDBRANCH   1  28
TORSDOF 11
ENDMDL
MODEL 5
REMARK VINA RESULT:      -5.1      3.314      5.939
REMARK  Name = 
REMARK  11 active torsions:
REMARK  status: ('A' for Active; 'I' for Inactive)
REMARK    1  A    between atoms: O_2  and  C_3
REMARK    2  A    between atoms: C_3  and  C_4
REMARK    3  A    between atoms: N_6  and  C_7
REMARK    4  A    between atoms: C_10  and  C_11
REMARK    5  A    between atoms: N_13  and  C_14
REMARK    6  A    between atoms: C_14  and  C_15
REMARK    7  A    between atoms: C_15  and  C_17
REMARK    8  A    between atoms: C_21  and  C_22
REMARK    9  A    between atoms: N_24  and  C_26
REMARK   10  A    between atoms: C_26  and  C_27
REMARK   11  A    between atoms: C_27  and  C_29
REMARK                            x       y       z     vdW  Elec       q    Type
REMARK                         _______ _______ _______ _____ _____    ______ ____
ROOT
ATOM      1  C   UNL     1     -11.917  12.876  69.620  0.00  0.00    +0.084 A 
ATOM      2  C   UNL     1     -11.471  13.922  68.816  0.00  0.00    +0.051 A 
ATOM      3  I   UNL     1     -10.466  15.598  69.654  0.00  0.00    -0.041 I 
ATOM      4  C   UNL     1     -11.400  13.667  67.451  0.00  0.00    +0.066 A 
ATOM      5  C   UNL     1     -11.272  12.334  67.080  0.00  0.00    +0.040 A 
ATOM      6  I   UNL     1     -10.823  11.866  65.065  0.00  0.00    -0.042 I 
ATOM      7  C   UNL     1     -11.109  11.311  68.010  0.00  0.00    +0.067 A 
ATOM      8  C   UNL     1     -11.658  11.558  69.242  0.00  0.00    +0.051 A 
ATOM      9  I   UNL     1     -11.700   9.973  70.617  0.00  0.00    -0.041 I 
ENDROOT
BRANCH   4  10
ATOM     10  C   UNL     1     -10.929  14.699  66.562  0.00  0.00    +0.250 C 
ATOM     11  N   UNL     1      -9.573  15.068  66.427  0.00  0.00    -0.272 N 
ATOM     12  C   UNL     1      -8.493  14.267  66.966  0.00  0.00    +0.115 C 
ATOM     13  O   UNL     1     -11.820  15.421  66.024  0.00  0.00    -0.270 OA
BRANCH  11  14
ATOM     14  C   UNL     1      -9.256  16.453  66.105  0.00  0.00    +0.129 C 
BRANCH  14  15
ATOM     15  C   UNL     1      -7.729  16.607  66.721  0.00  0.00    +0.204 C 
ATOM     16  O   UNL     1      -7.271  17.480  65.561  0.00  0.00    -0.218 OA
BRANCH  15  17
ATOM     17  C   UNL     1      -8.110  17.917  67.657  0.00  0.00    +0.217 C 
ATOM     18  O   UNL     1      -7.298  17.814  68.755  0.00  0.00    -0.218 OA
ENDBRANCH  15  17
ENDBRANCH  14  15
ENDBRANCH  11  14
ENDBRANCH   4  10
BRANCH   7  19
ATOM     19  C   UNL     1     -10.290  10.162  67.666  0.00  0.00    +0.266 C 
ATOM     20  N   UNL     1     -10.780   8.869  67.421  0.00  0.00    -0.199 NA
ATOM     21  O   UNL     1      -9.102  10.149  68.117  0.00  0.00    -0.268 OA
BRANCH  20  22
ATOM     22  C   UNL     1     -10.037   7.734  67.013  0.00  0.00    +0.151 C 
BRANCH  22  23
ATOM     23  C   UNL     1     -11.034   6.425  67.110  0.00  0.00    +0.206 C 
ATOM     24  O   UNL     1     -10.050   5.496  66.415  0.00  0.00    -0.218 OA
BRANCH  23  25
ATOM     25  C   UNL     1     -10.457   6.034  68.607  0.00  0.00    +0.217 C 
ATOM     26  O   UNL     1     -11.559   6.170  69.448  0.00  0.00    -0.218 OA
ENDBRANCH  23  25
ENDBRANCH  22  23
ENDBRANCH  20  22
ENDBRANCH   7  19
BRANCH   1  28
ATOM     27  C   UNL     1     -13.195  13.990  71.481  0.00  0.00    +0.276 C 
ATOM     28  N   UNL     1     -12.095  13.207  70.997  0.00  0.00    -0.176 NA
ATOM     29  O   UNL     1     -14.009  14.448  70.641  0.00  0.00    -0.270 OA
BRANCH  27  30
ATOM     30  C   UNL     1     -13.285  14.405  72.918  0.00  0.00    +0.229 C 
BRANCH  30  32
ATOM     31  C   UNL     1     -12.492  16.243  73.827  0.00  0.00    +0.175 C 
ATOM     32  O   UNL     1     -13.106  15.788  72.905  0.00  0.00    -0.342 OA
ENDBRANCH  30  32
ENDBRANCH  27  30
ENDBRANCH   1  28
TORSDOF 11
ENDMDL
MODEL 6
REMARK VINA RESULT:      -4.8      1.697      5.873
REMARK  Name = 
REMARK  11 active torsions:
REMARK  status: ('A' for Active; 'I' for Inactive)
REMARK    1  A    between atoms: O_2  and  C_3
REMARK    2  A    between atoms: C_3  and  C_4
REMARK    3  A    between atoms: N_6  and  C_7
REMARK    4  A    between atoms: C_10  and  C_11
REMARK    5  A    between atoms: N_13  and  C_14
REMARK    6  A    between atoms: C_14  and  C_15
REMARK    7  A    between atoms: C_15  and  C_17
REMARK    8  A    between atoms: C_21  and  C_22
REMARK    9  A    between atoms: N_24  and  C_26
REMARK   10  A    between atoms: C_26  and  C_27
REMARK   11  A    between atoms: C_27  and  C_29
REMARK                            x       y       z     vdW  Elec       q    Type
REMARK                         _______ _______ _______ _____ _____    ______ ____
ROOT
ATOM      1  C   UNL     1     -11.511  11.090  68.526  0.00  0.00    +0.084 A 
ATOM      2  C   UNL     1     -11.639  12.396  68.061  0.00  0.00    +0.051 A 
ATOM      3  I   UNL     1     -11.323  14.056  69.350  0.00  0.00    -0.041 I 
ATOM      4  C   UNL     1     -11.636  12.564  66.680  0.00  0.00    +0.066 A 
ATOM      5  C   UNL     1     -11.014  11.566  65.940  0.00  0.00    +0.040 A 
ATOM      6  I   UNL     1     -10.662  11.885  63.877  0.00  0.00    -0.042 I 
ATOM      7  C   UNL     1     -10.331  10.509  66.534  0.00  0.00    +0.067 A 
ATOM      8  C   UNL     1     -10.779  10.163  67.783  0.00  0.00    +0.051 A 
ATOM      9  I   UNL     1      -9.993   8.415  68.640  0.00  0.00    -0.041 I 
ENDROOT
BRANCH   4  10
ATOM     10  C   UNL     1     -11.746  13.892  66.130  0.00  0.00    +0.250 C 
ATOM     11  N   UNL     1     -10.680  14.815  66.072  0.00  0.00    -0.272 N 
ATOM     12  C   UNL     1      -9.304  14.428  66.312  0.00  0.00    +0.115 C 
ATOM     13  O   UNL     1     -12.918  14.288  65.860  0.00  0.00    -0.270 OA
BRANCH  11  14
ATOM     14  C   UNL     1     -10.981  16.236  66.172  0.00  0.00    +0.129 C 
BRANCH  14  15
ATOM     15  C   UNL     1      -9.562  16.847  66.761  0.00  0.00    +0.204 C 
ATOM     16  O   UNL     1      -9.626  18.068  65.854  0.00  0.00    -0.218 OA
BRANCH  15  17
ATOM     17  C   UNL     1     -10.288  17.645  68.015  0.00  0.00    +0.217 C 
ATOM     18  O   UNL     1     -10.976  18.675  67.428  0.00  0.00    -0.218 OA
ENDBRANCH  15  17
ENDBRANCH  14  15
ENDBRANCH  11  14
ENDBRANCH   4  10
BRANCH   7  19
ATOM     19  C   UNL     1      -9.159   9.961  65.875  0.00  0.00    +0.266 C 
ATOM     20  N   UNL     1      -9.091   8.690  65.281  0.00  0.00    -0.199 NA
ATOM     21  O   UNL     1      -8.027  10.357  66.295  0.00  0.00    -0.268 OA
BRANCH  20  22
ATOM     22  C   UNL     1      -8.001   8.136  64.565  0.00  0.00    +0.151 C 
BRANCH  22  23
ATOM     23  C   UNL     1      -7.750   6.612  65.142  0.00  0.00    +0.206 C 
ATOM     24  O   UNL     1      -7.191   6.096  63.825  0.00  0.00    -0.218 OA
BRANCH  23  25
ATOM     25  C   UNL     1      -6.250   7.019  65.702  0.00  0.00    +0.217 C 
ATOM     26  O   UNL     1      -6.472   7.425  67.016  0.00  0.00    -0.218 OA
ENDBRANCH  23  25
ENDBRANCH  22  23
ENDBRANCH  20  22
ENDBRANCH   7  19
BRANCH   1  28
ATOM     27  C   UNL     1     -12.804  10.381  70.566  0.00  0.00    +0.276 C 
ATOM     28  N   UNL     1     -11.640  10.937  69.939  0.00  0.00    -0.176 NA
ATOM     29  O   UNL     1     -13.774  10.062  69.834  0.00  0.00    -0.270 OA
BRANCH  27  30
ATOM     30  C   UNL     1     -12.942  10.339  72.057  0.00  0.00    +0.229 C 
BRANCH  30  32
ATOM     31  C   UNL     1     -12.111   8.329  72.373  0.00  0.00    +0.175 C 
ATOM     32  O   UNL     1     -13.109   8.989  72.366  0.00  0.00    -0.342 OA
ENDBRANCH  30  32
ENDBRANCH  27  30
ENDBRANCH   1  28
TORSDOF 11
ENDMDL
MODEL 7
REMARK VINA RESULT:      -4.8      4.179      6.056
REMARK  Name = 
REMARK  11 active torsions:
REMARK  status: ('A' for Active; 'I' for Inactive)
REMARK    1  A    between atoms: O_2  and  C_3
REMARK    2  A    between atoms: C_3  and  C_4
REMARK    3  A    between atoms: N_6  and  C_7
REMARK    4  A    between atoms: C_10  and  C_11
REMARK    5  A    between atoms: N_13  and  C_14
REMARK    6  A    between atoms: C_14  and  C_15
REMARK    7  A    between atoms: C_15  and  C_17
REMARK    8  A    between atoms: C_21  and  C_22
REMARK    9  A    between atoms: N_24  and  C_26
REMARK   10  A    between atoms: C_26  and  C_27
REMARK   11  A    between atoms: C_27  and  C_29
REMARK                            x       y       z     vdW  Elec       q    Type
REMARK                         _______ _______ _______ _____ _____    ______ ____
ROOT
ATOM      1  C   UNL     1      -9.359   9.580  69.288  0.00  0.00    +0.084 A 
ATOM      2  C   UNL     1     -10.285  10.603  69.103  0.00  0.00    +0.051 A 
ATOM      3  I   UNL     1     -12.028  10.738  70.311  0.00  0.00    -0.041 I 
ATOM      4  C   UNL     1      -9.859  11.695  68.355  0.00  0.00    +0.066 A 
ATOM      5  C   UNL     1      -8.487  11.913  68.310  0.00  0.00    +0.040 A 
ATOM      6  I   UNL     1      -7.760  13.722  67.485  0.00  0.00    -0.042 I 
ATOM      7  C   UNL     1      -7.585  11.159  69.056  0.00  0.00    +0.067 A 
ATOM      8  C   UNL     1      -7.998   9.884  69.343  0.00  0.00    +0.051 A 
ATOM      9  I   UNL     1      -6.599   8.591  70.225  0.00  0.00    -0.041 I 
ENDROOT
BRANCH   4  10
ATOM     10  C   UNL     1     -10.760  12.799  68.138  0.00  0.00    +0.250 C 
ATOM     11  N   UNL     1     -11.483  13.005  66.943  0.00  0.00    -0.272 N 
ATOM     12  C   UNL     1     -11.599  11.987  65.919  0.00  0.00    +0.115 C 
ATOM     13  O   UNL     1     -10.742  13.715  69.012  0.00  0.00    -0.270 OA
BRANCH  11  14
ATOM     14  C   UNL     1     -11.782  14.372  66.535  0.00  0.00    +0.129 C 
BRANCH  14  15
ATOM     15  C   UNL     1     -11.222  14.397  64.980  0.00  0.00    +0.204 C 
ATOM     16  O   UNL     1     -12.577  14.808  64.422  0.00  0.00    -0.218 OA
BRANCH  15  17
ATOM     17  C   UNL     1     -10.696  15.963  65.068  0.00  0.00    +0.217 C 
ATOM     18  O   UNL     1     -11.449  16.640  64.144  0.00  0.00    -0.218 OA
ENDBRANCH  15  17
ENDBRANCH  14  15
ENDBRANCH  11  14
ENDBRANCH   4  10
BRANCH   7  19
ATOM     19  C   UNL     1      -6.383  11.793  69.568  0.00  0.00    +0.266 C 
ATOM     20  N   UNL     1      -6.364  12.855  70.488  0.00  0.00    -0.199 NA
ATOM     21  O   UNL     1      -5.368  11.800  68.804  0.00  0.00    -0.268 OA
BRANCH  20  22
ATOM     22  C   UNL     1      -5.225  13.461  71.073  0.00  0.00    +0.151 C 
BRANCH  22  23
ATOM     23  C   UNL     1      -4.668  12.445  72.245  0.00  0.00    +0.206 C 
ATOM     24  O   UNL     1      -3.214  12.584  71.818  0.00  0.00    -0.218 OA
BRANCH  23  25
ATOM     25  C   UNL     1      -4.543  13.686  73.328  0.00  0.00    +0.217 C 
ATOM     26  O   UNL     1      -5.839  13.852  73.812  0.00  0.00    -0.218 OA
ENDBRANCH  23  25
ENDBRANCH  22  23
ENDBRANCH  20  22
ENDBRANCH   7  19
BRANCH   1  28
ATOM     27  C   UNL     1     -10.379   7.279  69.259  0.00  0.00    +0.276 C 
ATOM     28  N   UNL     1      -9.864   8.422  69.954  0.00  0.00    -0.176 NA
ATOM     29  O   UNL     1     -10.433   7.324  68.005  0.00  0.00    -0.270 OA
BRANCH  27  30
ATOM     30  C   UNL     1     -10.999   6.131  69.996  0.00  0.00    +0.229 C 
BRANCH  30  32
ATOM     31  C   UNL     1      -9.572   4.997  71.226  0.00  0.00    +0.175 C 
ATOM     32  O   UNL     1     -10.234   5.992  71.154  0.00  0.00    -0.342 OA
ENDBRANCH  30  32
ENDBRANCH  27  30
ENDBRANCH   1  28
TORSDOF 11
ENDMDL
MODEL 8
REMARK VINA RESULT:      -4.8      3.117      7.708
REMARK  Name = 
REMARK  11 active torsions:
REMARK  status: ('A' for Active; 'I' for Inactive)
REMARK    1  A    between atoms: O_2  and  C_3
REMARK    2  A    between atoms: C_3  and  C_4
REMARK    3  A    between atoms: N_6  and  C_7
REMARK    4  A    between atoms: C_10  and  C_11
REMARK    5  A    between atoms: N_13  and  C_14
REMARK    6  A    between atoms: C_14  and  C_15
REMARK    7  A    between atoms: C_15  and  C_17
REMARK    8  A    between atoms: C_21  and  C_22
REMARK    9  A    between atoms: N_24  and  C_26
REMARK   10  A    between atoms: C_26  and  C_27
REMARK   11  A    between atoms: C_27  and  C_29
REMARK                            x       y       z     vdW  Elec       q    Type
REMARK                         _______ _______ _______ _____ _____    ______ ____
ROOT
ATOM      1  C   UNL     1     -10.646   8.373  69.747  0.00  0.00    +0.084 A 
ATOM      2  C   UNL     1      -9.954   7.912  68.630  0.00  0.00    +0.051 A 
ATOM      3  I   UNL     1     -10.534   6.122  67.641  0.00  0.00    -0.041 I 
ATOM      4  C   UNL     1      -9.116   8.826  68.001  0.00  0.00    +0.066 A 
ATOM      5  C   UNL     1      -9.418  10.170  68.190  0.00  0.00    +0.040 A 
ATOM      6  I   UNL     1      -8.418  11.622  67.017  0.00  0.00    -0.042 I 
ATOM      7  C   UNL     1     -10.555  10.592  68.873  0.00  0.00    +0.067 A 
ATOM      8  C   UNL     1     -11.015   9.717  69.822  0.00  0.00    +0.051 A 
ATOM      9  I   UNL     1     -12.555  10.383  71.084  0.00  0.00    -0.041 I 
ENDROOT
BRANCH   4  10
ATOM     10  C   UNL     1      -8.382   8.422  66.827  0.00  0.00    +0.250 C 
ATOM     11  N   UNL     1      -7.024   8.038  66.838  0.00  0.00    -0.272 N 
ATOM     12  C   UNL     1      -6.307   7.754  68.065  0.00  0.00    +0.115 C 
ATOM     13  O   UNL     1      -8.960   8.607  65.716  0.00  0.00    -0.270 OA
BRANCH  11  14
ATOM     14  C   UNL     1      -6.211   8.314  65.661  0.00  0.00    +0.129 C 
BRANCH  14  15
ATOM     15  C   UNL     1      -5.104   9.389  66.252  0.00  0.00    +0.204 C 
ATOM     16  O   UNL     1      -3.937   8.651  65.612  0.00  0.00    -0.218 OA
BRANCH  15  17
ATOM     17  C   UNL     1      -5.251  10.427  64.972  0.00  0.00    +0.217 C 
ATOM     18  O   UNL     1      -4.636  11.581  65.382  0.00  0.00    -0.218 OA
ENDBRANCH  15  17
ENDBRANCH  14  15
ENDBRANCH  11  14
ENDBRANCH   4  10
BRANCH   7  19
ATOM     19  C   UNL     1     -11.220  11.814  68.456  0.00  0.00    +0.266 C 
ATOM     20  N   UNL     1     -11.307  12.985  69.227  0.00  0.00    -0.199 NA
ATOM     21  O   UNL     1     -12.200  11.690  67.657  0.00  0.00    -0.268 OA
BRANCH  20  22
ATOM     22  C   UNL     1     -11.879  14.223  68.843  0.00  0.00    +0.151 C 
BRANCH  22  23
ATOM     23  C   UNL     1     -10.904  15.421  69.418  0.00  0.00    +0.206 C 
ATOM     24  O   UNL     1     -11.794  16.537  68.892  0.00  0.00    -0.218 OA
BRANCH  23  25
ATOM     25  C   UNL     1     -11.666  15.406  70.883  0.00  0.00    +0.217 C 
ATOM     26  O   UNL     1     -12.925  15.944  70.622  0.00  0.00    -0.218 OA
ENDBRANCH  23  25
ENDBRANCH  22  23
ENDBRANCH  20  22
ENDBRANCH   7  19
BRANCH   1  28
ATOM     27  C   UNL     1     -10.998   6.826  71.700  0.00  0.00    +0.276 C 
ATOM     28  N   UNL     1     -11.401   7.381  70.441  0.00  0.00    -0.176 NA
ATOM     29  O   UNL     1      -9.900   7.196  72.186  0.00  0.00    -0.270 OA
BRANCH  27  30
ATOM     30  C   UNL     1     -11.764   5.708  72.341  0.00  0.00    +0.229 C 
BRANCH  30  32
ATOM     31  C   UNL     1     -10.981   4.181  73.716  0.00  0.00    +0.175 C 
ATOM     32  O   UNL     1     -11.010   5.350  73.459  0.00  0.00    -0.342 OA
ENDBRANCH  30  32
ENDBRANCH  27  30
ENDBRANCH   1  28
TORSDOF 11
ENDMDL
MODEL 9
REMARK VINA RESULT:      -4.8      4.201      6.959
REMARK  Name = 
REMARK  11 active torsions:
REMARK  status: ('A' for Active; 'I' for Inactive)
REMARK    1  A    between atoms: O_2  and  C_3
REMARK    2  A    between atoms: C_3  and  C_4
REMARK    3  A    between atoms: N_6  and  C_7
REMARK    4  A    between atoms: C_10  and  C_11
REMARK    5  A    between atoms: N_13  and  C_14
REMARK    6  A    between atoms: C_14  and  C_15
REMARK    7  A    between atoms: C_15  and  C_17
REMARK    8  A    between atoms: C_21  and  C_22
REMARK    9  A    between atoms: N_24  and  C_26
REMARK   10  A    between atoms: C_26  and  C_27
REMARK   11  A    between atoms: C_27  and  C_29
REMARK                            x       y       z     vdW  Elec       q    Type
REMARK                         _______ _______ _______ _____ _____    ______ ____
ROOT
ATOM      1  C   UNL     1      -9.543   9.132  70.218  0.00  0.00    +0.084 A 
ATOM      2  C   UNL     1     -10.138  10.119  69.437  0.00  0.00    +0.051 A 
ATOM      3  I   UNL     1     -11.941  11.064  70.048  0.00  0.00    -0.041 I 
ATOM      4  C   UNL     1      -9.343  10.689  68.449  0.00  0.00    +0.066 A 
ATOM      5  C   UNL     1      -7.969  10.623  68.649  0.00  0.00    +0.040 A 
ATOM      6  I   UNL     1      -6.691  11.743  67.386  0.00  0.00    -0.042 I 
ATOM      7  C   UNL     1      -7.408  10.121  69.820  0.00  0.00    +0.067 A 
ATOM      8  C   UNL     1      -8.172   9.188  70.471  0.00  0.00    +0.051 A 
ATOM      9  I   UNL     1      -7.294   8.180  72.089  0.00  0.00    -0.041 I 
ENDROOT
BRANCH   4  10
ATOM     10  C   UNL     1      -9.889  11.730  67.614  0.00  0.00    +0.250 C 
ATOM     11  N   UNL     1     -10.286  11.541  66.273  0.00  0.00    -0.272 N 
ATOM     12  C   UNL     1     -10.436  10.225  65.685  0.00  0.00    +0.115 C 
ATOM     13  O   UNL     1      -9.826  12.907  68.077  0.00  0.00    -0.270 OA
BRANCH  11  14
ATOM     14  C   UNL     1     -10.158  12.655  65.344  0.00  0.00    +0.129 C 
BRANCH  14  15
ATOM     15  C   UNL     1     -11.722  13.172  65.208  0.00  0.00    +0.204 C 
ATOM     16  O   UNL     1     -11.301  14.601  64.896  0.00  0.00    -0.218 OA
BRANCH  15  17
ATOM     17  C   UNL     1     -11.840  12.775  63.606  0.00  0.00    +0.217 C 
ATOM     18  O   UNL     1     -13.031  12.106  63.495  0.00  0.00    -0.218 OA
ENDBRANCH  15  17
ENDBRANCH  14  15
ENDBRANCH  11  14
ENDBRANCH   4  10
BRANCH   7  19
ATOM     19  C   UNL     1      -6.169  10.694  70.316  0.00  0.00    +0.266 C 
ATOM     20  N   UNL     1      -6.019  12.013  70.773  0.00  0.00    -0.199 NA
ATOM     21  O   UNL     1      -5.089  10.225  69.838  0.00  0.00    -0.268 OA
BRANCH  20  22
ATOM     22  C   UNL     1      -4.857  12.599  71.332  0.00  0.00    +0.151 C 
BRANCH  22  23
ATOM     23  C   UNL     1      -5.334  13.911  72.209  0.00  0.00    +0.206 C 
ATOM     24  O   UNL     1      -3.929  14.217  72.706  0.00  0.00    -0.218 OA
BRANCH  23  25
ATOM     25  C   UNL     1      -5.165  14.907  70.902  0.00  0.00    +0.217 C 
ATOM     26  O   UNL     1      -4.414  15.979  71.380  0.00  0.00    -0.218 OA
ENDBRANCH  23  25
ENDBRANCH  22  23
ENDBRANCH  20  22
ENDBRANCH   7  19
BRANCH   1  28
ATOM     27  C   UNL     1     -11.143   7.286  70.824  0.00  0.00    +0.276 C 
ATOM     28  N   UNL     1     -10.419   8.483  71.139  0.00  0.00    -0.176 NA
ATOM     29  O   UNL     1     -11.039   6.820  69.662  0.00  0.00    -0.270 OA
BRANCH  27  30
ATOM     30  C   UNL     1     -12.134   6.698  71.782  0.00  0.00    +0.229 C 
BRANCH  30  32
ATOM     31  C   UNL     1     -13.943   7.946  71.741  0.00  0.00    +0.175 C 
ATOM     32  O   UNL     1     -13.383   7.011  71.246  0.00  0.00    -0.342 OA
ENDBRANCH  30  32
ENDBRANCH  27  30
ENDBRANCH   1  28
TORSDOF 11
ENDMDL
