MODEL 1
REMARK VINA RESULT:      -5.1      0.000      0.000
REMARK  Name = 
REMARK  11 active torsions:
REMARK  status: ('A' for Active; 'I' for Inactive)
REMARK    1  A    between atoms: O_2  and  C_3
REMARK    2  A    between atoms: C_3  and  C_4
REMARK    3  A    between atoms: N_6  and  C_7
REMARK    4  A    between atoms: C_10  and  C_11
REMARK    5  A    between atoms: N_13  and  C_14
REMARK    6  A    between atoms: C_14  and  C_15
REMARK    7  A    between atoms: C_15  and  C_17
REMARK    8  A    between atoms: C_21  and  C_22
REMARK    9  A    between atoms: N_24  and  C_26
REMARK   10  A    between atoms: C_26  and  C_27
REMARK   11  A    between atoms: C_27  and  C_29
REMARK                            x       y       z     vdW  Elec       q    Type
REMARK                         _______ _______ _______ _____ _____    ______ ____
ROOT
ATOM      1  C   UNL     1      -9.800  11.850  66.902  0.00  0.00    +0.084 A 
ATOM      2  C   UNL     1      -9.720  10.668  67.626  0.00  0.00    +0.051 A 
ATOM      3  I   UNL     1      -8.018   9.438  67.340  0.00  0.00    -0.041 I 
ATOM      4  C   UNL     1     -10.571  10.490  68.714  0.00  0.00    +0.066 A 
ATOM      5  C   UNL     1     -11.262  11.605  69.173  0.00  0.00    +0.040 A 
ATOM      6  I   UNL     1     -12.415  11.458  70.941  0.00  0.00    -0.042 I 
ATOM      7  C   UNL     1     -11.121  12.859  68.591  0.00  0.00    +0.067 A 
ATOM      8  C   UNL     1     -10.429  12.981  67.404  0.00  0.00    +0.051 A 
ATOM      9  I   UNL     1      -9.876  14.851  66.590  0.00  0.00    -0.041 I 
ENDROOT
BRANCH   4  10
ATOM     10  C   UNL     1     -10.181   9.446  69.652  0.00  0.00    +0.250 C 
ATOM     11  N   UNL     1     -10.826   8.178  69.748  0.00  0.00    -0.272 N 
ATOM     12  C   UNL     1     -10.526   7.230  68.676  0.00  0.00    +0.115 C 
ATOM     13  O   UNL     1      -9.027   9.523  70.176  0.00  0.00    -0.270 OA
BRANCH  11  14
ATOM     14  C   UNL     1     -10.964   7.693  71.123  0.00  0.00    +0.129 C 
BRANCH  14  15
ATOM     15  C   UNL     1     -12.363   6.766  71.057  0.00  0.00    +0.204 C 
ATOM     16  O   UNL     1     -11.899   5.913  72.263  0.00  0.00    -0.218 OA
BRANCH  15  17
ATOM     17  C   UNL     1     -13.175   7.828  72.078  0.00  0.00    +0.217 C 
ATOM     18  O   UNL     1     -14.293   8.060  71.289  0.00  0.00    -0.218 OA
ENDBRANCH  15  17
ENDBRANCH  14  15
ENDBRANCH  11  14
ENDBRANCH   4  10
BRANCH   7  19
ATOM     19  C   UNL     1     -11.301  14.099  69.365  0.00  0.00    +0.266 C 
ATOM     20  N   UNL     1     -12.552  14.643  69.668  0.00  0.00    -0.199 NA
ATOM     21  O   UNL     1     -10.328  14.640  69.974  0.00  0.00    -0.268 OA
BRANCH  20  22
ATOM     22  C   UNL     1     -12.959  15.533  70.663  0.00  0.00    +0.151 C 
BRANCH  22  23
ATOM     23  C   UNL     1     -13.980  14.692  71.704  0.00  0.00    +0.206 C 
ATOM     24  O   UNL     1     -14.774  15.955  72.124  0.00  0.00    -0.218 OA
BRANCH  23  25
ATOM     25  C   UNL     1     -12.894  14.869  72.976  0.00  0.00    +0.217 C 
ATOM     26  O   UNL     1     -12.278  16.080  72.689  0.00  0.00    -0.218 OA
ENDBRANCH  23  25
ENDBRANCH  22  23
ENDBRANCH  20  22
ENDBRANCH   7  19
BRANCH   1  28
ATOM     27  C   UNL     1     -10.240  11.423  64.544  0.00  0.00    +0.276 C 
ATOM     28  N   UNL     1      -9.312  11.832  65.556  0.00  0.00    -0.176 NA
ATOM     29  O   UNL     1     -11.454  11.276  64.814  0.00  0.00    -0.270 OA
BRANCH  27  30
ATOM     30  C   UNL     1      -9.796  11.581  63.125  0.00  0.00    +0.229 C 
BRANCH  30  32
ATOM     31  C   UNL     1      -8.585   9.768  62.678  0.00  0.00    +0.175 C 
ATOM     32  O   UNL     1      -9.797  10.304  62.539  0.00  0.00    -0.342 OA
ENDBRANCH  30  32
ENDBRANCH  27  30
ENDBRANCH   1  28
TORSDOF 11
ENDMDL
MODEL 2
REMARK VINA RESULT:      -5.1      6.539      8.793
REMARK  Name = 
REMARK  11 active torsions:
REMARK  status: ('A' for Active; 'I' for Inactive)
REMARK    1  A    between atoms: O_2  and  C_3
REMARK    2  A    between atoms: C_3  and  C_4
REMARK    3  A    between atoms: N_6  and  C_7
REMARK    4  A    between atoms: C_10  and  C_11
REMARK    5  A    between atoms: N_13  and  C_14
REMARK    6  A    between atoms: C_14  and  C_15
REMARK    7  A    between atoms: C_15  and  C_17
REMARK    8  A    between atoms: C_21  and  C_22
REMARK    9  A    between atoms: N_24  and  C_26
REMARK   10  A    between atoms: C_26  and  C_27
REMARK   11  A    between atoms: C_27  and  C_29
REMARK                            x       y       z     vdW  Elec       q    Type
REMARK                         _______ _______ _______ _____ _____    ______ ____
ROOT
ATOM      1  C   UNL     1      -7.296  19.033  67.101  0.00  0.00    +0.084 A 
ATOM      2  C   UNL     1      -6.266  18.641  67.947  0.00  0.00    +0.051 A 
ATOM      3  I   UNL     1      -5.039  20.151  68.787  0.00  0.00    -0.041 I 
ATOM      4  C   UNL     1      -6.272  17.344  68.453  0.00  0.00    +0.066 A 
ATOM      5  C   UNL     1      -7.438  16.603  68.298  0.00  0.00    +0.040 A 
ATOM      6  I   UNL     1      -7.591  14.702  69.216  0.00  0.00    -0.042 I 
ATOM      7  C   UNL     1      -8.568  17.117  67.675  0.00  0.00    +0.067 A 
ATOM      8  C   UNL     1      -8.486  18.324  67.012  0.00  0.00    +0.051 A 
ATOM      9  I   UNL     1     -10.189  19.357  66.303  0.00  0.00    -0.041 I 
ENDROOT
BRANCH   4  10
ATOM     10  C   UNL     1      -5.423  17.119  69.615  0.00  0.00    +0.250 C 
ATOM     11  N   UNL     1      -4.189  16.405  69.576  0.00  0.00    -0.272 N 
ATOM     12  C   UNL     1      -3.062  17.116  68.977  0.00  0.00    +0.115 C 
ATOM     13  O   UNL     1      -5.606  17.858  70.632  0.00  0.00    -0.270 OA
BRANCH  11  14
ATOM     14  C   UNL     1      -3.967  15.555  70.749  0.00  0.00    +0.129 C 
BRANCH  14  15
ATOM     15  C   UNL     1      -2.615  14.659  70.313  0.00  0.00    +0.204 C 
ATOM     16  O   UNL     1      -1.938  14.949  71.674  0.00  0.00    -0.218 OA
BRANCH  15  17
ATOM     17  C   UNL     1      -3.298  13.244  70.916  0.00  0.00    +0.217 C 
ATOM     18  O   UNL     1      -3.902  12.793  69.752  0.00  0.00    -0.218 OA
ENDBRANCH  15  17
ENDBRANCH  14  15
ENDBRANCH  11  14
ENDBRANCH   4  10
BRANCH   7  19
ATOM     19  C   UNL     1      -9.924  16.664  68.027  0.00  0.00    +0.266 C 
ATOM     20  N   UNL     1     -10.634  15.712  67.290  0.00  0.00    -0.199 NA
ATOM     21  O   UNL     1     -10.449  16.967  69.142  0.00  0.00    -0.268 OA
BRANCH  20  22
ATOM     22  C   UNL     1     -11.703  14.884  67.633  0.00  0.00    +0.151 C 
BRANCH  22  23
ATOM     23  C   UNL     1     -11.524  13.448  66.773  0.00  0.00    +0.206 C 
ATOM     24  O   UNL     1     -10.270  13.936  66.003  0.00  0.00    -0.218 OA
BRANCH  23  25
ATOM     25  C   UNL     1     -12.561  13.995  65.567  0.00  0.00    +0.217 C 
ATOM     26  O   UNL     1     -13.052  12.817  65.023  0.00  0.00    -0.218 OA
ENDBRANCH  23  25
ENDBRANCH  22  23
ENDBRANCH  20  22
ENDBRANCH   7  19
BRANCH   1  28
ATOM     27  C   UNL     1      -6.406  19.830  64.978  0.00  0.00    +0.276 C 
ATOM     28  N   UNL     1      -7.044  20.135  66.224  0.00  0.00    -0.176 NA
ATOM     29  O   UNL     1      -6.258  18.642  64.612  0.00  0.00    -0.270 OA
BRANCH  27  30
ATOM     30  C   UNL     1      -6.311  20.943  63.984  0.00  0.00    +0.229 C 
BRANCH  30  32
ATOM     31  C   UNL     1      -6.180  21.272  61.787  0.00  0.00    +0.175 C 
ATOM     32  O   UNL     1      -5.969  20.373  62.746  0.00  0.00    -0.342 OA
ENDBRANCH  30  32
ENDBRANCH  27  30
ENDBRANCH   1  28
TORSDOF 11
ENDMDL
MODEL 3
REMARK VINA RESULT:      -5.1      3.234      8.252
REMARK  Name = 
REMARK  11 active torsions:
REMARK  status: ('A' for Active; 'I' for Inactive)
REMARK    1  A    between atoms: O_2  and  C_3
REMARK    2  A    between atoms: C_3  and  C_4
REMARK    3  A    between atoms: N_6  and  C_7
REMARK    4  A    between atoms: C_10  and  C_11
REMARK    5  A    between atoms: N_13  and  C_14
REMARK    6  A    between atoms: C_14  and  C_15
REMARK    7  A    between atoms: C_15  and  C_17
REMARK    8  A    between atoms: C_21  and  C_22
REMARK    9  A    between atoms: N_24  and  C_26
REMARK   10  A    between atoms: C_26  and  C_27
REMARK   11  A    between atoms: C_27  and  C_29
REMARK                            x       y       z     vdW  Elec       q    Type
REMARK                         _______ _______ _______ _____ _____    ______ ____
ROOT
ATOM      1  C   UNL     1     -11.198  11.405  69.076  0.00  0.00    +0.084 A 
ATOM      2  C   UNL     1     -11.637  12.601  68.524  0.00  0.00    +0.051 A 
ATOM      3  I   UNL     1     -11.648  14.323  69.759  0.00  0.00    -0.041 I 
ATOM      4  C   UNL     1     -11.748  12.699  67.139  0.00  0.00    +0.066 A 
ATOM      5  C   UNL     1     -11.164  11.692  66.379  0.00  0.00    +0.040 A 
ATOM      6  I   UNL     1     -11.117  11.876  64.271  0.00  0.00    -0.042 I 
ATOM      7  C   UNL     1     -10.486  10.624  66.954  0.00  0.00    +0.067 A 
ATOM      8  C   UNL     1     -10.550  10.438  68.319  0.00  0.00    +0.051 A 
ATOM      9  I   UNL     1      -9.320   9.057  69.343  0.00  0.00    -0.041 I 
ENDROOT
BRANCH   4  10
ATOM     10  C   UNL     1     -11.819  14.054  66.609  0.00  0.00    +0.250 C 
ATOM     11  N   UNL     1     -10.732  14.977  66.631  0.00  0.00    -0.272 N 
ATOM     12  C   UNL     1      -9.667  14.727  65.661  0.00  0.00    +0.115 C 
ATOM     13  O   UNL     1     -12.761  14.324  65.802  0.00  0.00    -0.270 OA
BRANCH  11  14
ATOM     14  C   UNL     1     -11.138  16.355  66.918  0.00  0.00    +0.129 C 
BRANCH  14  15
ATOM     15  C   UNL     1      -9.725  17.225  66.663  0.00  0.00    +0.204 C 
ATOM     16  O   UNL     1     -10.460  18.214  65.727  0.00  0.00    -0.218 OA
BRANCH  15  17
ATOM     17  C   UNL     1     -10.031  18.207  67.995  0.00  0.00    +0.217 C 
ATOM     18  O   UNL     1     -11.059  18.968  67.459  0.00  0.00    -0.218 OA
ENDBRANCH  15  17
ENDBRANCH  14  15
ENDBRANCH  11  14
ENDBRANCH   4  10
BRANCH   7  19
ATOM     19  C   UNL     1      -9.385   9.938  66.258  0.00  0.00    +0.266 C 
ATOM     20  N   UNL     1      -8.065  10.396  66.264  0.00  0.00    -0.199 NA
ATOM     21  O   UNL     1      -9.538   8.774  65.777  0.00  0.00    -0.268 OA
BRANCH  20  22
ATOM     22  C   UNL     1      -6.856   9.741  66.026  0.00  0.00    +0.151 C 
BRANCH  22  23
ATOM     23  C   UNL     1      -5.663  10.921  65.890  0.00  0.00    +0.206 C 
ATOM     24  O   UNL     1      -4.663  10.173  66.808  0.00  0.00    -0.218 OA
BRANCH  23  25
ATOM     25  C   UNL     1      -6.311  11.782  67.181  0.00  0.00    +0.217 C 
ATOM     26  O   UNL     1      -5.693  13.020  67.070  0.00  0.00    -0.218 OA
ENDBRANCH  23  25
ENDBRANCH  22  23
ENDBRANCH  20  22
ENDBRANCH   7  19
BRANCH   1  28
ATOM     27  C   UNL     1     -12.834  10.561  70.672  0.00  0.00    +0.276 C 
ATOM     28  N   UNL     1     -11.545  11.142  70.439  0.00  0.00    -0.176 NA
ATOM     29  O   UNL     1     -13.524  10.139  69.718  0.00  0.00    -0.270 OA
BRANCH  27  30
ATOM     30  C   UNL     1     -13.124  10.114  72.069  0.00  0.00    +0.229 C 
BRANCH  30  32
ATOM     31  C   UNL     1     -12.080   8.164  72.312  0.00  0.00    +0.175 C 
ATOM     32  O   UNL     1     -13.262   8.717  72.044  0.00  0.00    -0.342 OA
ENDBRANCH  30  32
ENDBRANCH  27  30
ENDBRANCH   1  28
TORSDOF 11
ENDMDL
MODEL 4
REMARK VINA RESULT:      -5.1      3.115      8.682
REMARK  Name = 
REMARK  11 active torsions:
REMARK  status: ('A' for Active; 'I' for Inactive)
REMARK    1  A    between atoms: O_2  and  C_3
REMARK    2  A    between atoms: C_3  and  C_4
REMARK    3  A    between atoms: N_6  and  C_7
REMARK    4  A    between atoms: C_10  and  C_11
REMARK    5  A    between atoms: N_13  and  C_14
REMARK    6  A    between atoms: C_14  and  C_15
REMARK    7  A    between atoms: C_15  and  C_17
REMARK    8  A    between atoms: C_21  and  C_22
REMARK    9  A    between atoms: N_24  and  C_26
REMARK   10  A    between atoms: C_26  and  C_27
REMARK   11  A    between atoms: C_27  and  C_29
REMARK                            x       y       z     vdW  Elec       q    Type
REMARK                         _______ _______ _______ _____ _____    ______ ____
ROOT
ATOM      1  C   UNL     1     -10.927  11.427  68.810  0.00  0.00    +0.084 A 
ATOM      2  C   UNL     1     -11.472  12.610  68.328  0.00  0.00    +0.051 A 
ATOM      3  I   UNL     1     -11.574  14.268  69.645  0.00  0.00    -0.041 I 
ATOM      4  C   UNL     1     -11.633  12.763  66.954  0.00  0.00    +0.066 A 
ATOM      5  C   UNL     1     -10.999  11.839  66.130  0.00  0.00    +0.040 A 
ATOM      6  I   UNL     1     -11.031  12.123  64.033  0.00  0.00    -0.042 I 
ATOM      7  C   UNL     1     -10.224  10.802  66.634  0.00  0.00    +0.067 A 
ATOM      8  C   UNL     1     -10.231  10.549  67.990  0.00  0.00    +0.051 A 
ATOM      9  I   UNL     1      -8.869   9.221  68.912  0.00  0.00    -0.041 I 
ENDROOT
BRANCH   4  10
ATOM     10  C   UNL     1     -11.822  14.131  66.491  0.00  0.00    +0.250 C 
ATOM     11  N   UNL     1     -10.786  15.111  66.454  0.00  0.00    -0.272 N 
ATOM     12  C   UNL     1      -9.805  14.958  65.381  0.00  0.00    +0.115 C 
ATOM     13  O   UNL     1     -12.848  14.380  65.786  0.00  0.00    -0.270 OA
BRANCH  11  14
ATOM     14  C   UNL     1     -11.235  16.452  66.836  0.00  0.00    +0.129 C 
BRANCH  14  15
ATOM     15  C   UNL     1      -9.842  17.376  66.671  0.00  0.00    +0.204 C 
ATOM     16  O   UNL     1     -10.564  18.360  65.720  0.00  0.00    -0.218 OA
BRANCH  15  17
ATOM     17  C   UNL     1     -10.247  18.316  68.007  0.00  0.00    +0.217 C 
ATOM     18  O   UNL     1     -11.079  19.227  67.373  0.00  0.00    -0.218 OA
ENDBRANCH  15  17
ENDBRANCH  14  15
ENDBRANCH  11  14
ENDBRANCH   4  10
BRANCH   7  19
ATOM     19  C   UNL     1      -9.097  10.235  65.876  0.00  0.00    +0.266 C 
ATOM     20  N   UNL     1      -9.205   9.104  65.063  0.00  0.00    -0.199 NA
ATOM     21  O   UNL     1      -8.001  10.864  65.761  0.00  0.00    -0.268 OA
BRANCH  20  22
ATOM     22  C   UNL     1      -8.423   8.646  64.003  0.00  0.00    +0.151 C 
BRANCH  22  23
ATOM     23  C   UNL     1      -9.042   9.323  62.591  0.00  0.00    +0.206 C 
ATOM     24  O   UNL     1      -8.611   8.132  61.698  0.00  0.00    -0.218 OA
BRANCH  23  25
ATOM     25  C   UNL     1      -7.603  10.145  62.307  0.00  0.00    +0.217 C 
ATOM     26  O   UNL     1      -8.035  11.344  61.756  0.00  0.00    -0.218 OA
ENDBRANCH  23  25
ENDBRANCH  22  23
ENDBRANCH  20  22
ENDBRANCH   7  19
BRANCH   1  28
ATOM     27  C   UNL     1     -12.522  10.566  70.438  0.00  0.00    +0.276 C 
ATOM     28  N   UNL     1     -11.211  11.076  70.168  0.00  0.00    -0.176 NA
ATOM     29  O   UNL     1     -13.297  10.272  69.500  0.00  0.00    -0.270 OA
BRANCH  27  30
ATOM     30  C   UNL     1     -12.760  10.026  71.812  0.00  0.00    +0.229 C 
BRANCH  30  32
ATOM     31  C   UNL     1     -11.823   8.088  72.377  0.00  0.00    +0.175 C 
ATOM     32  O   UNL     1     -12.839   8.628  71.706  0.00  0.00    -0.342 OA
ENDBRANCH  30  32
ENDBRANCH  27  30
ENDBRANCH   1  28
TORSDOF 11
ENDMDL
MODEL 5
REMARK VINA RESULT:      -5.1      3.268      6.303
REMARK  Name = 
REMARK  11 active torsions:
REMARK  status: ('A' for Active; 'I' for Inactive)
REMARK    1  A    between atoms: O_2  and  C_3
REMARK    2  A    between atoms: C_3  and  C_4
REMARK    3  A    between atoms: N_6  and  C_7
REMARK    4  A    between atoms: C_10  and  C_11
REMARK    5  A    between atoms: N_13  and  C_14
REMARK    6  A    between atoms: C_14  and  C_15
REMARK    7  A    between atoms: C_15  and  C_17
REMARK    8  A    between atoms: C_21  and  C_22
REMARK    9  A    between atoms: N_24  and  C_26
REMARK   10  A    between atoms: C_26  and  C_27
REMARK   11  A    between atoms: C_27  and  C_29
REMARK                            x       y       z     vdW  Elec       q    Type
REMARK                         _______ _______ _______ _____ _____    ______ ____
ROOT
ATOM      1  C   UNL     1      -9.431  10.873  68.536  0.00  0.00    +0.084 A 
ATOM      2  C   UNL     1     -10.573  11.649  68.692  0.00  0.00    +0.051 A 
ATOM      3  I   UNL     1     -12.051  10.981  70.057  0.00  0.00    -0.041 I 
ATOM      4  C   UNL     1     -10.568  12.954  68.207  0.00  0.00    +0.066 A 
ATOM      5  C   UNL     1      -9.341  13.492  67.834  0.00  0.00    +0.040 A 
ATOM      6  I   UNL     1      -9.226  15.531  67.280  0.00  0.00    -0.042 I 
ATOM      7  C   UNL     1      -8.153  12.779  67.940  0.00  0.00    +0.067 A 
ATOM      8  C   UNL     1      -8.196  11.433  68.237  0.00  0.00    +0.051 A 
ATOM      9  I   UNL     1      -6.471  10.317  68.734  0.00  0.00    -0.041 I 
ENDROOT
BRANCH   4  10
ATOM     10  C   UNL     1     -11.606  13.826  68.738  0.00  0.00    +0.250 C 
ATOM     11  N   UNL     1     -11.621  14.327  70.073  0.00  0.00    -0.272 N 
ATOM     12  C   UNL     1     -10.670  15.401  70.359  0.00  0.00    +0.115 C 
ATOM     13  O   UNL     1     -12.349  14.435  67.908  0.00  0.00    -0.270 OA
BRANCH  11  14
ATOM     14  C   UNL     1     -12.958  14.369  70.669  0.00  0.00    +0.129 C 
BRANCH  14  15
ATOM     15  C   UNL     1     -12.832  15.613  71.791  0.00  0.00    +0.204 C 
ATOM     16  O   UNL     1     -14.367  15.810  71.799  0.00  0.00    -0.218 OA
BRANCH  15  17
ATOM     17  C   UNL     1     -12.931  14.530  73.076  0.00  0.00    +0.217 C 
ATOM     18  O   UNL     1     -14.001  13.772  72.625  0.00  0.00    -0.218 OA
ENDBRANCH  15  17
ENDBRANCH  14  15
ENDBRANCH  11  14
ENDBRANCH   4  10
BRANCH   7  19
ATOM     19  C   UNL     1      -6.861  13.450  68.162  0.00  0.00    +0.266 C 
ATOM     20  N   UNL     1      -6.395  13.826  69.424  0.00  0.00    -0.199 NA
ATOM     21  O   UNL     1      -6.003  13.545  67.232  0.00  0.00    -0.268 OA
BRANCH  20  22
ATOM     22  C   UNL     1      -5.109  14.095  69.895  0.00  0.00    +0.151 C 
BRANCH  22  23
ATOM     23  C   UNL     1      -5.254  15.210  71.148  0.00  0.00    +0.206 C 
ATOM     24  O   UNL     1      -3.845  15.814  70.922  0.00  0.00    -0.218 OA
BRANCH  23  25
ATOM     25  C   UNL     1      -4.673  14.093  72.262  0.00  0.00    +0.217 C 
ATOM     26  O   UNL     1      -5.796  13.804  73.025  0.00  0.00    -0.218 OA
ENDBRANCH  23  25
ENDBRANCH  22  23
ENDBRANCH  20  22
ENDBRANCH   7  19
BRANCH   1  28
ATOM     27  C   UNL     1     -10.079   8.829  67.380  0.00  0.00    +0.276 C 
ATOM     28  N   UNL     1      -9.590   9.452  68.574  0.00  0.00    -0.176 NA
ATOM     29  O   UNL     1     -10.176   9.480  66.315  0.00  0.00    -0.270 OA
BRANCH  27  30
ATOM     30  C   UNL     1     -10.069   7.334  67.352  0.00  0.00    +0.229 C 
BRANCH  30  32
ATOM     31  C   UNL     1     -11.035   6.065  68.904  0.00  0.00    +0.175 C 
ATOM     32  O   UNL     1     -10.012   6.889  68.683  0.00  0.00    -0.342 OA
ENDBRANCH  30  32
ENDBRANCH  27  30
ENDBRANCH   1  28
TORSDOF 11
ENDMDL
MODEL 6
REMARK VINA RESULT:      -5.0      3.862      5.158
REMARK  Name = 
REMARK  11 active torsions:
REMARK  status: ('A' for Active; 'I' for Inactive)
REMARK    1  A    between atoms: O_2  and  C_3
REMARK    2  A    between atoms: C_3  and  C_4
REMARK    3  A    between atoms: N_6  and  C_7
REMARK    4  A    between atoms: C_10  and  C_11
REMARK    5  A    between atoms: N_13  and  C_14
REMARK    6  A    between atoms: C_14  and  C_15
REMARK    7  A    between atoms: C_15  and  C_17
REMARK    8  A    between atoms: C_21  and  C_22
REMARK    9  A    between atoms: N_24  and  C_26
REMARK   10  A    between atoms: C_26  and  C_27
REMARK   11  A    between atoms: C_27  and  C_29
REMARK                            x       y       z     vdW  Elec       q    Type
REMARK                         _______ _______ _______ _____ _____    ______ ____
ROOT
ATOM      1  C   UNL     1      -7.764  15.947  67.970  0.00  0.00    +0.084 A 
ATOM      2  C   UNL     1      -7.354  14.620  67.927  0.00  0.00    +0.051 A 
ATOM      3  I   UNL     1      -5.329  14.188  68.378  0.00  0.00    -0.041 I 
ATOM      4  C   UNL     1      -8.324  13.620  67.903  0.00  0.00    +0.066 A 
ATOM      5  C   UNL     1      -9.632  13.992  68.192  0.00  0.00    +0.040 A 
ATOM      6  I   UNL     1     -11.120  12.499  68.373  0.00  0.00    -0.042 I 
ATOM      7  C   UNL     1      -9.982  15.301  68.501  0.00  0.00    +0.067 A 
ATOM      8  C   UNL     1      -9.055  16.308  68.332  0.00  0.00    +0.051 A 
ATOM      9  I   UNL     1      -9.354  18.270  69.057  0.00  0.00    -0.041 I 
ENDROOT
BRANCH   4  10
ATOM     10  C   UNL     1      -7.858  12.286  68.257  0.00  0.00    +0.250 C 
ATOM     11  N   UNL     1      -7.739  11.210  67.329  0.00  0.00    -0.272 N 
ATOM     12  C   UNL     1      -6.604  11.287  66.410  0.00  0.00    +0.115 C 
ATOM     13  O   UNL     1      -7.221  12.153  69.347  0.00  0.00    -0.270 OA
BRANCH  11  14
ATOM     14  C   UNL     1      -8.134   9.913  67.881  0.00  0.00    +0.129 C 
BRANCH  14  15
ATOM     15  C   UNL     1      -8.255   8.943  66.515  0.00  0.00    +0.204 C 
ATOM     16  O   UNL     1      -8.368   7.668  67.386  0.00  0.00    -0.218 OA
BRANCH  15  17
ATOM     17  C   UNL     1      -9.929   9.110  66.484  0.00  0.00    +0.217 C 
ATOM     18  O   UNL     1     -10.058   9.663  65.218  0.00  0.00    -0.218 OA
ENDBRANCH  15  17
ENDBRANCH  14  15
ENDBRANCH  11  14
ENDBRANCH   4  10
BRANCH   7  19
ATOM     19  C   UNL     1     -11.125  15.614  69.375  0.00  0.00    +0.266 C 
ATOM     20  N   UNL     1     -11.089  15.486  70.766  0.00  0.00    -0.199 NA
ATOM     21  O   UNL     1     -12.150  16.212  68.926  0.00  0.00    -0.268 OA
BRANCH  20  22
ATOM     22  C   UNL     1     -11.864  16.066  71.770  0.00  0.00    +0.151 C 
BRANCH  22  23
ATOM     23  C   UNL     1     -12.963  14.902  72.293  0.00  0.00    +0.206 C 
ATOM     24  O   UNL     1     -14.130  15.912  72.444  0.00  0.00    -0.218 OA
BRANCH  23  25
ATOM     25  C   UNL     1     -12.484  15.112  73.892  0.00  0.00    +0.217 C 
ATOM     26  O   UNL     1     -12.771  16.450  74.127  0.00  0.00    -0.218 OA
ENDBRANCH  23  25
ENDBRANCH  22  23
ENDBRANCH  20  22
ENDBRANCH   7  19
BRANCH   1  28
ATOM     27  C   UNL     1      -7.075  17.473  66.201  0.00  0.00    +0.276 C 
ATOM     28  N   UNL     1      -6.839  16.936  67.508  0.00  0.00    -0.176 NA
ATOM     29  O   UNL     1      -8.137  17.220  65.590  0.00  0.00    -0.270 OA
BRANCH  27  30
ATOM     30  C   UNL     1      -6.227  18.635  65.791  0.00  0.00    +0.229 C 
BRANCH  30  32
ATOM     31  C   UNL     1      -5.362  19.088  63.792  0.00  0.00    +0.175 C 
ATOM     32  O   UNL     1      -6.510  18.907  64.443  0.00  0.00    -0.342 OA
ENDBRANCH  30  32
ENDBRANCH  27  30
ENDBRANCH   1  28
TORSDOF 11
ENDMDL
MODEL 7
REMARK VINA RESULT:      -5.0      3.225      8.502
REMARK  Name = 
REMARK  11 active torsions:
REMARK  status: ('A' for Active; 'I' for Inactive)
REMARK    1  A    between atoms: O_2  and  C_3
REMARK    2  A    between atoms: C_3  and  C_4
REMARK    3  A    between atoms: N_6  and  C_7
REMARK    4  A    between atoms: C_10  and  C_11
REMARK    5  A    between atoms: N_13  and  C_14
REMARK    6  A    between atoms: C_14  and  C_15
REMARK    7  A    between atoms: C_15  and  C_17
REMARK    8  A    between atoms: C_21  and  C_22
REMARK    9  A    between atoms: N_24  and  C_26
REMARK   10  A    between atoms: C_26  and  C_27
REMARK   11  A    between atoms: C_27  and  C_29
REMARK                            x       y       z     vdW  Elec       q    Type
REMARK                         _______ _______ _______ _____ _____    ______ ____
ROOT
ATOM      1  C   UNL     1     -11.173  11.431  69.176  0.00  0.00    +0.084 A 
ATOM      2  C   UNL     1     -11.622  12.613  68.600  0.00  0.00    +0.051 A 
ATOM      3  I   UNL     1     -11.750  14.334  69.830  0.00  0.00    -0.041 I 
ATOM      4  C   UNL     1     -11.667  12.706  67.212  0.00  0.00    +0.066 A 
ATOM      5  C   UNL     1     -11.014  11.718  66.483  0.00  0.00    +0.040 A 
ATOM      6  I   UNL     1     -10.868  11.902  64.381  0.00  0.00    -0.042 I 
ATOM      7  C   UNL     1     -10.331  10.673  67.094  0.00  0.00    +0.067 A 
ATOM      8  C   UNL     1     -10.457  10.486  68.455  0.00  0.00    +0.051 A 
ATOM      9  I   UNL     1      -9.235   9.146  69.541  0.00  0.00    -0.041 I 
ENDROOT
BRANCH   4  10
ATOM     10  C   UNL     1     -11.756  14.057  66.676  0.00  0.00    +0.250 C 
ATOM     11  N   UNL     1     -10.679  14.993  66.689  0.00  0.00    -0.272 N 
ATOM     12  C   UNL     1      -9.614  14.751  65.716  0.00  0.00    +0.115 C 
ATOM     13  O   UNL     1     -12.704  14.314  65.871  0.00  0.00    -0.270 OA
BRANCH  11  14
ATOM     14  C   UNL     1     -11.099  16.367  66.971  0.00  0.00    +0.129 C 
BRANCH  14  15
ATOM     15  C   UNL     1      -9.716  17.260  66.641  0.00  0.00    +0.204 C 
ATOM     16  O   UNL     1     -10.506  18.206  65.704  0.00  0.00    -0.218 OA
BRANCH  15  17
ATOM     17  C   UNL     1      -9.996  18.273  67.955  0.00  0.00    +0.217 C 
ATOM     18  O   UNL     1     -11.070  18.986  67.442  0.00  0.00    -0.218 OA
ENDBRANCH  15  17
ENDBRANCH  14  15
ENDBRANCH  11  14
ENDBRANCH   4  10
BRANCH   7  19
ATOM     19  C   UNL     1      -9.176  10.022  66.455  0.00  0.00    +0.266 C 
ATOM     20  N   UNL     1      -9.251   8.796  65.790  0.00  0.00    -0.199 NA
ATOM     21  O   UNL     1      -8.078  10.640  66.299  0.00  0.00    -0.268 OA
BRANCH  20  22
ATOM     22  C   UNL     1      -8.430   8.212  64.825  0.00  0.00    +0.151 C 
BRANCH  22  23
ATOM     23  C   UNL     1      -8.259   6.586  65.225  0.00  0.00    +0.206 C 
ATOM     24  O   UNL     1      -9.413   6.605  66.260  0.00  0.00    -0.218 OA
BRANCH  23  25
ATOM     25  C   UNL     1      -7.111   6.954  66.397  0.00  0.00    +0.217 C 
ATOM     26  O   UNL     1      -7.583   6.282  67.516  0.00  0.00    -0.218 OA
ENDBRANCH  23  25
ENDBRANCH  22  23
ENDBRANCH  20  22
ENDBRANCH   7  19
BRANCH   1  28
ATOM     27  C   UNL     1     -12.862  10.545  70.692  0.00  0.00    +0.276 C 
ATOM     28  N   UNL     1     -11.579  11.159  70.521  0.00  0.00    -0.176 NA
ATOM     29  O   UNL     1     -13.495  10.108  69.705  0.00  0.00    -0.270 OA
BRANCH  27  30
ATOM     30  C   UNL     1     -13.208  10.090  72.073  0.00  0.00    +0.229 C 
BRANCH  30  32
ATOM     31  C   UNL     1     -12.088   8.187  72.348  0.00  0.00    +0.175 C 
ATOM     32  O   UNL     1     -13.285   8.688  72.047  0.00  0.00    -0.342 OA
ENDBRANCH  30  32
ENDBRANCH  27  30
ENDBRANCH   1  28
TORSDOF 11
ENDMDL
MODEL 8
REMARK VINA RESULT:      -5.0      2.530      8.375
REMARK  Name = 
REMARK  11 active torsions:
REMARK  status: ('A' for Active; 'I' for Inactive)
REMARK    1  A    between atoms: O_2  and  C_3
REMARK    2  A    between atoms: C_3  and  C_4
REMARK    3  A    between atoms: N_6  and  C_7
REMARK    4  A    between atoms: C_10  and  C_11
REMARK    5  A    between atoms: N_13  and  C_14
REMARK    6  A    between atoms: C_14  and  C_15
REMARK    7  A    between atoms: C_15  and  C_17
REMARK    8  A    between atoms: C_21  and  C_22
REMARK    9  A    between atoms: N_24  and  C_26
REMARK   10  A    between atoms: C_26  and  C_27
REMARK   11  A    between atoms: C_27  and  C_29
REMARK                            x       y       z     vdW  Elec       q    Type
REMARK                         _______ _______ _______ _____ _____    ______ ____
ROOT
ATOM      1  C   UNL     1      -9.857   8.899  67.576  0.00  0.00    +0.084 A 
ATOM      2  C   UNL     1     -10.709   9.995  67.526  0.00  0.00    +0.051 A 
ATOM      3  I   UNL     1     -11.316  10.869  69.358  0.00  0.00    -0.041 I 
ATOM      4  C   UNL     1     -10.875  10.659  66.313  0.00  0.00    +0.066 A 
ATOM      5  C   UNL     1      -9.983  10.355  65.290  0.00  0.00    +0.040 A 
ATOM      6  I   UNL     1     -10.047  11.467  63.491  0.00  0.00    -0.042 I 
ATOM      7  C   UNL     1      -8.954   9.435  65.451  0.00  0.00    +0.067 A 
ATOM      8  C   UNL     1      -8.919   8.649  66.584  0.00  0.00    +0.051 A 
ATOM      9  I   UNL     1      -7.253   7.451  67.092  0.00  0.00    -0.041 I 
ENDROOT
BRANCH   4  10
ATOM     10  C   UNL     1     -11.441  11.998  66.402  0.00  0.00    +0.250 C 
ATOM     11  N   UNL     1     -10.768  13.110  66.990  0.00  0.00    -0.272 N 
ATOM     12  C   UNL     1      -9.690  13.694  66.194  0.00  0.00    +0.115 C 
ATOM     13  O   UNL     1     -12.420  12.278  65.644  0.00  0.00    -0.270 OA
BRANCH  11  14
ATOM     14  C   UNL     1     -11.651  13.987  67.763  0.00  0.00    +0.129 C 
BRANCH  14  15
ATOM     15  C   UNL     1     -10.573  14.913  68.657  0.00  0.00    +0.204 C 
ATOM     16  O   UNL     1     -11.249  16.223  68.183  0.00  0.00    -0.218 OA
BRANCH  15  17
ATOM     17  C   UNL     1     -11.568  14.852  70.013  0.00  0.00    +0.217 C 
ATOM     18  O   UNL     1     -12.340  15.975  69.754  0.00  0.00    -0.218 OA
ENDBRANCH  15  17
ENDBRANCH  14  15
ENDBRANCH  11  14
ENDBRANCH   4  10
BRANCH   7  19
ATOM     19  C   UNL     1      -7.693   9.541  64.698  0.00  0.00    +0.266 C 
ATOM     20  N   UNL     1      -7.428   8.816  63.533  0.00  0.00    -0.199 NA
ATOM     21  O   UNL     1      -6.849  10.453  64.955  0.00  0.00    -0.268 OA
BRANCH  20  22
ATOM     22  C   UNL     1      -6.525   9.032  62.492  0.00  0.00    +0.151 C 
BRANCH  22  23
ATOM     23  C   UNL     1      -7.271  10.055  61.382  0.00  0.00    +0.206 C 
ATOM     24  O   UNL     1      -6.590   9.400  60.153  0.00  0.00    -0.218 OA
BRANCH  23  25
ATOM     25  C   UNL     1      -6.042  11.191  61.544  0.00  0.00    +0.217 C 
ATOM     26  O   UNL     1      -6.561  12.302  60.893  0.00  0.00    -0.218 OA
ENDBRANCH  23  25
ENDBRANCH  22  23
ENDBRANCH  20  22
ENDBRANCH   7  19
BRANCH   1  28
ATOM     27  C   UNL     1     -10.881   6.821  68.333  0.00  0.00    +0.276 C 
ATOM     28  N   UNL     1     -10.059   7.956  68.634  0.00  0.00    -0.176 NA
ATOM     29  O   UNL     1     -11.236   6.586  67.156  0.00  0.00    -0.270 OA
BRANCH  27  30
ATOM     30  C   UNL     1     -10.941   5.745  69.369  0.00  0.00    +0.229 C 
BRANCH  30  32
ATOM     31  C   UNL     1     -11.050   5.925  71.584  0.00  0.00    +0.175 C 
ATOM     32  O   UNL     1     -11.677   6.247  70.454  0.00  0.00    -0.342 OA
ENDBRANCH  30  32
ENDBRANCH  27  30
ENDBRANCH   1  28
TORSDOF 11
ENDMDL
MODEL 9
REMARK VINA RESULT:      -4.9      3.508      7.096
REMARK  Name = 
REMARK  11 active torsions:
REMARK  status: ('A' for Active; 'I' for Inactive)
REMARK    1  A    between atoms: O_2  and  C_3
REMARK    2  A    between atoms: C_3  and  C_4
REMARK    3  A    between atoms: N_6  and  C_7
REMARK    4  A    between atoms: C_10  and  C_11
REMARK    5  A    between atoms: N_13  and  C_14
REMARK    6  A    between atoms: C_14  and  C_15
REMARK    7  A    between atoms: C_15  and  C_17
REMARK    8  A    between atoms: C_21  and  C_22
REMARK    9  A    between atoms: N_24  and  C_26
REMARK   10  A    between atoms: C_26  and  C_27
REMARK   11  A    between atoms: C_27  and  C_29
REMARK                            x       y       z     vdW  Elec       q    Type
REMARK                         _______ _______ _______ _____ _____    ______ ____
ROOT
ATOM      1  C   UNL     1      -9.774  11.104  65.143  0.00  0.00    +0.084 A 
ATOM      2  C   UNL     1     -10.323  12.367  65.324  0.00  0.00    +0.051 A 
ATOM      3  I   UNL     1     -12.313  12.689  64.670  0.00  0.00    -0.041 I 
ATOM      4  C   UNL     1      -9.688  13.257  66.187  0.00  0.00    +0.066 A 
ATOM      5  C   UNL     1      -8.697  12.745  67.017  0.00  0.00    +0.040 A 
ATOM      6  I   UNL     1      -7.831  13.991  68.491  0.00  0.00    -0.042 I 
ATOM      7  C   UNL     1      -8.342  11.402  67.010  0.00  0.00    +0.067 A 
ATOM      8  C   UNL     1      -8.838  10.575  66.023  0.00  0.00    +0.051 A 
ATOM      9  I   UNL     1      -8.633   8.473  66.083  0.00  0.00    -0.041 I 
ENDROOT
BRANCH   4  10
ATOM     10  C   UNL     1     -10.499  14.380  66.638  0.00  0.00    +0.250 C 
ATOM     11  N   UNL     1     -10.355  15.714  66.154  0.00  0.00    -0.272 N 
ATOM     12  C   UNL     1     -10.882  15.963  64.813  0.00  0.00    +0.115 C 
ATOM     13  O   UNL     1     -11.589  14.120  67.234  0.00  0.00    -0.270 OA
BRANCH  11  14
ATOM     14  C   UNL     1     -10.512  16.735  67.192  0.00  0.00    +0.129 C 
BRANCH  14  15
ATOM     15  C   UNL     1     -10.335  18.170  66.338  0.00  0.00    +0.204 C 
ATOM     16  O   UNL     1     -10.957  18.981  67.501  0.00  0.00    -0.218 OA
BRANCH  15  17
ATOM     17  C   UNL     1      -8.788  18.405  66.958  0.00  0.00    +0.217 C 
ATOM     18  O   UNL     1      -8.060  18.096  65.818  0.00  0.00    -0.218 OA
ENDBRANCH  15  17
ENDBRANCH  14  15
ENDBRANCH  11  14
ENDBRANCH   4  10
BRANCH   7  19
ATOM     19  C   UNL     1      -7.813  10.732  68.209  0.00  0.00    +0.266 C 
ATOM     20  N   UNL     1      -8.615  10.298  69.267  0.00  0.00    -0.199 NA
ATOM     21  O   UNL     1      -6.610  10.329  68.259  0.00  0.00    -0.268 OA
BRANCH  20  22
ATOM     22  C   UNL     1      -8.401   9.343  70.261  0.00  0.00    +0.151 C 
BRANCH  22  23
ATOM     23  C   UNL     1      -9.879   8.596  70.570  0.00  0.00    +0.206 C 
ATOM     24  O   UNL     1     -10.641   9.933  70.754  0.00  0.00    -0.218 OA
BRANCH  23  25
ATOM     25  C   UNL     1      -9.527   8.491  72.211  0.00  0.00    +0.217 C 
ATOM     26  O   UNL     1      -8.181   8.828  72.261  0.00  0.00    -0.218 OA
ENDBRANCH  23  25
ENDBRANCH  22  23
ENDBRANCH  20  22
ENDBRANCH   7  19
BRANCH   1  28
ATOM     27  C   UNL     1      -9.173  10.486  62.865  0.00  0.00    +0.276 C 
ATOM     28  N   UNL     1     -10.113  10.404  63.943  0.00  0.00    -0.176 NA
ATOM     29  O   UNL     1      -8.040  10.986  63.044  0.00  0.00    -0.270 OA
BRANCH  27  30
ATOM     30  C   UNL     1      -9.432   9.608  61.683  0.00  0.00    +0.229 C 
BRANCH  30  32
ATOM     31  C   UNL     1      -9.166   7.487  61.062  0.00  0.00    +0.175 C 
ATOM     32  O   UNL     1      -8.672   8.439  61.853  0.00  0.00    -0.342 OA
ENDBRANCH  30  32
ENDBRANCH  27  30
ENDBRANCH   1  28
TORSDOF 11
ENDMDL
