MODEL 1
REMARK VINA RESULT:      -4.6      0.000      0.000
REMARK  Name = 
REMARK  9 active torsions:
REMARK  status: ('A' for Active; 'I' for Inactive)
REMARK    1  A    between atoms: C_2  and  CA_3
REMARK    2  A    between atoms: CA_3  and  C_4
REMARK    3  A    between atoms: CA_3  and  N_6
REMARK    4  A    between atoms: N_6  and  C_7
REMARK    5  A    between atoms: C_7  and  C_8
REMARK    6  A    between atoms: C_8  and  N_9
REMARK    7  A    between atoms: N_9  and  CA_10
REMARK    8  A    between atoms: CA_10  and  C_11
REMARK    9  A    between atoms: CA_10  and  C_13
REMARK                            x       y       z     vdW  Elec       q    Type
REMARK                         _______ _______ _______ _____ _____    ______ ____
ROOT
ATOM      1  C   UNL     1     -11.200  16.341  68.776  0.00  0.00    +0.107 C 
ENDROOT
BRANCH   1   2
ATOM      2  C   UNL     1     -11.501  16.081  70.218  0.00  0.00    +0.107 C 
BRANCH   2   3
ATOM      3  N   UNL     1     -12.785  15.511  70.480  0.00  0.00    -0.215 NA
BRANCH   3   4
ATOM      4  CA  UNL     1     -12.596  14.613  71.789  0.00  0.00    +0.106 C 
BRANCH   4   5
ATOM      5  C   UNL     1     -12.519  15.972  72.747  0.00  0.00    +0.020 C 
ATOM      6  C   UNL     1     -12.420  15.450  74.144  0.00  0.00    +0.002 C 
ENDBRANCH   4   5
BRANCH   4   7
ATOM      7  C   UNL     1     -14.226  14.471  72.086  0.00  0.00    +0.199 C 
ATOM      8  O   UNL     1     -14.830  15.522  71.461  0.00  0.00    -0.219 OA
ENDBRANCH   4   7
ENDBRANCH   3   4
ENDBRANCH   2   3
ENDBRANCH   1   2
BRANCH   1   9
ATOM      9  N   UNL     1     -10.479  17.575  68.672  0.00  0.00    -0.215 NA
BRANCH   9  10
ATOM     10  CA  UNL     1     -10.614  18.025  67.148  0.00  0.00    +0.106 C 
BRANCH  10  12
ATOM     11  C   UNL     1      -9.963  20.028  67.272  0.00  0.00    +0.002 C 
ATOM     12  C   UNL     1     -10.404  19.633  67.536  0.00  0.00    +0.020 C 
ENDBRANCH  10  12
BRANCH  10  13
ATOM     13  C   UNL     1      -8.978  17.825  66.909  0.00  0.00    +0.199 C 
ATOM     14  O   UNL     1      -8.885  17.057  65.771  0.00  0.00    -0.219 OA
ENDBRANCH  10  13
ENDBRANCH   9  10
ENDBRANCH   1   9
TORSDOF 9
ENDMDL
MODEL 2
REMARK VINA RESULT:      -4.5      2.848      6.095
REMARK  Name = 
REMARK  9 active torsions:
REMARK  status: ('A' for Active; 'I' for Inactive)
REMARK    1  A    between atoms: C_2  and  CA_3
REMARK    2  A    between atoms: CA_3  and  C_4
REMARK    3  A    between atoms: CA_3  and  N_6
REMARK    4  A    between atoms: N_6  and  C_7
REMARK    5  A    between atoms: C_7  and  C_8
REMARK    6  A    between atoms: C_8  and  N_9
REMARK    7  A    between atoms: N_9  and  CA_10
REMARK    8  A    between atoms: CA_10  and  C_11
REMARK    9  A    between atoms: CA_10  and  C_13
REMARK                            x       y       z     vdW  Elec       q    Type
REMARK                         _______ _______ _______ _____ _____    ______ ____
ROOT
ATOM      1  C   UNL     1     -11.756  16.078  71.365  0.00  0.00    +0.107 C 
ENDROOT
BRANCH   1   2
ATOM      2  C   UNL     1     -11.025  16.107  70.059  0.00  0.00    +0.107 C 
BRANCH   2   3
ATOM      3  N   UNL     1     -11.747  15.582  68.944  0.00  0.00    -0.215 NA
BRANCH   3   4
ATOM      4  CA  UNL     1     -10.780  14.496  68.281  0.00  0.00    +0.106 C 
BRANCH   4   5
ATOM      5  C   UNL     1     -12.001  13.365  68.276  0.00  0.00    +0.020 C 
ATOM      6  C   UNL     1     -11.661  12.430  69.389  0.00  0.00    +0.002 C 
ENDBRANCH   4   5
BRANCH   4   7
ATOM      7  C   UNL     1     -11.147  14.931  66.718  0.00  0.00    +0.199 C 
ATOM      8  O   UNL     1     -12.196  14.150  66.332  0.00  0.00    -0.219 OA
ENDBRANCH   4   7
ENDBRANCH   3   4
ENDBRANCH   2   3
ENDBRANCH   1   2
BRANCH   1   9
ATOM      9  N   UNL     1     -13.135  15.776  71.113  0.00  0.00    -0.215 NA
BRANCH   9  10
ATOM     10  CA  UNL     1     -13.795  15.551  72.548  0.00  0.00    +0.106 C 
BRANCH  10  12
ATOM     11  C   UNL     1     -13.756  13.455  72.316  0.00  0.00    +0.002 C 
ATOM     12  C   UNL     1     -13.389  13.934  72.552  0.00  0.00    +0.020 C 
ENDBRANCH  10  12
BRANCH  10  13
ATOM     13  C   UNL     1     -12.368  15.955  73.305  0.00  0.00    +0.199 C 
ATOM     14  O   UNL     1     -12.726  16.204  74.610  0.00  0.00    -0.219 OA
ENDBRANCH  10  13
ENDBRANCH   9  10
ENDBRANCH   1   9
TORSDOF 9
ENDMDL
MODEL 3
REMARK VINA RESULT:      -4.5      1.724      6.521
REMARK  Name = 
REMARK  9 active torsions:
REMARK  status: ('A' for Active; 'I' for Inactive)
REMARK    1  A    between atoms: C_2  and  CA_3
REMARK    2  A    between atoms: CA_3  and  C_4
REMARK    3  A    between atoms: CA_3  and  N_6
REMARK    4  A    between atoms: N_6  and  C_7
REMARK    5  A    between atoms: C_7  and  C_8
REMARK    6  A    between atoms: C_8  and  N_9
REMARK    7  A    between atoms: N_9  and  CA_10
REMARK    8  A    between atoms: CA_10  and  C_11
REMARK    9  A    between atoms: CA_10  and  C_13
REMARK                            x       y       z     vdW  Elec       q    Type
REMARK                         _______ _______ _______ _____ _____    ______ ____
ROOT
ATOM      1  C   UNL     1     -11.726  16.043  71.147  0.00  0.00    +0.107 C 
ENDROOT
BRANCH   1   2
ATOM      2  C   UNL     1     -10.961  15.884  69.870  0.00  0.00    +0.107 C 
BRANCH   2   3
ATOM      3  N   UNL     1     -11.221  16.876  68.876  0.00  0.00    -0.215 NA
BRANCH   3   4
ATOM      4  CA  UNL     1      -9.791  17.474  68.484  0.00  0.00    +0.106 C 
BRANCH   4   5
ATOM      5  C   UNL     1      -9.409  16.090  67.641  0.00  0.00    +0.020 C 
ATOM      6  C   UNL     1      -9.323  16.524  66.214  0.00  0.00    +0.002 C 
ENDBRANCH   4   5
BRANCH   4   7
ATOM      7  C   UNL     1     -10.331  18.200  67.089  0.00  0.00    +0.199 C 
ATOM      8  O   UNL     1     -11.106  19.254  67.472  0.00  0.00    -0.219 OA
ENDBRANCH   4   7
ENDBRANCH   3   4
ENDBRANCH   2   3
ENDBRANCH   1   2
BRANCH   1   9
ATOM      9  N   UNL     1     -13.113  15.797  70.884  0.00  0.00    -0.215 NA
BRANCH   9  10
ATOM     10  CA  UNL     1     -13.784  15.555  72.311  0.00  0.00    +0.106 C 
BRANCH  10  12
ATOM     11  C   UNL     1     -13.789  13.448  72.398  0.00  0.00    +0.002 C 
ATOM     12  C   UNL     1     -13.377  13.940  72.303  0.00  0.00    +0.020 C 
ENDBRANCH  10  12
BRANCH  10  13
ATOM     13  C   UNL     1     -12.364  15.954  73.084  0.00  0.00    +0.199 C 
ATOM     14  O   UNL     1     -12.755  16.366  74.338  0.00  0.00    -0.219 OA
ENDBRANCH  10  13
ENDBRANCH   9  10
ENDBRANCH   1   9
TORSDOF 9
ENDMDL
MODEL 4
REMARK VINA RESULT:      -4.5      1.288      6.438
REMARK  Name = 
REMARK  9 active torsions:
REMARK  status: ('A' for Active; 'I' for Inactive)
REMARK    1  A    between atoms: C_2  and  CA_3
REMARK    2  A    between atoms: CA_3  and  C_4
REMARK    3  A    between atoms: CA_3  and  N_6
REMARK    4  A    between atoms: N_6  and  C_7
REMARK    5  A    between atoms: C_7  and  C_8
REMARK    6  A    between atoms: C_8  and  N_9
REMARK    7  A    between atoms: N_9  and  CA_10
REMARK    8  A    between atoms: CA_10  and  C_11
REMARK    9  A    between atoms: CA_10  and  C_13
REMARK                            x       y       z     vdW  Elec       q    Type
REMARK                         _______ _______ _______ _____ _____    ______ ____
ROOT
ATOM      1  C   UNL     1     -11.347  15.851  70.499  0.00  0.00    +0.107 C 
ENDROOT
BRANCH   1   2
ATOM      2  C   UNL     1     -11.468  15.832  69.008  0.00  0.00    +0.107 C 
BRANCH   2   3
ATOM      3  N   UNL     1     -11.293  17.096  68.366  0.00  0.00    -0.215 NA
BRANCH   3   4
ATOM      4  CA  UNL     1      -9.713  17.334  68.316  0.00  0.00    +0.106 C 
BRANCH   4   5
ATOM      5  C   UNL     1      -9.708  17.167  66.660  0.00  0.00    +0.020 C 
ATOM      6  C   UNL     1      -8.664  16.135  66.382  0.00  0.00    +0.002 C 
ENDBRANCH   4   5
BRANCH   4   7
ATOM      7  C   UNL     1      -9.835  18.987  68.169  0.00  0.00    +0.199 C 
ATOM      8  O   UNL     1     -11.022  19.237  67.548  0.00  0.00    -0.219 OA
ENDBRANCH   4   7
ENDBRANCH   3   4
ENDBRANCH   2   3
ENDBRANCH   1   2
BRANCH   1   9
ATOM      9  N   UNL     1     -12.660  15.770  71.068  0.00  0.00    -0.215 NA
BRANCH   9  10
ATOM     10  CA  UNL     1     -12.622  14.523  72.062  0.00  0.00    +0.106 C 
BRANCH  10  12
ATOM     11  C   UNL     1     -12.447  15.328  74.004  0.00  0.00    +0.002 C 
ATOM     12  C   UNL     1     -12.616  15.510  73.405  0.00  0.00    +0.020 C 
ENDBRANCH  10  12
BRANCH  10  13
ATOM     13  C   UNL     1     -14.285  14.441  72.076  0.00  0.00    +0.199 C 
ATOM     14  O   UNL     1     -14.695  15.606  71.468  0.00  0.00    -0.219 OA
ENDBRANCH  10  13
ENDBRANCH   9  10
ENDBRANCH   1   9
TORSDOF 9
ENDMDL
MODEL 5
REMARK VINA RESULT:      -4.5      2.960      6.317
REMARK  Name = 
REMARK  9 active torsions:
REMARK  status: ('A' for Active; 'I' for Inactive)
REMARK    1  A    between atoms: C_2  and  CA_3
REMARK    2  A    between atoms: CA_3  and  C_4
REMARK    3  A    between atoms: CA_3  and  N_6
REMARK    4  A    between atoms: N_6  and  C_7
REMARK    5  A    between atoms: C_7  and  C_8
REMARK    6  A    between atoms: C_8  and  N_9
REMARK    7  A    between atoms: N_9  and  CA_10
REMARK    8  A    between atoms: CA_10  and  C_11
REMARK    9  A    between atoms: CA_10  and  C_13
REMARK                            x       y       z     vdW  Elec       q    Type
REMARK                         _______ _______ _______ _____ _____    ______ ____
ROOT
ATOM      1  C   UNL     1     -11.593  15.894  70.336  0.00  0.00    +0.107 C 
ENDROOT
BRANCH   1   2
ATOM      2  C   UNL     1     -11.843  15.614  68.887  0.00  0.00    +0.107 C 
BRANCH   2   3
ATOM      3  N   UNL     1     -11.736  14.242  68.505  0.00  0.00    -0.215 NA
BRANCH   3   4
ATOM      4  CA  UNL     1     -12.042  14.210  66.936  0.00  0.00    +0.106 C 
BRANCH   4   5
ATOM      5  C   UNL     1     -10.546  14.858  66.599  0.00  0.00    +0.020 C 
ATOM      6  C   UNL     1     -10.661  15.381  65.205  0.00  0.00    +0.002 C 
ENDBRANCH   4   5
BRANCH   4   7
ATOM      7  C   UNL     1     -11.448  12.672  66.718  0.00  0.00    +0.199 C 
ATOM      8  O   UNL     1     -12.052  11.884  67.652  0.00  0.00    -0.219 OA
ENDBRANCH   4   7
ENDBRANCH   3   4
ENDBRANCH   2   3
ENDBRANCH   1   2
BRANCH   1   9
ATOM      9  N   UNL     1     -12.839  15.819  71.040  0.00  0.00    -0.215 NA
BRANCH   9  10
ATOM     10  CA  UNL     1     -12.713  14.552  72.002  0.00  0.00    +0.106 C 
BRANCH  10  12
ATOM     11  C   UNL     1     -12.527  15.315  73.959  0.00  0.00    +0.002 C 
ATOM     12  C   UNL     1     -12.713  15.506  73.368  0.00  0.00    +0.020 C 
ENDBRANCH  10  12
BRANCH  10  13
ATOM     13  C   UNL     1     -14.369  14.391  72.061  0.00  0.00    +0.199 C 
ATOM     14  O   UNL     1     -14.851  15.541  71.479  0.00  0.00    -0.219 OA
ENDBRANCH  10  13
ENDBRANCH   9  10
ENDBRANCH   1   9
TORSDOF 9
ENDMDL
MODEL 6
REMARK VINA RESULT:      -4.4      2.963      3.318
REMARK  Name = 
REMARK  9 active torsions:
REMARK  status: ('A' for Active; 'I' for Inactive)
REMARK    1  A    between atoms: C_2  and  CA_3
REMARK    2  A    between atoms: CA_3  and  C_4
REMARK    3  A    between atoms: CA_3  and  N_6
REMARK    4  A    between atoms: N_6  and  C_7
REMARK    5  A    between atoms: C_7  and  C_8
REMARK    6  A    between atoms: C_8  and  N_9
REMARK    7  A    between atoms: N_9  and  CA_10
REMARK    8  A    between atoms: CA_10  and  C_11
REMARK    9  A    between atoms: CA_10  and  C_13
REMARK                            x       y       z     vdW  Elec       q    Type
REMARK                         _______ _______ _______ _____ _____    ______ ____
ROOT
ATOM      1  C   UNL     1     -11.973  14.165  69.174  0.00  0.00    +0.107 C 
ENDROOT
BRANCH   1   2
ATOM      2  C   UNL     1     -11.924  15.557  69.722  0.00  0.00    +0.107 C 
BRANCH   2   3
ATOM      3  N   UNL     1     -12.931  15.868  70.687  0.00  0.00    -0.215 NA
BRANCH   3   4
ATOM      4  CA  UNL     1     -12.763  14.779  71.845  0.00  0.00    +0.106 C 
BRANCH   4   5
ATOM      5  C   UNL     1     -12.912  15.954  73.015  0.00  0.00    +0.020 C 
ATOM      6  C   UNL     1     -12.419  15.310  74.269  0.00  0.00    +0.002 C 
ENDBRANCH   4   5
BRANCH   4   7
ATOM      7  C   UNL     1     -14.389  14.444  71.946  0.00  0.00    +0.199 C 
ATOM      8  O   UNL     1     -15.045  15.565  71.532  0.00  0.00    -0.219 OA
ENDBRANCH   4   7
ENDBRANCH   3   4
ENDBRANCH   2   3
ENDBRANCH   1   2
BRANCH   1   9
ATOM      9  N   UNL     1     -11.073  14.077  68.062  0.00  0.00    -0.215 NA
BRANCH   9  10
ATOM     10  CA  UNL     1     -11.983  14.224  66.760  0.00  0.00    +0.106 C 
BRANCH  10  12
ATOM     11  C   UNL     1     -10.807  15.281  65.365  0.00  0.00    +0.002 C 
ATOM     12  C   UNL     1     -10.862  15.199  66.006  0.00  0.00    +0.020 C 
ENDBRANCH  10  12
BRANCH  10  13
ATOM     13  C   UNL     1     -11.307  12.856  66.093  0.00  0.00    +0.199 C 
ATOM     14  O   UNL     1     -12.013  11.813  66.649  0.00  0.00    -0.219 OA
ENDBRANCH  10  13
ENDBRANCH   9  10
ENDBRANCH   1   9
TORSDOF 9
ENDMDL
MODEL 7
REMARK VINA RESULT:      -4.4      2.044      2.384
REMARK  Name = 
REMARK  9 active torsions:
REMARK  status: ('A' for Active; 'I' for Inactive)
REMARK    1  A    between atoms: C_2  and  CA_3
REMARK    2  A    between atoms: CA_3  and  C_4
REMARK    3  A    between atoms: CA_3  and  N_6
REMARK    4  A    between atoms: N_6  and  C_7
REMARK    5  A    between atoms: C_7  and  C_8
REMARK    6  A    between atoms: C_8  and  N_9
REMARK    7  A    between atoms: N_9  and  CA_10
REMARK    8  A    between atoms: CA_10  and  C_11
REMARK    9  A    between atoms: CA_10  and  C_13
REMARK                            x       y       z     vdW  Elec       q    Type
REMARK                         _______ _______ _______ _____ _____    ______ ____
ROOT
ATOM      1  C   UNL     1     -11.848  14.776  68.007  0.00  0.00    +0.107 C 
ENDROOT
BRANCH   1   2
ATOM      2  C   UNL     1     -11.488  15.625  69.186  0.00  0.00    +0.107 C 
BRANCH   2   3
ATOM      3  N   UNL     1     -12.572  15.950  70.057  0.00  0.00    -0.215 NA
BRANCH   3   4
ATOM      4  CA  UNL     1     -12.764  14.671  70.997  0.00  0.00    +0.106 C 
BRANCH   4   5
ATOM      5  C   UNL     1     -11.527  15.176  71.989  0.00  0.00    +0.020 C 
ATOM      6  C   UNL     1     -12.176  16.089  72.977  0.00  0.00    +0.002 C 
ENDBRANCH   4   5
BRANCH   4   7
ATOM      7  C   UNL     1     -13.884  15.403  71.986  0.00  0.00    +0.199 C 
ATOM      8  O   UNL     1     -15.048  15.463  71.280  0.00  0.00    -0.219 OA
ENDBRANCH   4   7
ENDBRANCH   3   4
ENDBRANCH   2   3
ENDBRANCH   1   2
BRANCH   1   9
ATOM      9  N   UNL     1     -10.711  14.689  67.139  0.00  0.00    -0.215 NA
BRANCH   9  10
ATOM     10  CA  UNL     1     -10.498  16.161  66.561  0.00  0.00    +0.106 C 
BRANCH  10  12
ATOM     11  C   UNL     1      -8.434  16.367  66.179  0.00  0.00    +0.002 C 
ATOM     12  C   UNL     1      -8.863  15.913  66.355  0.00  0.00    +0.020 C 
ENDBRANCH  10  12
BRANCH  10  13
ATOM     13  C   UNL     1     -10.817  15.635  65.014  0.00  0.00    +0.199 C 
ATOM     14  O   UNL     1     -11.273  16.754  64.355  0.00  0.00    -0.219 OA
ENDBRANCH  10  13
ENDBRANCH   9  10
ENDBRANCH   1   9
TORSDOF 9
ENDMDL
MODEL 8
REMARK VINA RESULT:      -4.3      2.831      6.162
REMARK  Name = 
REMARK  9 active torsions:
REMARK  status: ('A' for Active; 'I' for Inactive)
REMARK    1  A    between atoms: C_2  and  CA_3
REMARK    2  A    between atoms: CA_3  and  C_4
REMARK    3  A    between atoms: CA_3  and  N_6
REMARK    4  A    between atoms: N_6  and  C_7
REMARK    5  A    between atoms: C_7  and  C_8
REMARK    6  A    between atoms: C_8  and  N_9
REMARK    7  A    between atoms: N_9  and  CA_10
REMARK    8  A    between atoms: CA_10  and  C_11
REMARK    9  A    between atoms: CA_10  and  C_13
REMARK                            x       y       z     vdW  Elec       q    Type
REMARK                         _______ _______ _______ _____ _____    ______ ____
ROOT
ATOM      1  C   UNL     1     -11.424  15.770  70.586  0.00  0.00    +0.107 C 
ENDROOT
BRANCH   1   2
ATOM      2  C   UNL     1     -11.770  15.625  69.137  0.00  0.00    +0.107 C 
BRANCH   2   3
ATOM      3  N   UNL     1     -12.092  14.298  68.717  0.00  0.00    -0.215 NA
BRANCH   3   4
ATOM      4  CA  UNL     1     -10.864  13.826  67.810  0.00  0.00    +0.106 C 
BRANCH   4   5
ATOM      5  C   UNL     1     -11.717  12.494  67.292  0.00  0.00    +0.020 C 
ATOM      6  C   UNL     1     -11.223  11.369  68.140  0.00  0.00    +0.002 C 
ENDBRANCH   4   5
BRANCH   4   7
ATOM      7  C   UNL     1     -11.352  14.685  66.472  0.00  0.00    +0.199 C 
ATOM      8  O   UNL     1     -12.530  14.134  66.063  0.00  0.00    -0.219 OA
ENDBRANCH   4   7
ENDBRANCH   3   4
ENDBRANCH   2   3
ENDBRANCH   1   2
BRANCH   1   9
ATOM      9  N   UNL     1     -12.638  15.854  71.342  0.00  0.00    -0.215 NA
BRANCH   9  10
ATOM     10  CA  UNL     1     -12.626  14.591  72.316  0.00  0.00    +0.106 C 
BRANCH  10  12
ATOM     11  C   UNL     1     -12.485  15.533  74.198  0.00  0.00    +0.002 C 
ATOM     12  C   UNL     1     -12.852  15.546  73.663  0.00  0.00    +0.020 C 
ENDBRANCH  10  12
BRANCH  10  13
ATOM     13  C   UNL     1     -14.268  14.389  72.130  0.00  0.00    +0.199 C 
ATOM     14  O   UNL     1     -14.706  15.580  71.596  0.00  0.00    -0.219 OA
ENDBRANCH  10  13
ENDBRANCH   9  10
ENDBRANCH   1   9
TORSDOF 9
ENDMDL
MODEL 9
REMARK VINA RESULT:      -4.2      4.415      6.731
REMARK  Name = 
REMARK  9 active torsions:
REMARK  status: ('A' for Active; 'I' for Inactive)
REMARK    1  A    between atoms: C_2  and  CA_3
REMARK    2  A    between atoms: CA_3  and  C_4
REMARK    3  A    between atoms: CA_3  and  N_6
REMARK    4  A    between atoms: N_6  and  C_7
REMARK    5  A    between atoms: C_7  and  C_8
REMARK    6  A    between atoms: C_8  and  N_9
REMARK    7  A    between atoms: N_9  and  CA_10
REMARK    8  A    between atoms: CA_10  and  C_11
REMARK    9  A    between atoms: CA_10  and  C_13
REMARK                            x       y       z     vdW  Elec       q    Type
REMARK                         _______ _______ _______ _____ _____    ______ ____
ROOT
ATOM      1  C   UNL     1     -10.993  15.316  64.796  0.00  0.00    +0.107 C 
ENDROOT
BRANCH   1   2
ATOM      2  C   UNL     1     -10.335  16.010  65.948  0.00  0.00    +0.107 C 
BRANCH   2   3
ATOM      3  N   UNL     1      -9.707  17.254  65.632  0.00  0.00    -0.215 NA
BRANCH   3   4
ATOM      4  CA  UNL     1      -9.091  17.783  67.008  0.00  0.00    +0.106 C 
BRANCH   4   5
ATOM      5  C   UNL     1      -9.020  19.337  66.415  0.00  0.00    +0.020 C 
ATOM      6  C   UNL     1     -10.441  19.706  66.137  0.00  0.00    +0.002 C 
ENDBRANCH   4   5
BRANCH   4   7
ATOM      7  C   UNL     1     -10.571  18.094  67.702  0.00  0.00    +0.199 C 
ATOM      8  O   UNL     1     -10.494  17.664  68.994  0.00  0.00    -0.219 OA
ENDBRANCH   4   7
ENDBRANCH   3   4
ENDBRANCH   2   3
ENDBRANCH   1   2
BRANCH   1   9
ATOM      9  N   UNL     1     -10.753  13.908  64.911  0.00  0.00    -0.215 NA
BRANCH   9  10
ATOM     10  CA  UNL     1     -12.186  13.245  65.139  0.00  0.00    +0.106 C 
BRANCH  10  12
ATOM     11  C   UNL     1     -12.229  11.979  63.453  0.00  0.00    +0.002 C 
ATOM     12  C   UNL     1     -12.210  12.610  63.598  0.00  0.00    +0.020 C 
ENDBRANCH  10  12
BRANCH  10  13
ATOM     13  C   UNL     1     -11.487  11.861  65.746  0.00  0.00    +0.199 C 
ATOM     14  O   UNL     1     -11.935  11.786  67.045  0.00  0.00    -0.219 OA
ENDBRANCH  10  13
ENDBRANCH   9  10
ENDBRANCH   1   9
TORSDOF 9
ENDMDL
