MODEL 1
REMARK VINA RESULT:      -6.6      0.000      0.000
REMARK  Name = 
REMARK  5 active torsions:
REMARK  status: ('A' for Active; 'I' for Inactive)
REMARK    1  A    between atoms: C_2  and  C_3
REMARK    2  A    between atoms: C_2  and  C_11
REMARK    3  A    between atoms: C_2  and  C_17
REMARK    4  A    between atoms: C_3  and  C_4
REMARK    5  A    between atoms: C_4  and  N_5
REMARK                            x       y       z     vdW  Elec       q    Type
REMARK                         _______ _______ _______ _____ _____    ______ ____
ROOT
ATOM      1  O   UNL     1     -10.158  14.726  69.943  0.00  0.00    -0.221 OA
ATOM      2  C   UNL     1     -11.293  15.198  69.609  0.00  0.00    +0.147 C 
ENDROOT
BRANCH   2   3
ATOM      3  C   UNL     1     -12.080  14.107  68.889  0.00  0.00    +0.032 C 
ATOM      4  C   UNL     1     -11.914  14.386  67.399  0.00  0.00    +0.003 C 
ATOM      5  C   UNL     1     -10.821  13.484  66.871  0.00  0.00    +0.000 C 
ATOM      6  C   UNL     1     -11.388  12.075  66.856  0.00  0.00    +0.000 C 
ATOM      7  C   UNL     1     -11.809  11.709  68.260  0.00  0.00    +0.000 C 
ATOM      8  C   UNL     1     -11.458  12.785  69.253  0.00  0.00    +0.003 C 
ENDBRANCH   2   3
BRANCH   2   9
ATOM      9  C   UNL     1     -12.064  15.536  70.823  0.00  0.00    +0.005 A 
ATOM     10  C   UNL     1     -11.465  15.337  72.061  0.00  0.00    -0.002 A 
ATOM     11  C   UNL     1     -12.242  15.585  73.185  0.00  0.00    -0.000 A 
ATOM     12  C   UNL     1     -13.606  15.753  73.063  0.00  0.00    -0.000 A 
ATOM     13  C   UNL     1     -14.207  15.280  71.904  0.00  0.00    -0.000 A 
ATOM     14  C   UNL     1     -13.425  15.260  70.776  0.00  0.00    -0.002 A 
ENDBRANCH   2   9
BRANCH   2  15
ATOM     15  C   UNL     1     -11.165  16.335  68.638  0.00  0.00    +0.052 C 
BRANCH  15  16
ATOM     16  C   UNL     1     -10.258  17.434  69.099  0.00  0.00    +0.075 C 
BRANCH  16  17
ATOM     17  N   UNL     1      -9.544  17.958  67.980  0.00  0.00    -0.273 NA
ATOM     18  C   UNL     1     -10.028  17.606  66.698  0.00  0.00    +0.072 C 
ATOM     19  C   UNL     1     -10.632  18.717  65.897  0.00  0.00    +0.017 C 
ATOM     20  C   UNL     1      -9.841  20.013  65.994  0.00  0.00    +0.003 C 
ATOM     21  C   UNL     1      -9.811  20.356  67.479  0.00  0.00    +0.017 C 
ATOM     22  C   UNL     1      -9.008  19.265  68.140  0.00  0.00    +0.072 C 
ENDBRANCH  16  17
ENDBRANCH  15  16
ENDBRANCH   2  15
TORSDOF 5
ENDMDL
MODEL 2
REMARK VINA RESULT:      -6.5      1.208      4.191
REMARK  Name = 
REMARK  5 active torsions:
REMARK  status: ('A' for Active; 'I' for Inactive)
REMARK    1  A    between atoms: C_2  and  C_3
REMARK    2  A    between atoms: C_2  and  C_11
REMARK    3  A    between atoms: C_2  and  C_17
REMARK    4  A    between atoms: C_3  and  C_4
REMARK    5  A    between atoms: C_4  and  N_5
REMARK                            x       y       z     vdW  Elec       q    Type
REMARK                         _______ _______ _______ _____ _____    ______ ____
ROOT
ATOM      1  O   UNL     1     -12.379  16.081  69.008  0.00  0.00    -0.221 OA
ATOM      2  C   UNL     1     -11.533  15.225  69.424  0.00  0.00    +0.147 C 
ENDROOT
BRANCH   2   3
ATOM      3  C   UNL     1     -12.073  14.588  70.701  0.00  0.00    +0.032 C 
ATOM      4  C   UNL     1     -11.252  15.180  71.841  0.00  0.00    +0.003 C 
ATOM      5  C   UNL     1     -12.050  16.306  72.460  0.00  0.00    +0.000 C 
ATOM      6  C   UNL     1     -13.201  15.662  73.214  0.00  0.00    +0.000 C 
ATOM      7  C   UNL     1     -14.017  14.843  72.241  0.00  0.00    +0.000 C 
ATOM      8  C   UNL     1     -13.520  14.985  70.828  0.00  0.00    +0.003 C 
ENDBRANCH   2   3
BRANCH   2   9
ATOM      9  C   UNL     1     -11.408  14.135  68.435  0.00  0.00    +0.005 A 
ATOM     10  C   UNL     1     -12.063  14.271  67.217  0.00  0.00    -0.002 A 
ATOM     11  C   UNL     1     -11.996  13.195  66.340  0.00  0.00    -0.000 A 
ATOM     12  C   UNL     1     -11.536  11.970  66.779  0.00  0.00    -0.000 A 
ATOM     13  C   UNL     1     -11.534  11.740  68.148  0.00  0.00    -0.000 A 
ATOM     14  C   UNL     1     -11.387  12.845  68.951  0.00  0.00    -0.002 A 
ENDBRANCH   2   9
BRANCH   2  15
ATOM     15  C   UNL     1     -10.224  15.860  69.791  0.00  0.00    +0.052 C 
BRANCH  15  16
ATOM     16  C   UNL     1      -9.271  16.005  68.644  0.00  0.00    +0.075 C 
BRANCH  16  17
ATOM     17  N   UNL     1      -8.860  17.367  68.541  0.00  0.00    -0.273 NA
ATOM     18  C   UNL     1      -7.832  17.650  67.612  0.00  0.00    +0.072 C 
ATOM     19  C   UNL     1      -8.234  18.449  66.411  0.00  0.00    +0.017 C 
ATOM     20  C   UNL     1      -9.178  19.594  66.752  0.00  0.00    +0.003 C 
ATOM     21  C   UNL     1     -10.386  18.936  67.409  0.00  0.00    +0.017 C 
ATOM     22  C   UNL     1      -9.884  18.341  68.700  0.00  0.00    +0.072 C 
ENDBRANCH  16  17
ENDBRANCH  15  16
ENDBRANCH   2  15
TORSDOF 5
ENDMDL
MODEL 3
REMARK VINA RESULT:      -6.3      2.946      5.036
REMARK  Name = 
REMARK  5 active torsions:
REMARK  status: ('A' for Active; 'I' for Inactive)
REMARK    1  A    between atoms: C_2  and  C_3
REMARK    2  A    between atoms: C_2  and  C_11
REMARK    3  A    between atoms: C_2  and  C_17
REMARK    4  A    between atoms: C_3  and  C_4
REMARK    5  A    between atoms: C_4  and  N_5
REMARK                            x       y       z     vdW  Elec       q    Type
REMARK                         _______ _______ _______ _____ _____    ______ ____
ROOT
ATOM      1  O   UNL     1      -9.978  12.743  68.543  0.00  0.00    -0.221 OA
ATOM      2  C   UNL     1     -11.232  12.522  68.560  0.00  0.00    +0.147 C 
ENDROOT
BRANCH   2   3
ATOM      3  C   UNL     1     -11.679  12.152  67.149  0.00  0.00    +0.032 C 
ATOM      4  C   UNL     1     -12.062  13.464  66.474  0.00  0.00    +0.003 C 
ATOM      5  C   UNL     1     -10.893  13.916  65.628  0.00  0.00    +0.000 C 
ATOM      6  C   UNL     1     -10.823  12.971  64.440  0.00  0.00    +0.000 C 
ATOM      7  C   UNL     1     -10.651  11.561  64.955  0.00  0.00    +0.000 C 
ATOM      8  C   UNL     1     -10.502  11.521  66.452  0.00  0.00    +0.003 C 
ENDBRANCH   2   3
BRANCH   2   9
ATOM      9  C   UNL     1     -11.515  11.347  69.409  0.00  0.00    +0.005 A 
ATOM     10  C   UNL     1     -12.399  11.498  70.471  0.00  0.00    -0.002 A 
ATOM     11  C   UNL     1     -12.583  10.400  71.301  0.00  0.00    -0.000 A 
ATOM     12  C   UNL     1     -11.725   9.322  71.225  0.00  0.00    -0.000 A 
ATOM     13  C   UNL     1     -10.492   9.527  70.621  0.00  0.00    -0.000 A 
ATOM     14  C   UNL     1     -10.442  10.500  69.654  0.00  0.00    -0.002 A 
ENDBRANCH   2   9
BRANCH   2  15
ATOM     15  C   UNL     1     -12.013  13.745  68.941  0.00  0.00    +0.052 C 
BRANCH  15  16
ATOM     16  C   UNL     1     -11.270  14.694  69.831  0.00  0.00    +0.075 C 
BRANCH  16  17
ATOM     17  N   UNL     1     -12.204  15.511  70.534  0.00  0.00    -0.273 NA
ATOM     18  C   UNL     1     -13.524  15.015  70.645  0.00  0.00    +0.072 C 
ATOM     19  C   UNL     1     -13.961  14.613  72.019  0.00  0.00    +0.017 C 
ATOM     20  C   UNL     1     -13.510  15.593  73.093  0.00  0.00    +0.003 C 
ATOM     21  C   UNL     1     -11.990  15.635  72.986  0.00  0.00    +0.017 C 
ATOM     22  C   UNL     1     -11.685  16.240  71.640  0.00  0.00    +0.072 C 
ENDBRANCH  16  17
ENDBRANCH  15  16
ENDBRANCH   2  15
TORSDOF 5
ENDMDL
MODEL 4
REMARK VINA RESULT:      -6.3      1.727      2.651
REMARK  Name = 
REMARK  5 active torsions:
REMARK  status: ('A' for Active; 'I' for Inactive)
REMARK    1  A    between atoms: C_2  and  C_3
REMARK    2  A    between atoms: C_2  and  C_11
REMARK    3  A    between atoms: C_2  and  C_17
REMARK    4  A    between atoms: C_3  and  C_4
REMARK    5  A    between atoms: C_4  and  N_5
REMARK                            x       y       z     vdW  Elec       q    Type
REMARK                         _______ _______ _______ _____ _____    ______ ____
ROOT
ATOM      1  O   UNL     1      -9.661  13.812  67.631  0.00  0.00    -0.221 OA
ATOM      2  C   UNL     1     -10.799  14.286  67.314  0.00  0.00    +0.147 C 
ENDROOT
BRANCH   2   3
ATOM      3  C   UNL     1     -11.563  13.229  66.522  0.00  0.00    +0.032 C 
ATOM      4  C   UNL     1     -12.583  13.992  65.684  0.00  0.00    +0.003 C 
ATOM      5  C   UNL     1     -12.019  14.153  64.290  0.00  0.00    +0.000 C 
ATOM      6  C   UNL     1     -12.058  12.779  63.642  0.00  0.00    +0.000 C 
ATOM      7  C   UNL     1     -11.245  11.825  64.486  0.00  0.00    +0.000 C 
ATOM      8  C   UNL     1     -10.570  12.523  65.637  0.00  0.00    +0.003 C 
ENDBRANCH   2   3
BRANCH   2   9
ATOM      9  C   UNL     1     -11.586  14.540  68.538  0.00  0.00    +0.005 A 
ATOM     10  C   UNL     1     -11.370  15.727  69.227  0.00  0.00    -0.002 A 
ATOM     11  C   UNL     1     -12.064  15.901  70.418  0.00  0.00    -0.000 A 
ATOM     12  C   UNL     1     -12.713  14.835  71.005  0.00  0.00    -0.000 A 
ATOM     13  C   UNL     1     -12.329  13.558  70.615  0.00  0.00    -0.000 A 
ATOM     14  C   UNL     1     -11.841  13.433  69.338  0.00  0.00    -0.002 A 
ENDBRANCH   2   9
BRANCH   2  15
ATOM     15  C   UNL     1     -10.680  15.482  66.415  0.00  0.00    +0.052 C 
BRANCH  15  16
ATOM     16  C   UNL     1      -9.269  15.915  66.157  0.00  0.00    +0.075 C 
BRANCH  16  17
ATOM     17  N   UNL     1      -9.235  17.331  65.983  0.00  0.00    -0.273 NA
ATOM     18  C   UNL     1     -10.462  18.018  66.131  0.00  0.00    +0.072 C 
ATOM     19  C   UNL     1     -10.576  18.907  67.330  0.00  0.00    +0.017 C 
ATOM     20  C   UNL     1      -9.311  19.711  67.593  0.00  0.00    +0.003 C 
ATOM     21  C   UNL     1      -8.208  18.674  67.776  0.00  0.00    +0.017 C 
ATOM     22  C   UNL     1      -8.060  17.987  66.443  0.00  0.00    +0.072 C 
ENDBRANCH  16  17
ENDBRANCH  15  16
ENDBRANCH   2  15
TORSDOF 5
ENDMDL
MODEL 5
REMARK VINA RESULT:      -6.3      1.751      5.177
REMARK  Name = 
REMARK  5 active torsions:
REMARK  status: ('A' for Active; 'I' for Inactive)
REMARK    1  A    between atoms: C_2  and  C_3
REMARK    2  A    between atoms: C_2  and  C_11
REMARK    3  A    between atoms: C_2  and  C_17
REMARK    4  A    between atoms: C_3  and  C_4
REMARK    5  A    between atoms: C_4  and  N_5
REMARK                            x       y       z     vdW  Elec       q    Type
REMARK                         _______ _______ _______ _____ _____    ______ ____
ROOT
ATOM      1  O   UNL     1      -9.169  15.534  69.544  0.00  0.00    -0.221 OA
ATOM      2  C   UNL     1      -9.945  15.735  68.555  0.00  0.00    +0.147 C 
ENDROOT
BRANCH   2   3
ATOM      3  C   UNL     1     -11.376  15.840  69.073  0.00  0.00    +0.032 C 
ATOM      4  C   UNL     1     -12.016  14.482  68.811  0.00  0.00    +0.003 C 
ATOM      5  C   UNL     1     -11.962  13.683  70.094  0.00  0.00    +0.000 C 
ATOM      6  C   UNL     1     -12.966  14.315  71.044  0.00  0.00    +0.000 C 
ATOM      7  C   UNL     1     -12.588  15.763  71.251  0.00  0.00    +0.000 C 
ATOM      8  C   UNL     1     -11.303  16.117  70.551  0.00  0.00    +0.003 C 
ENDBRANCH   2   3
BRANCH   2   9
ATOM      9  C   UNL     1      -9.629  17.038  67.936  0.00  0.00    +0.005 A 
ATOM     10  C   UNL     1      -8.563  17.770  68.447  0.00  0.00    -0.002 A 
ATOM     11  C   UNL     1      -8.341  19.027  67.900  0.00  0.00    -0.000 A 
ATOM     12  C   UNL     1      -9.295  19.612  67.092  0.00  0.00    -0.000 A 
ATOM     13  C   UNL     1     -10.590  19.117  67.171  0.00  0.00    -0.000 A 
ATOM     14  C   UNL     1     -10.717  17.796  67.521  0.00  0.00    -0.002 A 
ENDBRANCH   2   9
BRANCH   2  15
ATOM     15  C   UNL     1      -9.931  14.588  67.587  0.00  0.00    +0.052 C 
BRANCH  15  16
ATOM     16  C   UNL     1      -9.415  14.942  66.226  0.00  0.00    +0.075 C 
BRANCH  16  17
ATOM     17  N   UNL     1     -10.120  14.185  65.243  0.00  0.00    -0.273 NA
ATOM     18  C   UNL     1     -10.090  12.778  65.384  0.00  0.00    +0.072 C 
ATOM     19  C   UNL     1     -11.388  12.128  65.750  0.00  0.00    +0.017 C 
ATOM     20  C   UNL     1     -12.575  12.711  64.996  0.00  0.00    +0.003 C 
ATOM     21  C   UNL     1     -12.582  14.195  65.346  0.00  0.00    +0.017 C 
ATOM     22  C   UNL     1     -11.321  14.767  64.751  0.00  0.00    +0.072 C 
ENDBRANCH  16  17
ENDBRANCH  15  16
ENDBRANCH   2  15
TORSDOF 5
ENDMDL
MODEL 6
REMARK VINA RESULT:      -6.2      1.981      6.152
REMARK  Name = 
REMARK  5 active torsions:
REMARK  status: ('A' for Active; 'I' for Inactive)
REMARK    1  A    between atoms: C_2  and  C_3
REMARK    2  A    between atoms: C_2  and  C_11
REMARK    3  A    between atoms: C_2  and  C_17
REMARK    4  A    between atoms: C_3  and  C_4
REMARK    5  A    between atoms: C_4  and  N_5
REMARK                            x       y       z     vdW  Elec       q    Type
REMARK                         _______ _______ _______ _____ _____    ______ ____
ROOT
ATOM      1  O   UNL     1      -9.641  14.051  68.118  0.00  0.00    -0.221 OA
ATOM      2  C   UNL     1     -10.629  14.664  67.600  0.00  0.00    +0.147 C 
ENDROOT
BRANCH   2   3
ATOM      3  C   UNL     1     -10.106  15.891  66.860  0.00  0.00    +0.032 C 
ATOM      4  C   UNL     1     -10.323  17.071  67.800  0.00  0.00    +0.003 C 
ATOM      5  C   UNL     1      -9.017  17.352  68.509  0.00  0.00    +0.000 C 
ATOM      6  C   UNL     1      -8.080  17.954  67.476  0.00  0.00    +0.000 C 
ATOM      7  C   UNL     1      -7.919  16.971  66.340  0.00  0.00    +0.000 C 
ATOM      8  C   UNL     1      -8.637  15.675  66.609  0.00  0.00    +0.003 C 
ENDBRANCH   2   3
BRANCH   2   9
ATOM      9  C   UNL     1     -11.267  13.804  66.583  0.00  0.00    +0.005 A 
ATOM     10  C   UNL     1     -10.664  12.590  66.274  0.00  0.00    -0.002 A 
ATOM     11  C   UNL     1     -11.239  11.840  65.257  0.00  0.00    -0.000 A 
ATOM     12  C   UNL     1     -12.186  12.406  64.428  0.00  0.00    -0.000 A 
ATOM     13  C   UNL     1     -12.244  13.793  64.375  0.00  0.00    -0.000 A 
ATOM     14  C   UNL     1     -11.849  14.462  65.507  0.00  0.00    -0.002 A 
ENDBRANCH   2   9
BRANCH   2  15
ATOM     15  C   UNL     1     -11.582  15.176  68.641  0.00  0.00    +0.052 C 
BRANCH  15  16
ATOM     16  C   UNL     1     -12.365  14.104  69.334  0.00  0.00    +0.075 C 
BRANCH  16  17
ATOM     17  N   UNL     1     -12.032  14.098  70.722  0.00  0.00    -0.273 NA
ATOM     18  C   UNL     1     -11.385  15.251  71.224  0.00  0.00    +0.072 C 
ATOM     19  C   UNL     1     -12.183  16.090  72.172  0.00  0.00    +0.017 C 
ATOM     20  C   UNL     1     -12.970  15.261  73.177  0.00  0.00    +0.003 C 
ATOM     21  C   UNL     1     -13.874  14.365  72.337  0.00  0.00    +0.017 C 
ATOM     22  C   UNL     1     -12.955  13.440  71.581  0.00  0.00    +0.072 C 
ENDBRANCH  16  17
ENDBRANCH  15  16
ENDBRANCH   2  15
TORSDOF 5
ENDMDL
MODEL 7
REMARK VINA RESULT:      -6.2      2.302      4.689
REMARK  Name = 
REMARK  5 active torsions:
REMARK  status: ('A' for Active; 'I' for Inactive)
REMARK    1  A    between atoms: C_2  and  C_3
REMARK    2  A    between atoms: C_2  and  C_11
REMARK    3  A    between atoms: C_2  and  C_17
REMARK    4  A    between atoms: C_3  and  C_4
REMARK    5  A    between atoms: C_4  and  N_5
REMARK                            x       y       z     vdW  Elec       q    Type
REMARK                         _______ _______ _______ _____ _____    ______ ____
ROOT
ATOM      1  O   UNL     1     -11.925  16.284  68.402  0.00  0.00    -0.221 OA
ATOM      2  C   UNL     1     -11.484  15.301  69.080  0.00  0.00    +0.147 C 
ENDROOT
BRANCH   2   3
ATOM      3  C   UNL     1     -10.013  15.551  69.398  0.00  0.00    +0.032 C 
ATOM      4  C   UNL     1      -9.244  14.415  68.733  0.00  0.00    +0.003 C 
ATOM      5  C   UNL     1      -8.702  14.924  67.416  0.00  0.00    +0.000 C 
ATOM      6  C   UNL     1      -7.584  15.896  67.749  0.00  0.00    +0.000 C 
ATOM      7  C   UNL     1      -8.149  17.005  68.607  0.00  0.00    +0.000 C 
ATOM      8  C   UNL     1      -9.637  16.876  68.789  0.00  0.00    +0.003 C 
ENDBRANCH   2   3
BRANCH   2   9
ATOM      9  C   UNL     1     -12.188  15.241  70.377  0.00  0.00    +0.005 A 
ATOM     10  C   UNL     1     -11.721  16.035  71.418  0.00  0.00    -0.002 A 
ATOM     11  C   UNL     1     -12.349  15.896  72.649  0.00  0.00    -0.000 A 
ATOM     12  C   UNL     1     -13.200  14.834  72.878  0.00  0.00    -0.000 A 
ATOM     13  C   UNL     1     -13.095  13.737  72.034  0.00  0.00    -0.000 A 
ATOM     14  C   UNL     1     -12.659  13.990  70.757  0.00  0.00    -0.002 A 
ENDBRANCH   2   9
BRANCH   2  15
ATOM     15  C   UNL     1     -11.535  14.016  68.305  0.00  0.00    +0.052 C 
BRANCH  15  16
ATOM     16  C   UNL     1     -12.186  14.137  66.961  0.00  0.00    +0.075 C 
BRANCH  16  17
ATOM     17  N   UNL     1     -12.221  12.855  66.337  0.00  0.00    -0.273 NA
ATOM     18  C   UNL     1     -12.581  12.825  64.969  0.00  0.00    +0.072 C 
ATOM     19  C   UNL     1     -11.494  12.445  64.013  0.00  0.00    +0.017 C 
ATOM     20  C   UNL     1     -10.640  11.290  64.516  0.00  0.00    +0.003 C 
ATOM     21  C   UNL     1     -10.065  11.767  65.846  0.00  0.00    +0.017 C 
ATOM     22  C   UNL     1     -11.242  11.921  66.775  0.00  0.00    +0.072 C 
ENDBRANCH  16  17
ENDBRANCH  15  16
ENDBRANCH   2  15
TORSDOF 5
ENDMDL
MODEL 8
REMARK VINA RESULT:      -6.1      2.019      5.500
REMARK  Name = 
REMARK  5 active torsions:
REMARK  status: ('A' for Active; 'I' for Inactive)
REMARK    1  A    between atoms: C_2  and  C_3
REMARK    2  A    between atoms: C_2  and  C_11
REMARK    3  A    between atoms: C_2  and  C_17
REMARK    4  A    between atoms: C_3  and  C_4
REMARK    5  A    between atoms: C_4  and  N_5
REMARK                            x       y       z     vdW  Elec       q    Type
REMARK                         _______ _______ _______ _____ _____    ______ ____
ROOT
ATOM      1  O   UNL     1      -9.658  14.944  68.903  0.00  0.00    -0.221 OA
ATOM      2  C   UNL     1     -10.476  15.746  68.348  0.00  0.00    +0.147 C 
ENDROOT
BRANCH   2   3
ATOM      3  C   UNL     1     -11.767  15.764  69.163  0.00  0.00    +0.032 C 
ATOM      4  C   UNL     1     -12.351  14.360  69.049  0.00  0.00    +0.003 C 
ATOM      5  C   UNL     1     -11.968  13.590  70.292  0.00  0.00    +0.000 C 
ATOM      6  C   UNL     1     -12.785  14.169  71.434  0.00  0.00    +0.000 C 
ATOM      7  C   UNL     1     -12.474  15.643  71.551  0.00  0.00    +0.000 C 
ATOM      8  C   UNL     1     -11.397  16.070  70.590  0.00  0.00    +0.003 C 
ENDBRANCH   2   3
BRANCH   2   9
ATOM      9  C   UNL     1      -9.933  17.119  68.398  0.00  0.00    +0.005 A 
ATOM     10  C   UNL     1     -10.545  18.099  67.626  0.00  0.00    -0.002 A 
ATOM     11  C   UNL     1      -9.963  19.360  67.629  0.00  0.00    -0.000 A 
ATOM     12  C   UNL     1      -8.699  19.540  68.153  0.00  0.00    -0.000 A 
ATOM     13  C   UNL     1      -7.898  18.414  68.292  0.00  0.00    -0.000 A 
ATOM     14  C   UNL     1      -8.551  17.223  68.495  0.00  0.00    -0.002 A 
ENDBRANCH   2   9
BRANCH   2  15
ATOM     15  C   UNL     1     -10.856  15.297  66.968  0.00  0.00    +0.052 C 
BRANCH  15  16
ATOM     16  C   UNL     1      -9.966  14.232  66.404  0.00  0.00    +0.075 C 
BRANCH  16  17
ATOM     17  N   UNL     1     -10.764  13.135  65.963  0.00  0.00    -0.273 NA
ATOM     18  C   UNL     1     -12.058  13.444  65.483  0.00  0.00    +0.072 C 
ATOM     19  C   UNL     1     -12.281  13.242  64.017  0.00  0.00    +0.017 C 
ATOM     20  C   UNL     1     -11.651  11.958  63.495  0.00  0.00    +0.003 C 
ATOM     21  C   UNL     1     -10.165  12.081  63.817  0.00  0.00    +0.017 C 
ATOM     22  C   UNL     1     -10.066  12.075  65.321  0.00  0.00    +0.072 C 
ENDBRANCH  16  17
ENDBRANCH  15  16
ENDBRANCH   2  15
TORSDOF 5
ENDMDL
MODEL 9
REMARK VINA RESULT:      -6.0      3.088      7.667
REMARK  Name = 
REMARK  5 active torsions:
REMARK  status: ('A' for Active; 'I' for Inactive)
REMARK    1  A    between atoms: C_2  and  C_3
REMARK    2  A    between atoms: C_2  and  C_11
REMARK    3  A    between atoms: C_2  and  C_17
REMARK    4  A    between atoms: C_3  and  C_4
REMARK    5  A    between atoms: C_4  and  N_5
REMARK                            x       y       z     vdW  Elec       q    Type
REMARK                         _______ _______ _______ _____ _____    ______ ____
ROOT
ATOM      1  O   UNL     1      -9.765  12.640  67.807  0.00  0.00    -0.221 OA
ATOM      2  C   UNL     1     -11.013  12.595  67.557  0.00  0.00    +0.147 C 
ENDROOT
BRANCH   2   3
ATOM      3  C   UNL     1     -11.574  14.012  67.627  0.00  0.00    +0.032 C 
ATOM      4  C   UNL     1     -12.138  14.170  69.034  0.00  0.00    +0.003 C 
ATOM      5  C   UNL     1     -11.109  14.892  69.874  0.00  0.00    +0.000 C 
ATOM      6  C   UNL     1     -11.084  16.332  69.393  0.00  0.00    +0.000 C 
ATOM      7  C   UNL     1     -10.738  16.343  67.921  0.00  0.00    +0.000 C 
ATOM      8  C   UNL     1     -10.428  14.964  67.404  0.00  0.00    +0.003 C 
ENDBRANCH   2   3
BRANCH   2   9
ATOM      9  C   UNL     1     -11.222  12.131  66.171  0.00  0.00    +0.005 A 
ATOM     10  C   UNL     1     -10.107  11.802  65.410  0.00  0.00    -0.002 A 
ATOM     11  C   UNL     1     -10.328  11.448  64.085  0.00  0.00    -0.000 A 
ATOM     12  C   UNL     1     -11.556  11.680  63.501  0.00  0.00    -0.000 A 
ATOM     13  C   UNL     1     -12.391  12.607  64.112  0.00  0.00    -0.000 A 
ATOM     14  C   UNL     1     -12.251  12.749  65.470  0.00  0.00    -0.002 A 
ENDBRANCH   2   9
BRANCH   2  15
ATOM     15  C   UNL     1     -11.764  11.795  68.582  0.00  0.00    +0.052 C 
BRANCH  15  16
ATOM     16  C   UNL     1     -11.071  10.535  69.002  0.00  0.00    +0.075 C 
BRANCH  16  17
ATOM     17  N   UNL     1     -11.206  10.370  70.413  0.00  0.00    -0.273 NA
ATOM     18  C   UNL     1     -12.465  10.694  70.971  0.00  0.00    +0.072 C 
ATOM     19  C   UNL     1     -13.263   9.544  71.502  0.00  0.00    +0.017 C 
ATOM     20  C   UNL     1     -12.415   8.541  72.271  0.00  0.00    +0.003 C 
ATOM     21  C   UNL     1     -11.355   8.068  71.281  0.00  0.00    +0.017 C 
ATOM     22  C   UNL     1     -10.501   9.274  70.982  0.00  0.00    +0.072 C 
ENDBRANCH  16  17
ENDBRANCH  15  16
ENDBRANCH   2  15
TORSDOF 5
ENDMDL
