MODEL 1
REMARK VINA RESULT:      -9.0      0.000      0.000
REMARK  Name = 
REMARK  13 active torsions:
REMARK  status: ('A' for Active; 'I' for Inactive)
REMARK    1  A    between atoms: C_2  and  O_4
REMARK    2  A    between atoms: O_4  and  C_5
REMARK    3  A    between atoms: C_21  and  O_22
REMARK    4  A    between atoms: O_22  and  C_23
REMARK    5  A    between atoms: C_23  and  C_25
REMARK    6  A    between atoms: C_25  and  C_27
REMARK    7  A    between atoms: C_27  and  N_28
REMARK    8  A    between atoms: C_27  and  C_36
REMARK    9  A    between atoms: C_29  and  O_31
REMARK   10  A    between atoms: O_31  and  C_32
REMARK   11  A    between atoms: C_45  and  O_46
REMARK   12  A    between atoms: O_46  and  C_47
REMARK   13  A    between atoms: C_47  and  C_49
REMARK                            x       y       z     vdW  Elec       q    Type
REMARK                         _______ _______ _______ _____ _____    ______ ____
ROOT
ATOM      1  C   UNL     1      -7.797   6.235  66.577  0.00  0.00    +0.191 C 
ATOM      2  C   UNL     1      -8.311   7.332  65.693  0.00  0.00    +0.093 C 
ATOM      3  C   UNL     1      -7.976   7.336  64.231  0.00  0.00    +0.089 C 
ATOM      4  C   UNL     1      -8.295   8.232  63.072  0.00  0.00    +0.186 C 
ATOM      5  C   UNL     1      -9.081   9.498  62.895  0.00  0.00    +0.227 C 
ATOM      6  C   UNL     1      -9.874  10.389  63.803  0.00  0.00    -0.010 C 
ATOM      7  C   UNL     1     -10.210  10.387  65.265  0.00  0.00    +0.047 C 
ATOM      8  C   UNL     1     -10.990  11.651  65.063  0.00  0.00    +0.007 C 
ATOM      9  C   UNL     1     -10.783  11.025  65.942  0.00  0.00    +0.007 C 
ATOM     10  C   UNL     1      -9.890   9.489  66.424  0.00  0.00    +0.170 C 
ATOM     11  O   UNL     1     -10.501   9.971  67.707  0.00  0.00    -0.222 OA
ATOM     12  C   UNL     1     -10.745  10.657  66.820  0.00  0.00    +0.082 C 
ATOM     13  C   UNL     1     -11.165  11.662  65.790  0.00  0.00    +0.189 C 
ATOM     14  C   UNL     1     -10.730  11.500  64.363  0.00  0.00    -0.010 C 
ATOM     15  C   UNL     1     -11.150  12.507  63.333  0.00  0.00    +0.029 C 
ATOM     16  O   UNL     1      -9.073   9.985  61.476  0.00  0.00    -0.211 OA
ATOM     17  O   UNL     1      -7.684   7.752  61.789  0.00  0.00    -0.293 OA
ATOM     18  C   UNL     1      -7.541   7.175  62.804  0.00  0.00    +0.010 C 
ATOM     19  C   UNL     1      -7.127   6.242  63.654  0.00  0.00    +0.161 C 
ATOM     20  O   UNL     1      -6.792   6.246  62.191  0.00  0.00    -0.223 OA
ATOM     21  C   UNL     1      -6.614   5.145  64.538  0.00  0.00    +0.067 C 
ATOM     22  C   UNL     1      -9.104   8.224  66.602  0.00  0.00    +0.201 C 
ATOM     23  C   UNL     1      -6.949   5.142  66.000  0.00  0.00    +0.157 C 
ATOM     24  O   UNL     1      -6.846   4.506  67.355  0.00  0.00    -0.349 OA
ATOM     25  C   UNL     1      -7.694   5.600  67.932  0.00  0.00    +0.185 C 
ENDROOT
BRANCH  13  26
ATOM     26  O   UNL     1     -12.020  12.830  66.185  0.00  0.00    -0.446 OA
BRANCH  26  27
ATOM     27  C   UNL     1     -11.379  14.129  66.577  0.00  0.00    +0.350 C 
ATOM     28  O   UNL     1     -11.328  15.265  65.598  0.00  0.00    -0.247 OA
BRANCH  27  29
ATOM     29  C   UNL     1     -10.791  14.292  67.946  0.00  0.00    +0.274 C 
ATOM     30  O   UNL     1      -9.558  13.530  68.329  0.00  0.00    -0.209 OA
BRANCH  29  31
ATOM     31  C   UNL     1     -11.437  15.218  68.935  0.00  0.00    +0.162 C 
BRANCH  31  32
ATOM     32  C   UNL     1     -12.189  14.659  70.105  0.00  0.00    +0.001 A 
ATOM     33  C   UNL     1     -12.896  15.582  71.054  0.00  0.00    -0.003 A 
ATOM     34  C   UNL     1     -13.648  15.024  72.224  0.00  0.00    -0.000 A 
ATOM     35  C   UNL     1     -13.694  13.541  72.447  0.00  0.00    -0.000 A 
ATOM     36  C   UNL     1     -12.988  12.617  71.500  0.00  0.00    -0.000 A 
ATOM     37  C   UNL     1     -12.235  13.176  70.329  0.00  0.00    -0.003 A 
ENDBRANCH  31  32
BRANCH  31  38
ATOM     38  N   UNL     1     -11.330  16.703  68.752  0.00  0.00    -0.163 NA
ATOM     39  C   UNL     1      -9.988  17.370  68.808  0.00  0.00    +0.421 C 
ATOM     40  O   UNL     1      -8.753  16.553  69.047  0.00  0.00    -0.225 OA
BRANCH  39  41
ATOM     41  O   UNL     1      -9.881  18.855  68.625  0.00  0.00    -0.441 OA
BRANCH  41  42
ATOM     42  C   UNL     1      -9.004  19.417  67.545  0.00  0.00    +0.138 C 
ATOM     43  C   UNL     1      -8.127  19.979  66.465  0.00  0.00    +0.044 C 
ATOM     44  C   UNL     1      -7.894  19.592  68.538  0.00  0.00    +0.044 C 
ATOM     45  C   UNL     1     -10.114  19.242  66.552  0.00  0.00    +0.044 C 
ENDBRANCH  41  42
ENDBRANCH  39  41
ENDBRANCH  31  38
ENDBRANCH  29  31
ENDBRANCH  27  29
ENDBRANCH  26  27
ENDBRANCH  13  26
BRANCH  22  46
ATOM     46  O   UNL     1      -9.112   7.737  68.021  0.00  0.00    -0.446 OA
BRANCH  46  47
ATOM     47  C   UNL     1     -10.329   7.054  68.572  0.00  0.00    +0.341 C 
ATOM     48  O   UNL     1     -11.157   6.169  67.687  0.00  0.00    -0.245 OA
BRANCH  47  49
ATOM     49  C   UNL     1     -10.717   7.255  70.006  0.00  0.00    +0.076 A 
ATOM     50  C   UNL     1     -10.625   6.113  70.975  0.00  0.00    +0.006 A 
ATOM     51  C   UNL     1     -11.013   6.314  72.410  0.00  0.00    +0.000 A 
ATOM     52  C   UNL     1     -11.493   7.657  72.876  0.00  0.00    +0.000 A 
ATOM     53  C   UNL     1     -11.585   8.798  71.907  0.00  0.00    +0.000 A 
ATOM     54  C   UNL     1     -11.197   8.598  70.472  0.00  0.00    +0.006 A 
ENDBRANCH  47  49
ENDBRANCH  46  47
ENDBRANCH  22  46
BRANCH   1  55
ATOM     55  O   UNL     1      -8.590   7.127  67.486  0.00  0.00    -0.451 OA
BRANCH  55  57
ATOM     56  C   UNL     1      -7.188   9.304  67.705  0.00  0.00    +0.121 C 
ATOM     57  C   UNL     1      -7.888   8.141  68.342  0.00  0.00    +0.317 C 
ATOM     58  O   UNL     1      -7.887   7.989  69.835  0.00  0.00    -0.250 OA
ENDBRANCH  55  57
ENDBRANCH   1  55
TORSDOF 13
ENDMDL
MODEL 2
REMARK VINA RESULT:      -9.0      2.968      8.372
REMARK  Name = 
REMARK  13 active torsions:
REMARK  status: ('A' for Active; 'I' for Inactive)
REMARK    1  A    between atoms: C_2  and  O_4
REMARK    2  A    between atoms: O_4  and  C_5
REMARK    3  A    between atoms: C_21  and  O_22
REMARK    4  A    between atoms: O_22  and  C_23
REMARK    5  A    between atoms: C_23  and  C_25
REMARK    6  A    between atoms: C_25  and  C_27
REMARK    7  A    between atoms: C_27  and  N_28
REMARK    8  A    between atoms: C_27  and  C_36
REMARK    9  A    between atoms: C_29  and  O_31
REMARK   10  A    between atoms: O_31  and  C_32
REMARK   11  A    between atoms: C_45  and  O_46
REMARK   12  A    between atoms: O_46  and  C_47
REMARK   13  A    between atoms: C_47  and  C_49
REMARK                            x       y       z     vdW  Elec       q    Type
REMARK                         _______ _______ _______ _____ _____    ______ ____
ROOT
ATOM      1  C   UNL     1     -11.989  14.301  69.887  0.00  0.00    +0.191 C 
ATOM      2  C   UNL     1     -11.477  12.938  69.526  0.00  0.00    +0.093 C 
ATOM      3  C   UNL     1     -11.957  11.733  70.279  0.00  0.00    +0.089 C 
ATOM      4  C   UNL     1     -11.682  10.260  70.209  0.00  0.00    +0.186 C 
ATOM      5  C   UNL     1     -10.812   9.383  69.357  0.00  0.00    +0.227 C 
ATOM      6  C   UNL     1      -9.859   9.614  68.224  0.00  0.00    -0.010 C 
ATOM      7  C   UNL     1      -9.378  10.820  67.470  0.00  0.00    +0.047 C 
ATOM      8  C   UNL     1      -8.518   9.921  66.633  0.00  0.00    +0.007 C 
ATOM      9  C   UNL     1      -8.687  11.007  66.645  0.00  0.00    +0.007 C 
ATOM     10  C   UNL     1      -9.654  12.293  67.541  0.00  0.00    +0.170 C 
ATOM     11  O   UNL     1      -8.877  13.070  66.519  0.00  0.00    -0.222 OA
ATOM     12  C   UNL     1      -8.667  11.943  66.466  0.00  0.00    +0.082 C 
ATOM     13  C   UNL     1      -8.270  10.513  66.249  0.00  0.00    +0.189 C 
ATOM     14  C   UNL     1      -8.859   9.433  67.106  0.00  0.00    -0.010 C 
ATOM     15  C   UNL     1      -8.462   8.003  66.888  0.00  0.00    +0.029 C 
ATOM     16  O   UNL     1     -10.923   7.933  69.727  0.00  0.00    -0.211 OA
ATOM     17  O   UNL     1     -12.457   9.483  71.230  0.00  0.00    -0.293 OA
ATOM     18  C   UNL     1     -12.545  10.652  71.136  0.00  0.00    +0.010 C 
ATOM     19  C   UNL     1     -12.949  11.890  71.392  0.00  0.00    +0.161 C 
ATOM     20  O   UNL     1     -13.429  10.684  72.145  0.00  0.00    -0.223 OA
ATOM     21  C   UNL     1     -13.461  13.253  71.753  0.00  0.00    +0.067 C 
ATOM     22  C   UNL     1     -10.523  13.170  68.392  0.00  0.00    +0.201 C 
ATOM     23  C   UNL     1     -12.981  14.458  71.001  0.00  0.00    +0.157 C 
ATOM     24  O   UNL     1     -13.000  15.941  70.774  0.00  0.00    -0.349 OA
ATOM     25  C   UNL     1     -12.008  15.783  69.661  0.00  0.00    +0.185 C 
ENDROOT
BRANCH  13  26
ATOM     26  O   UNL     1      -7.284  10.163  65.174  0.00  0.00    -0.446 OA
BRANCH  26  27
ATOM     27  C   UNL     1      -5.865   9.834  65.537  0.00  0.00    +0.350 C 
ATOM     28  O   UNL     1      -5.370   8.423  65.424  0.00  0.00    -0.247 OA
BRANCH  27  29
ATOM     29  C   UNL     1      -4.943  10.917  66.013  0.00  0.00    +0.274 C 
ATOM     30  O   UNL     1      -4.153  11.719  65.021  0.00  0.00    -0.209 OA
BRANCH  29  31
ATOM     31  C   UNL     1      -4.810  11.198  67.480  0.00  0.00    +0.162 C 
BRANCH  31  32
ATOM     32  C   UNL     1      -5.450  10.282  68.480  0.00  0.00    +0.001 A 
ATOM     33  C   UNL     1      -6.420  10.829  69.486  0.00  0.00    -0.003 A 
ATOM     34  C   UNL     1      -7.060   9.914  70.486  0.00  0.00    -0.000 A 
ATOM     35  C   UNL     1      -6.731   8.451  70.482  0.00  0.00    -0.000 A 
ATOM     36  C   UNL     1      -5.761   7.903  69.477  0.00  0.00    -0.000 A 
ATOM     37  C   UNL     1      -5.121   8.819  68.476  0.00  0.00    -0.003 A 
ENDBRANCH  31  32
BRANCH  31  38
ATOM     38  N   UNL     1      -4.037  12.396  67.947  0.00  0.00    -0.163 NA
ATOM     39  C   UNL     1      -4.657  13.760  67.884  0.00  0.00    +0.421 C 
ATOM     40  O   UNL     1      -6.050  13.926  67.353  0.00  0.00    -0.225 OA
BRANCH  39  41
ATOM     41  O   UNL     1      -3.884  14.958  68.350  0.00  0.00    -0.441 OA
BRANCH  41  42
ATOM     42  C   UNL     1      -4.611  16.175  68.842  0.00  0.00    +0.138 C 
ATOM     43  C   UNL     1      -5.337  17.392  69.334  0.00  0.00    +0.044 C 
ATOM     44  C   UNL     1      -4.301  16.879  67.554  0.00  0.00    +0.044 C 
ATOM     45  C   UNL     1      -4.920  15.471  70.129  0.00  0.00    +0.044 C 
ENDBRANCH  41  42
ENDBRANCH  39  41
ENDBRANCH  31  38
ENDBRANCH  29  31
ENDBRANCH  27  29
ENDBRANCH  26  27
ENDBRANCH  13  26
BRANCH  22  46
ATOM     46  O   UNL     1     -10.412  14.620  68.022  0.00  0.00    -0.446 OA
BRANCH  46  47
ATOM     47  C   UNL     1      -9.246  15.430  68.506  0.00  0.00    +0.341 C 
ATOM     48  O   UNL     1      -8.413  14.936  69.652  0.00  0.00    -0.245 OA
BRANCH  47  49
ATOM     49  C   UNL     1      -8.912  16.734  67.845  0.00  0.00    +0.076 A 
ATOM     50  C   UNL     1      -7.938  16.769  66.704  0.00  0.00    +0.006 A 
ATOM     51  C   UNL     1      -7.605  18.073  66.042  0.00  0.00    +0.000 A 
ATOM     52  C   UNL     1      -8.245  19.342  66.521  0.00  0.00    +0.000 A 
ATOM     53  C   UNL     1      -9.218  19.307  67.661  0.00  0.00    +0.000 A 
ATOM     54  C   UNL     1      -9.552  18.004  68.324  0.00  0.00    +0.006 A 
ENDBRANCH  47  49
ENDBRANCH  46  47
ENDBRANCH  22  46
BRANCH   1  55
ATOM     55  O   UNL     1     -11.035  14.533  68.753  0.00  0.00    -0.451 OA
BRANCH  55  57
ATOM     56  C   UNL     1     -12.430  13.386  66.884  0.00  0.00    +0.121 C 
ATOM     57  C   UNL     1     -11.531  14.499  67.337  0.00  0.00    +0.317 C 
ATOM     58  O   UNL     1     -11.129  15.577  66.375  0.00  0.00    -0.250 OA
ENDBRANCH  55  57
ENDBRANCH   1  55
TORSDOF 13
ENDMDL
MODEL 3
REMARK VINA RESULT:      -8.9      3.065      9.300
REMARK  Name = 
REMARK  13 active torsions:
REMARK  status: ('A' for Active; 'I' for Inactive)
REMARK    1  A    between atoms: C_2  and  O_4
REMARK    2  A    between atoms: O_4  and  C_5
REMARK    3  A    between atoms: C_21  and  O_22
REMARK    4  A    between atoms: O_22  and  C_23
REMARK    5  A    between atoms: C_23  and  C_25
REMARK    6  A    between atoms: C_25  and  C_27
REMARK    7  A    between atoms: C_27  and  N_28
REMARK    8  A    between atoms: C_27  and  C_36
REMARK    9  A    between atoms: C_29  and  O_31
REMARK   10  A    between atoms: O_31  and  C_32
REMARK   11  A    between atoms: C_45  and  O_46
REMARK   12  A    between atoms: O_46  and  C_47
REMARK   13  A    between atoms: C_47  and  C_49
REMARK                            x       y       z     vdW  Elec       q    Type
REMARK                         _______ _______ _______ _____ _____    ______ ____
ROOT
ATOM      1  C   UNL     1      -9.946  13.830  67.679  0.00  0.00    +0.191 C 
ATOM      2  C   UNL     1     -10.785  13.210  68.757  0.00  0.00    +0.093 C 
ATOM      3  C   UNL     1     -11.639  14.076  69.634  0.00  0.00    +0.089 C 
ATOM      4  C   UNL     1     -12.580  13.829  70.776  0.00  0.00    +0.186 C 
ATOM      5  C   UNL     1     -13.055  12.612  71.514  0.00  0.00    +0.227 C 
ATOM      6  C   UNL     1     -12.787  11.140  71.416  0.00  0.00    -0.010 C 
ATOM      7  C   UNL     1     -11.932  10.273  70.540  0.00  0.00    +0.047 C 
ATOM      8  C   UNL     1     -12.422   9.073  71.293  0.00  0.00    +0.007 C 
ATOM      9  C   UNL     1     -11.724   9.204  70.454  0.00  0.00    +0.007 C 
ATOM     10  C   UNL     1     -10.992  10.521  69.397  0.00  0.00    +0.170 C 
ATOM     11  O   UNL     1     -10.384   9.255  68.870  0.00  0.00    -0.222 OA
ATOM     12  C   UNL     1     -11.104   9.066  69.744  0.00  0.00    +0.082 C 
ATOM     13  C   UNL     1     -12.001   8.628  70.863  0.00  0.00    +0.189 C 
ATOM     14  C   UNL     1     -12.786   9.646  71.636  0.00  0.00    -0.010 C 
ATOM     15  C   UNL     1     -13.683   9.208  72.756  0.00  0.00    +0.029 C 
ATOM     16  O   UNL     1     -14.026  12.947  72.607  0.00  0.00    -0.211 OA
ATOM     17  O   UNL     1     -13.187  15.094  71.303  0.00  0.00    -0.293 OA
ATOM     18  C   UNL     1     -12.425  15.093  70.407  0.00  0.00    +0.010 C 
ATOM     19  C   UNL     1     -11.655  15.562  69.433  0.00  0.00    +0.161 C 
ATOM     20  O   UNL     1     -12.510  16.428  70.310  0.00  0.00    -0.223 OA
ATOM     21  C   UNL     1     -10.816  16.182  68.355  0.00  0.00    +0.067 C 
ATOM     22  C   UNL     1     -10.517  11.737  68.659  0.00  0.00    +0.201 C 
ATOM     23  C   UNL     1      -9.962  15.316  67.478  0.00  0.00    +0.157 C 
ATOM     24  O   UNL     1      -8.985  15.174  66.350  0.00  0.00    -0.349 OA
ATOM     25  C   UNL     1      -8.969  13.688  66.551  0.00  0.00    +0.185 C 
ENDROOT
BRANCH  13  26
ATOM     26  O   UNL     1     -12.113   7.174  71.210  0.00  0.00    -0.446 OA
BRANCH  26  27
ATOM     27  C   UNL     1     -11.023   6.504  71.996  0.00  0.00    +0.350 C 
ATOM     28  O   UNL     1     -10.840   6.826  73.450  0.00  0.00    -0.247 OA
BRANCH  27  29
ATOM     29  C   UNL     1     -10.118   5.513  71.328  0.00  0.00    +0.274 C 
ATOM     30  O   UNL     1     -10.142   4.073  71.748  0.00  0.00    -0.209 OA
BRANCH  29  31
ATOM     31  C   UNL     1      -9.189   5.961  70.238  0.00  0.00    +0.162 C 
BRANCH  31  32
ATOM     32  C   UNL     1      -9.355   5.430  68.846  0.00  0.00    +0.001 A 
ATOM     33  C   UNL     1      -8.386   4.418  68.309  0.00  0.00    -0.003 A 
ATOM     34  C   UNL     1      -8.551   3.886  66.916  0.00  0.00    -0.000 A 
ATOM     35  C   UNL     1      -9.685   4.367  66.060  0.00  0.00    -0.000 A 
ATOM     36  C   UNL     1     -10.654   5.379  66.596  0.00  0.00    -0.000 A 
ATOM     37  C   UNL     1     -10.488   5.911  67.990  0.00  0.00    -0.003 A 
ENDBRANCH  31  32
BRANCH  31  38
ATOM     38  N   UNL     1      -8.094   6.940  70.543  0.00  0.00    -0.163 NA
ATOM     39  C   UNL     1      -6.791   6.457  71.104  0.00  0.00    +0.421 C 
ATOM     40  O   UNL     1      -6.581   4.993  71.362  0.00  0.00    -0.225 OA
BRANCH  39  41
ATOM     41  O   UNL     1      -5.696   7.436  71.409  0.00  0.00    -0.441 OA
BRANCH  41  42
ATOM     42  C   UNL     1      -5.108   8.270  70.309  0.00  0.00    +0.138 C 
ATOM     43  C   UNL     1      -4.520   9.104  69.209  0.00  0.00    +0.044 C 
ATOM     44  C   UNL     1      -4.628   7.025  69.622  0.00  0.00    +0.044 C 
ATOM     45  C   UNL     1      -5.587   9.514  70.995  0.00  0.00    +0.044 C 
ENDBRANCH  41  42
ENDBRANCH  39  41
ENDBRANCH  31  38
ENDBRANCH  29  31
ENDBRANCH  27  29
ENDBRANCH  26  27
ENDBRANCH  13  26
BRANCH  22  46
ATOM     46  O   UNL     1      -9.545  11.402  67.566  0.00  0.00    -0.446 OA
BRANCH  46  47
ATOM     47  C   UNL     1      -8.115  11.098  67.901  0.00  0.00    +0.341 C 
ATOM     48  O   UNL     1      -7.411  11.883  68.968  0.00  0.00    -0.245 OA
BRANCH  47  49
ATOM     49  C   UNL     1      -7.389  10.008  67.169  0.00  0.00    +0.076 A 
ATOM     50  C   UNL     1      -6.336  10.357  66.158  0.00  0.00    +0.006 A 
ATOM     51  C   UNL     1      -5.610   9.268  65.426  0.00  0.00    +0.000 A 
ATOM     52  C   UNL     1      -5.936   7.831  65.705  0.00  0.00    +0.000 A 
ATOM     53  C   UNL     1      -6.988   7.482  66.715  0.00  0.00    +0.000 A 
ATOM     54  C   UNL     1      -7.715   8.571  67.448  0.00  0.00    +0.006 A 
ENDBRANCH  47  49
ENDBRANCH  46  47
ENDBRANCH  22  46
BRANCH   1  55
ATOM     55  O   UNL     1      -9.678  12.357  67.581  0.00  0.00    -0.451 OA
BRANCH  55  57
ATOM     56  C   UNL     1      -9.913  10.718  65.579  0.00  0.00    +0.121 C 
ATOM     57  C   UNL     1     -10.535  11.496  66.701  0.00  0.00    +0.317 C 
ATOM     58  O   UNL     1     -12.013  11.413  66.942  0.00  0.00    -0.250 OA
ENDBRANCH  55  57
ENDBRANCH   1  55
TORSDOF 13
ENDMDL
MODEL 4
REMARK VINA RESULT:      -8.9      3.101      8.746
REMARK  Name = 
REMARK  13 active torsions:
REMARK  status: ('A' for Active; 'I' for Inactive)
REMARK    1  A    between atoms: C_2  and  O_4
REMARK    2  A    between atoms: O_4  and  C_5
REMARK    3  A    between atoms: C_21  and  O_22
REMARK    4  A    between atoms: O_22  and  C_23
REMARK    5  A    between atoms: C_23  and  C_25
REMARK    6  A    between atoms: C_25  and  C_27
REMARK    7  A    between atoms: C_27  and  N_28
REMARK    8  A    between atoms: C_27  and  C_36
REMARK    9  A    between atoms: C_29  and  O_31
REMARK   10  A    between atoms: O_31  and  C_32
REMARK   11  A    between atoms: C_45  and  O_46
REMARK   12  A    between atoms: O_46  and  C_47
REMARK   13  A    between atoms: C_47  and  C_49
REMARK                            x       y       z     vdW  Elec       q    Type
REMARK                         _______ _______ _______ _____ _____    ______ ____
ROOT
ATOM      1  C   UNL     1     -11.108  15.070  68.472  0.00  0.00    +0.191 C 
ATOM      2  C   UNL     1     -11.154  13.579  68.631  0.00  0.00    +0.093 C 
ATOM      3  C   UNL     1     -11.848  12.972  69.813  0.00  0.00    +0.089 C 
ATOM      4  C   UNL     1     -12.093  11.573  70.297  0.00  0.00    +0.186 C 
ATOM      5  C   UNL     1     -11.744  10.202  69.797  0.00  0.00    +0.227 C 
ATOM      6  C   UNL     1     -11.007   9.662  68.609  0.00  0.00    -0.010 C 
ATOM      7  C   UNL     1     -10.312  10.269  67.425  0.00  0.00    +0.047 C 
ATOM      8  C   UNL     1      -9.976   8.888  66.947  0.00  0.00    +0.007 C 
ATOM      9  C   UNL     1      -9.772   9.893  66.553  0.00  0.00    +0.007 C 
ATOM     10  C   UNL     1     -10.068  11.668  66.942  0.00  0.00    +0.170 C 
ATOM     11  O   UNL     1      -9.292  11.704  65.659  0.00  0.00    -0.222 OA
ATOM     12  C   UNL     1      -9.480  10.633  66.028  0.00  0.00    +0.082 C 
ATOM     13  C   UNL     1      -9.626   9.176  66.352  0.00  0.00    +0.189 C 
ATOM     14  C   UNL     1     -10.361   8.754  67.590  0.00  0.00    -0.010 C 
ATOM     15  C   UNL     1     -10.507   7.296  67.914  0.00  0.00    +0.029 C 
ATOM     16  O   UNL     1     -12.253   9.116  70.699  0.00  0.00    -0.211 OA
ATOM     17  O   UNL     1     -12.868  11.537  71.580  0.00  0.00    -0.293 OA
ATOM     18  C   UNL     1     -12.582  12.548  71.051  0.00  0.00    +0.010 C 
ATOM     19  C   UNL     1     -12.497  13.856  70.837  0.00  0.00    +0.161 C 
ATOM     20  O   UNL     1     -13.192  13.248  72.020  0.00  0.00    -0.223 OA
ATOM     21  C   UNL     1     -12.452  15.346  70.678  0.00  0.00    +0.067 C 
ATOM     22  C   UNL     1     -10.416  13.039  67.442  0.00  0.00    +0.201 C 
ATOM     23  C   UNL     1     -11.757  15.953  69.495  0.00  0.00    +0.157 C 
ATOM     24  O   UNL     1     -11.330  17.164  68.721  0.00  0.00    -0.349 OA
ATOM     25  C   UNL     1     -10.681  16.281  67.697  0.00  0.00    +0.185 C 
ENDROOT
BRANCH  13  26
ATOM     26  O   UNL     1      -9.039   8.142  65.439  0.00  0.00    -0.446 OA
BRANCH  26  27
ATOM     27  C   UNL     1      -7.553   8.081  65.233  0.00  0.00    +0.350 C 
ATOM     28  O   UNL     1      -6.938   8.715  64.021  0.00  0.00    -0.247 OA
BRANCH  27  29
ATOM     29  C   UNL     1      -6.685   7.385  66.238  0.00  0.00    +0.274 C 
ATOM     30  O   UNL     1      -6.341   5.936  66.057  0.00  0.00    -0.209 OA
BRANCH  29  31
ATOM     31  C   UNL     1      -6.161   8.138  67.426  0.00  0.00    +0.162 C 
BRANCH  31  32
ATOM     32  C   UNL     1      -6.908   8.102  68.725  0.00  0.00    +0.001 A 
ATOM     33  C   UNL     1      -7.290   9.383  69.407  0.00  0.00    -0.003 A 
ATOM     34  C   UNL     1      -8.037   9.348  70.707  0.00  0.00    -0.000 A 
ATOM     35  C   UNL     1      -8.402   8.032  71.326  0.00  0.00    -0.000 A 
ATOM     36  C   UNL     1      -8.022   6.750  70.645  0.00  0.00    -0.000 A 
ATOM     37  C   UNL     1      -7.274   6.785  69.345  0.00  0.00    -0.003 A 
ENDBRANCH  31  32
BRANCH  31  38
ATOM     38  N   UNL     1      -4.890   8.926  67.312  0.00  0.00    -0.163 NA
ATOM     39  C   UNL     1      -3.596   8.333  67.782  0.00  0.00    +0.421 C 
ATOM     40  O   UNL     1      -3.572   6.951  68.367  0.00  0.00    -0.225 OA
BRANCH  39  41
ATOM     41  O   UNL     1      -2.325   9.121  67.669  0.00  0.00    -0.441 OA
BRANCH  41  42
ATOM     42  C   UNL     1      -2.261  10.523  68.201  0.00  0.00    +0.138 C 
ATOM     43  C   UNL     1      -2.197  11.924  68.733  0.00  0.00    +0.044 C 
ATOM     44  C   UNL     1      -2.430  10.000  69.597  0.00  0.00    +0.044 C 
ATOM     45  C   UNL     1      -2.092  11.045  66.805  0.00  0.00    +0.044 C 
ENDBRANCH  41  42
ENDBRANCH  39  41
ENDBRANCH  31  38
ENDBRANCH  29  31
ENDBRANCH  27  29
ENDBRANCH  26  27
ENDBRANCH  13  26
BRANCH  22  46
ATOM     46  O   UNL     1      -9.907  14.125  66.540  0.00  0.00    -0.446 OA
BRANCH  46  47
ATOM     47  C   UNL     1      -8.565  14.744  66.794  0.00  0.00    +0.341 C 
ATOM     48  O   UNL     1      -8.178  16.011  66.090  0.00  0.00    -0.245 OA
BRANCH  47  49
ATOM     49  C   UNL     1      -7.611  14.097  67.753  0.00  0.00    +0.076 A 
ATOM     50  C   UNL     1      -6.787  12.922  67.313  0.00  0.00    +0.006 A 
ATOM     51  C   UNL     1      -5.832  12.275  68.272  0.00  0.00    +0.000 A 
ATOM     52  C   UNL     1      -5.701  12.803  69.670  0.00  0.00    +0.000 A 
ATOM     53  C   UNL     1      -6.524  13.976  70.109  0.00  0.00    +0.000 A 
ATOM     54  C   UNL     1      -7.479  14.624  69.151  0.00  0.00    +0.006 A 
ENDBRANCH  47  49
ENDBRANCH  46  47
ENDBRANCH  22  46
BRANCH   1  55
ATOM     55  O   UNL     1     -10.370  14.529  67.282  0.00  0.00    -0.451 OA
BRANCH  55  57
ATOM     56  C   UNL     1     -12.552  13.937  66.001  0.00  0.00    +0.121 C 
ATOM     57  C   UNL     1     -11.097  14.302  65.989  0.00  0.00    +0.317 C 
ATOM     58  O   UNL     1     -10.369  14.438  64.685  0.00  0.00    -0.250 OA
ENDBRANCH  55  57
ENDBRANCH   1  55
TORSDOF 13
ENDMDL
MODEL 5
REMARK VINA RESULT:      -8.8      2.188      5.606
REMARK  Name = 
REMARK  13 active torsions:
REMARK  status: ('A' for Active; 'I' for Inactive)
REMARK    1  A    between atoms: C_2  and  O_4
REMARK    2  A    between atoms: O_4  and  C_5
REMARK    3  A    between atoms: C_21  and  O_22
REMARK    4  A    between atoms: O_22  and  C_23
REMARK    5  A    between atoms: C_23  and  C_25
REMARK    6  A    between atoms: C_25  and  C_27
REMARK    7  A    between atoms: C_27  and  N_28
REMARK    8  A    between atoms: C_27  and  C_36
REMARK    9  A    between atoms: C_29  and  O_31
REMARK   10  A    between atoms: O_31  and  C_32
REMARK   11  A    between atoms: C_45  and  O_46
REMARK   12  A    between atoms: O_46  and  C_47
REMARK   13  A    between atoms: C_47  and  C_49
REMARK                            x       y       z     vdW  Elec       q    Type
REMARK                         _______ _______ _______ _____ _____    ______ ____
ROOT
ATOM      1  C   UNL     1      -8.375   6.334  68.517  0.00  0.00    +0.191 C 
ATOM      2  C   UNL     1      -9.335   7.136  69.345  0.00  0.00    +0.093 C 
ATOM      3  C   UNL     1      -9.920   6.548  70.595  0.00  0.00    +0.089 C 
ATOM      4  C   UNL     1     -10.878   7.027  71.644  0.00  0.00    +0.186 C 
ATOM      5  C   UNL     1     -11.650   8.293  71.878  0.00  0.00    +0.227 C 
ATOM      6  C   UNL     1     -11.782   9.603  71.159  0.00  0.00    -0.010 C 
ATOM      7  C   UNL     1     -11.197  10.191  69.909  0.00  0.00    +0.047 C 
ATOM      8  C   UNL     1     -11.979  11.445  70.164  0.00  0.00    +0.007 C 
ATOM      9  C   UNL     1     -11.281  11.139  69.372  0.00  0.00    +0.007 C 
ATOM     10  C   UNL     1     -10.238   9.711  68.860  0.00  0.00    +0.170 C 
ATOM     11  O   UNL     1      -9.994  10.738  67.794  0.00  0.00    -0.222 OA
ATOM     12  C   UNL     1     -10.727  11.105  68.597  0.00  0.00    +0.082 C 
ATOM     13  C   UNL     1     -11.695  11.751  69.544  0.00  0.00    +0.189 C 
ATOM     14  C   UNL     1     -12.174  11.003  70.753  0.00  0.00    -0.010 C 
ATOM     15  C   UNL     1     -13.142  11.650  71.699  0.00  0.00    +0.029 C 
ATOM     16  O   UNL     1     -12.485   8.235  73.123  0.00  0.00    -0.211 OA
ATOM     17  O   UNL     1     -11.123   6.001  72.709  0.00  0.00    -0.293 OA
ATOM     18  C   UNL     1     -10.399   5.802  71.804  0.00  0.00    +0.010 C 
ATOM     19  C   UNL     1      -9.544   5.159  71.017  0.00  0.00    +0.161 C 
ATOM     20  O   UNL     1     -10.129   4.572  72.268  0.00  0.00    -0.223 OA
ATOM     21  C   UNL     1      -8.584   4.358  70.190  0.00  0.00    +0.067 C 
ATOM     22  C   UNL     1      -9.467   8.446  68.626  0.00  0.00    +0.201 C 
ATOM     23  C   UNL     1      -7.999   4.945  68.940  0.00  0.00    +0.157 C 
ATOM     24  O   UNL     1      -7.108   4.821  67.740  0.00  0.00    -0.349 OA
ATOM     25  C   UNL     1      -7.483   6.210  67.318  0.00  0.00    +0.185 C 
ENDROOT
BRANCH  13  26
ATOM     26  O   UNL     1     -12.184  13.144  69.281  0.00  0.00    -0.446 OA
BRANCH  26  27
ATOM     27  C   UNL     1     -11.252  14.309  69.447  0.00  0.00    +0.350 C 
ATOM     28  O   UNL     1     -11.444  15.268  70.584  0.00  0.00    -0.247 OA
BRANCH  27  29
ATOM     29  C   UNL     1     -10.130  14.515  68.474  0.00  0.00    +0.274 C 
ATOM     30  O   UNL     1      -8.711  14.297  68.908  0.00  0.00    -0.209 OA
BRANCH  29  31
ATOM     31  C   UNL     1     -10.426  14.938  67.065  0.00  0.00    +0.162 C 
BRANCH  31  32
ATOM     32  C   UNL     1     -10.848  13.919  66.049  0.00  0.00    +0.001 A 
ATOM     33  C   UNL     1     -12.306  13.672  65.796  0.00  0.00    -0.003 A 
ATOM     34  C   UNL     1     -12.729  12.653  64.780  0.00  0.00    -0.000 A 
ATOM     35  C   UNL     1     -11.693  11.882  64.016  0.00  0.00    -0.000 A 
ATOM     36  C   UNL     1     -10.235  12.129  64.268  0.00  0.00    -0.000 A 
ATOM     37  C   UNL     1      -9.813  13.148  65.285  0.00  0.00    -0.003 A 
ENDBRANCH  31  32
BRANCH  31  38
ATOM     38  N   UNL     1     -10.300  16.381  66.674  0.00  0.00    -0.163 NA
ATOM     39  C   UNL     1      -8.958  16.946  66.316  0.00  0.00    +0.421 C 
ATOM     40  O   UNL     1      -7.741  16.068  66.349  0.00  0.00    -0.225 OA
BRANCH  39  41
ATOM     41  O   UNL     1      -8.831  18.388  65.924  0.00  0.00    -0.441 OA
BRANCH  41  42
ATOM     42  C   UNL     1      -9.360  19.461  66.831  0.00  0.00    +0.138 C 
ATOM     43  C   UNL     1      -9.888  20.533  67.737  0.00  0.00    +0.044 C 
ATOM     44  C   UNL     1      -8.220  19.223  67.776  0.00  0.00    +0.044 C 
ATOM     45  C   UNL     1     -10.500  19.699  65.886  0.00  0.00    +0.044 C 
ENDBRANCH  41  42
ENDBRANCH  39  41
ENDBRANCH  31  38
ENDBRANCH  29  31
ENDBRANCH  27  29
ENDBRANCH  26  27
ENDBRANCH  13  26
BRANCH  22  46
ATOM     46  O   UNL     1      -8.632   8.505  67.381  0.00  0.00    -0.446 OA
BRANCH  46  47
ATOM     47  C   UNL     1      -7.453   9.429  67.312  0.00  0.00    +0.341 C 
ATOM     48  O   UNL     1      -7.150  10.165  66.040  0.00  0.00    -0.245 OA
BRANCH  47  49
ATOM     49  C   UNL     1      -6.577   9.619  68.514  0.00  0.00    +0.076 A 
ATOM     50  C   UNL     1      -6.792  10.795  69.421  0.00  0.00    +0.006 A 
ATOM     51  C   UNL     1      -5.915  10.985  70.623  0.00  0.00    +0.000 A 
ATOM     52  C   UNL     1      -4.825   9.999  70.919  0.00  0.00    +0.000 A 
ATOM     53  C   UNL     1      -4.610   8.823  70.013  0.00  0.00    +0.000 A 
ATOM     54  C   UNL     1      -5.486   8.633  68.810  0.00  0.00    +0.006 A 
ENDBRANCH  47  49
ENDBRANCH  46  47
ENDBRANCH  22  46
BRANCH   1  55
ATOM     55  O   UNL     1      -8.507   7.644  67.798  0.00  0.00    -0.451 OA
BRANCH  55  57
ATOM     56  C   UNL     1     -10.893   7.236  66.852  0.00  0.00    +0.121 C 
ATOM     57  C   UNL     1      -9.509   7.795  66.692  0.00  0.00    +0.317 C 
ATOM     58  O   UNL     1      -9.128   8.503  65.425  0.00  0.00    -0.250 OA
ENDBRANCH  55  57
ENDBRANCH   1  55
TORSDOF 13
ENDMDL
MODEL 6
REMARK VINA RESULT:      -8.8      2.067      3.459
REMARK  Name = 
REMARK  13 active torsions:
REMARK  status: ('A' for Active; 'I' for Inactive)
REMARK    1  A    between atoms: C_2  and  O_4
REMARK    2  A    between atoms: O_4  and  C_5
REMARK    3  A    between atoms: C_21  and  O_22
REMARK    4  A    between atoms: O_22  and  C_23
REMARK    5  A    between atoms: C_23  and  C_25
REMARK    6  A    between atoms: C_25  and  C_27
REMARK    7  A    between atoms: C_27  and  N_28
REMARK    8  A    between atoms: C_27  and  C_36
REMARK    9  A    between atoms: C_29  and  O_31
REMARK   10  A    between atoms: O_31  and  C_32
REMARK   11  A    between atoms: C_45  and  O_46
REMARK   12  A    between atoms: O_46  and  C_47
REMARK   13  A    between atoms: C_47  and  C_49
REMARK                            x       y       z     vdW  Elec       q    Type
REMARK                         _______ _______ _______ _____ _____    ______ ____
ROOT
ATOM      1  C   UNL     1      -7.348   7.033  68.775  0.00  0.00    +0.191 C 
ATOM      2  C   UNL     1      -7.786   7.838  67.588  0.00  0.00    +0.093 C 
ATOM      3  C   UNL     1      -7.099   7.660  66.267  0.00  0.00    +0.089 C 
ATOM      4  C   UNL     1      -7.251   8.265  64.902  0.00  0.00    +0.186 C 
ATOM      5  C   UNL     1      -8.155   9.297  64.294  0.00  0.00    +0.227 C 
ATOM      6  C   UNL     1      -9.279  10.152  64.798  0.00  0.00    -0.010 C 
ATOM      7  C   UNL     1      -9.967  10.329  66.119  0.00  0.00    +0.047 C 
ATOM      8  C   UNL     1     -10.857  11.358  65.488  0.00  0.00    +0.007 C 
ATOM      9  C   UNL     1     -10.784  10.944  66.504  0.00  0.00    +0.007 C 
ATOM     10  C   UNL     1      -9.814   9.725  67.484  0.00  0.00    +0.170 C 
ATOM     11  O   UNL     1     -10.795  10.284  68.472  0.00  0.00    -0.222 OA
ATOM     12  C   UNL     1     -10.912  10.746  67.428  0.00  0.00    +0.082 C 
ATOM     13  C   UNL     1     -11.209  11.457  66.141  0.00  0.00    +0.189 C 
ATOM     14  C   UNL     1     -10.409  11.146  64.910  0.00  0.00    -0.010 C 
ATOM     15  C   UNL     1     -10.708  11.858  63.624  0.00  0.00    +0.029 C 
ATOM     16  O   UNL     1      -7.865   9.528  62.840  0.00  0.00    -0.211 OA
ATOM     17  O   UNL     1      -6.271   7.706  63.915  0.00  0.00    -0.293 OA
ATOM     18  C   UNL     1      -6.300   7.351  65.036  0.00  0.00    +0.010 C 
ATOM     19  C   UNL     1      -5.973   6.678  66.133  0.00  0.00    +0.161 C 
ATOM     20  O   UNL     1      -5.286   6.502  64.811  0.00  0.00    -0.223 OA
ATOM     21  C   UNL     1      -5.535   5.874  67.320  0.00  0.00    +0.067 C 
ATOM     22  C   UNL     1      -8.911   8.693  68.092  0.00  0.00    +0.201 C 
ATOM     23  C   UNL     1      -6.223   6.051  68.641  0.00  0.00    +0.157 C 
ATOM     24  O   UNL     1      -6.367   5.688  70.089  0.00  0.00    -0.349 OA
ATOM     25  C   UNL     1      -7.492   6.670  70.223  0.00  0.00    +0.185 C 
ENDROOT
BRANCH  13  26
ATOM     26  O   UNL     1     -12.306  12.478  66.084  0.00  0.00    -0.446 OA
BRANCH  26  27
ATOM     27  C   UNL     1     -12.003  13.881  65.646  0.00  0.00    +0.350 C 
ATOM     28  O   UNL     1     -12.900  14.569  64.660  0.00  0.00    -0.247 OA
BRANCH  27  29
ATOM     29  C   UNL     1     -10.803  14.594  66.193  0.00  0.00    +0.274 C 
ATOM     30  O   UNL     1      -9.948  15.429  65.287  0.00  0.00    -0.209 OA
BRANCH  29  31
ATOM     31  C   UNL     1     -10.458  14.473  67.648  0.00  0.00    +0.162 C 
BRANCH  31  32
ATOM     32  C   UNL     1      -9.031  14.281  68.067  0.00  0.00    +0.001 A 
ATOM     33  C   UNL     1      -8.485  15.040  69.240  0.00  0.00    -0.003 A 
ATOM     34  C   UNL     1      -7.058  14.848  69.660  0.00  0.00    -0.000 A 
ATOM     35  C   UNL     1      -6.176  13.897  68.905  0.00  0.00    -0.000 A 
ATOM     36  C   UNL     1      -6.721  13.138  67.732  0.00  0.00    -0.000 A 
ATOM     37  C   UNL     1      -8.149  13.331  67.312  0.00  0.00    -0.003 A 
ENDBRANCH  31  32
BRANCH  31  38
ATOM     38  N   UNL     1     -11.541  14.545  68.684  0.00  0.00    -0.163 NA
ATOM     39  C   UNL     1     -11.969  15.874  69.231  0.00  0.00    +0.421 C 
ATOM     40  O   UNL     1     -11.315  17.132  68.741  0.00  0.00    -0.225 OA
BRANCH  39  41
ATOM     41  O   UNL     1     -13.052  15.945  70.267  0.00  0.00    -0.441 OA
BRANCH  41  42
ATOM     42  C   UNL     1     -12.870  15.263  71.591  0.00  0.00    +0.138 C 
ATOM     43  C   UNL     1     -12.688  14.581  72.914  0.00  0.00    +0.044 C 
ATOM     44  C   UNL     1     -11.688  16.141  71.880  0.00  0.00    +0.044 C 
ATOM     45  C   UNL     1     -14.051  14.385  71.301  0.00  0.00    +0.044 C 
ENDBRANCH  41  42
ENDBRANCH  39  41
ENDBRANCH  31  38
ENDBRANCH  29  31
ENDBRANCH  27  29
ENDBRANCH  26  27
ENDBRANCH  13  26
BRANCH  22  46
ATOM     46  O   UNL     1      -9.201   8.462  69.546  0.00  0.00    -0.446 OA
BRANCH  46  47
ATOM     47  C   UNL     1     -10.312   7.539  69.952  0.00  0.00    +0.341 C 
ATOM     48  O   UNL     1     -10.237   6.080  69.613  0.00  0.00    -0.245 OA
BRANCH  47  49
ATOM     49  C   UNL     1     -11.498   8.076  70.696  0.00  0.00    +0.076 A 
ATOM     50  C   UNL     1     -12.622   7.158  71.079  0.00  0.00    +0.006 A 
ATOM     51  C   UNL     1     -13.808   7.695  71.823  0.00  0.00    +0.000 A 
ATOM     52  C   UNL     1     -13.871   9.149  72.186  0.00  0.00    +0.000 A 
ATOM     53  C   UNL     1     -12.748  10.066  71.804  0.00  0.00    +0.000 A 
ATOM     54  C   UNL     1     -11.561   9.530  71.059  0.00  0.00    +0.006 A 
ENDBRANCH  47  49
ENDBRANCH  46  47
ENDBRANCH  22  46
BRANCH   1  55
ATOM     55  O   UNL     1      -8.473   7.888  69.279  0.00  0.00    -0.451 OA
BRANCH  55  57
ATOM     56  C   UNL     1      -7.684  10.335  69.658  0.00  0.00    +0.121 C 
ATOM     57  C   UNL     1      -8.187   9.032  70.207  0.00  0.00    +0.317 C 
ATOM     58  O   UNL     1      -8.405   8.874  71.683  0.00  0.00    -0.250 OA
ENDBRANCH  55  57
ENDBRANCH   1  55
TORSDOF 13
ENDMDL
MODEL 7
REMARK VINA RESULT:      -8.7      1.614      4.358
REMARK  Name = 
REMARK  13 active torsions:
REMARK  status: ('A' for Active; 'I' for Inactive)
REMARK    1  A    between atoms: C_2  and  O_4
REMARK    2  A    between atoms: O_4  and  C_5
REMARK    3  A    between atoms: C_21  and  O_22
REMARK    4  A    between atoms: O_22  and  C_23
REMARK    5  A    between atoms: C_23  and  C_25
REMARK    6  A    between atoms: C_25  and  C_27
REMARK    7  A    between atoms: C_27  and  N_28
REMARK    8  A    between atoms: C_27  and  C_36
REMARK    9  A    between atoms: C_29  and  O_31
REMARK   10  A    between atoms: O_31  and  C_32
REMARK   11  A    between atoms: C_45  and  O_46
REMARK   12  A    between atoms: O_46  and  C_47
REMARK   13  A    between atoms: C_47  and  C_49
REMARK                            x       y       z     vdW  Elec       q    Type
REMARK                         _______ _______ _______ _____ _____    ______ ____
ROOT
ATOM      1  C   UNL     1      -8.237   6.685  68.429  0.00  0.00    +0.191 C 
ATOM      2  C   UNL     1      -8.601   7.572  67.277  0.00  0.00    +0.093 C 
ATOM      3  C   UNL     1      -8.122   7.242  65.895  0.00  0.00    +0.089 C 
ATOM      4  C   UNL     1      -8.277   7.868  64.540  0.00  0.00    +0.186 C 
ATOM      5  C   UNL     1      -8.975   9.085  64.008  0.00  0.00    +0.227 C 
ATOM      6  C   UNL     1      -9.806  10.178  64.608  0.00  0.00    -0.010 C 
ATOM      7  C   UNL     1     -10.285  10.510  65.991  0.00  0.00    +0.047 C 
ATOM      8  C   UNL     1     -10.974  11.720  65.434  0.00  0.00    +0.007 C 
ATOM      9  C   UNL     1     -10.889  11.299  66.446  0.00  0.00    +0.007 C 
ATOM     10  C   UNL     1     -10.130   9.883  67.345  0.00  0.00    +0.170 C 
ATOM     11  O   UNL     1     -10.839  10.655  68.418  0.00  0.00    -0.222 OA
ATOM     12  C   UNL     1     -10.958  11.134  67.382  0.00  0.00    +0.082 C 
ATOM     13  C   UNL     1     -11.220  11.898  66.118  0.00  0.00    +0.189 C 
ATOM     14  C   UNL     1     -10.654  11.411  64.817  0.00  0.00    -0.010 C 
ATOM     15  C   UNL     1     -10.916  12.175  63.553  0.00  0.00    +0.029 C 
ATOM     16  O   UNL     1      -8.799   9.245  62.526  0.00  0.00    -0.211 OA
ATOM     17  O   UNL     1      -7.568   7.097  63.467  0.00  0.00    -0.293 OA
ATOM     18  C   UNL     1      -7.557   6.755  64.593  0.00  0.00    +0.010 C 
ATOM     19  C   UNL     1      -7.279   6.023  65.665  0.00  0.00    +0.161 C 
ATOM     20  O   UNL     1      -6.801   5.692  64.282  0.00  0.00    -0.223 OA
ATOM     21  C   UNL     1      -6.915   5.135  66.817  0.00  0.00    +0.067 C 
ATOM     22  C   UNL     1      -9.433   8.667  67.878  0.00  0.00    +0.201 C 
ATOM     23  C   UNL     1      -7.393   5.466  68.199  0.00  0.00    +0.157 C 
ATOM     24  O   UNL     1      -7.459   5.144  69.663  0.00  0.00    -0.349 OA
ATOM     25  C   UNL     1      -8.302   6.363  69.892  0.00  0.00    +0.185 C 
ENDROOT
BRANCH  13  26
ATOM     26  O   UNL     1     -12.047  13.148  66.154  0.00  0.00    -0.446 OA
BRANCH  26  27
ATOM     27  C   UNL     1     -11.396  14.484  65.947  0.00  0.00    +0.350 C 
ATOM     28  O   UNL     1     -11.718  15.294  64.726  0.00  0.00    -0.247 OA
BRANCH  27  29
ATOM     29  C   UNL     1     -10.423  15.010  66.960  0.00  0.00    +0.274 C 
ATOM     30  O   UNL     1      -9.097  14.334  67.147  0.00  0.00    -0.209 OA
BRANCH  29  31
ATOM     31  C   UNL     1     -10.776  16.211  67.786  0.00  0.00    +0.162 C 
BRANCH  31  32
ATOM     32  C   UNL     1      -9.989  17.479  67.641  0.00  0.00    +0.001 A 
ATOM     33  C   UNL     1     -10.459  18.550  66.701  0.00  0.00    -0.003 A 
ATOM     34  C   UNL     1      -9.672  19.818  66.555  0.00  0.00    -0.000 A 
ATOM     35  C   UNL     1      -8.415  20.016  67.349  0.00  0.00    -0.000 A 
ATOM     36  C   UNL     1      -7.945  18.946  68.289  0.00  0.00    -0.000 A 
ATOM     37  C   UNL     1      -8.732  17.677  68.435  0.00  0.00    -0.003 A 
ENDBRANCH  31  32
BRANCH  31  38
ATOM     38  N   UNL     1     -11.917  16.143  68.758  0.00  0.00    -0.163 NA
ATOM     39  C   UNL     1     -11.999  15.013  69.740  0.00  0.00    +0.421 C 
ATOM     40  O   UNL     1     -10.940  13.950  69.751  0.00  0.00    -0.225 OA
BRANCH  39  41
ATOM     41  O   UNL     1     -13.140  14.945  70.712  0.00  0.00    -0.441 OA
BRANCH  41  42
ATOM     42  C   UNL     1     -12.867  14.884  72.187  0.00  0.00    +0.138 C 
ATOM     43  C   UNL     1     -12.594  14.824  73.660  0.00  0.00    +0.044 C 
ATOM     44  C   UNL     1     -13.675  13.624  72.283  0.00  0.00    +0.044 C 
ATOM     45  C   UNL     1     -12.059  16.144  72.089  0.00  0.00    +0.044 C 
ENDBRANCH  41  42
ENDBRANCH  39  41
ENDBRANCH  31  38
ENDBRANCH  29  31
ENDBRANCH  27  29
ENDBRANCH  26  27
ENDBRANCH  13  26
BRANCH  22  46
ATOM     46  O   UNL     1      -9.608   8.507  69.359  0.00  0.00    -0.446 OA
BRANCH  46  47
ATOM     47  C   UNL     1      -8.674   9.203  70.304  0.00  0.00    +0.341 C 
ATOM     48  O   UNL     1      -8.940   9.171  71.781  0.00  0.00    -0.245 OA
BRANCH  47  49
ATOM     49  C   UNL     1      -7.475   9.930  69.774  0.00  0.00    +0.076 A 
ATOM     50  C   UNL     1      -7.635  11.286  69.152  0.00  0.00    +0.006 A 
ATOM     51  C   UNL     1      -6.435  12.014  68.622  0.00  0.00    +0.000 A 
ATOM     52  C   UNL     1      -5.076  11.386  68.713  0.00  0.00    +0.000 A 
ATOM     53  C   UNL     1      -4.916  10.031  69.334  0.00  0.00    +0.000 A 
ATOM     54  C   UNL     1      -6.116   9.302  69.865  0.00  0.00    +0.006 A 
ENDBRANCH  47  49
ENDBRANCH  46  47
ENDBRANCH  22  46
BRANCH   1  55
ATOM     55  O   UNL     1      -9.068   7.779  69.030  0.00  0.00    -0.451 OA
BRANCH  55  57
ATOM     56  C   UNL     1     -11.281   6.537  68.472  0.00  0.00    +0.121 C 
ATOM     57  C   UNL     1     -10.533   7.560  69.274  0.00  0.00    +0.317 C 
ATOM     58  O   UNL     1     -11.248   8.364  70.319  0.00  0.00    -0.250 OA
ENDBRANCH  55  57
ENDBRANCH   1  55
TORSDOF 13
ENDMDL
MODEL 8
REMARK VINA RESULT:      -8.7      2.981      8.447
REMARK  Name = 
REMARK  13 active torsions:
REMARK  status: ('A' for Active; 'I' for Inactive)
REMARK    1  A    between atoms: C_2  and  O_4
REMARK    2  A    between atoms: O_4  and  C_5
REMARK    3  A    between atoms: C_21  and  O_22
REMARK    4  A    between atoms: O_22  and  C_23
REMARK    5  A    between atoms: C_23  and  C_25
REMARK    6  A    between atoms: C_25  and  C_27
REMARK    7  A    between atoms: C_27  and  N_28
REMARK    8  A    between atoms: C_27  and  C_36
REMARK    9  A    between atoms: C_29  and  O_31
REMARK   10  A    between atoms: O_31  and  C_32
REMARK   11  A    between atoms: C_45  and  O_46
REMARK   12  A    between atoms: O_46  and  C_47
REMARK   13  A    between atoms: C_47  and  C_49
REMARK                            x       y       z     vdW  Elec       q    Type
REMARK                         _______ _______ _______ _____ _____    ______ ____
ROOT
ATOM      1  C   UNL     1     -11.515  12.815  65.865  0.00  0.00    +0.191 C 
ATOM      2  C   UNL     1     -10.392  11.822  65.877  0.00  0.00    +0.093 C 
ATOM      3  C   UNL     1     -10.015  11.101  64.617  0.00  0.00    +0.089 C 
ATOM      4  C   UNL     1      -8.984  10.074  64.250  0.00  0.00    +0.186 C 
ATOM      5  C   UNL     1      -7.904   9.344  64.992  0.00  0.00    +0.227 C 
ATOM      6  C   UNL     1      -7.407   9.337  66.407  0.00  0.00    -0.010 C 
ATOM      7  C   UNL     1      -7.783  10.058  67.668  0.00  0.00    +0.047 C 
ATOM      8  C   UNL     1      -6.697   9.315  68.387  0.00  0.00    +0.007 C 
ATOM      9  C   UNL     1      -7.435  10.066  68.703  0.00  0.00    +0.007 C 
ATOM     10  C   UNL     1      -8.814  11.085  68.034  0.00  0.00    +0.170 C 
ATOM     11  O   UNL     1      -8.749  11.471  69.482  0.00  0.00    -0.222 OA
ATOM     12  C   UNL     1      -7.960  10.686  69.201  0.00  0.00    +0.082 C 
ATOM     13  C   UNL     1      -6.874   9.667  69.022  0.00  0.00    +0.189 C 
ATOM     14  C   UNL     1      -6.641   9.048  67.676  0.00  0.00    -0.010 C 
ATOM     15  C   UNL     1      -5.554   8.029  67.498  0.00  0.00    +0.029 C 
ATOM     16  O   UNL     1      -7.142   8.398  64.112  0.00  0.00    -0.211 OA
ATOM     17  O   UNL     1      -9.049   9.688  62.803  0.00  0.00    -0.293 OA
ATOM     18  C   UNL     1      -9.781  10.481  63.271  0.00  0.00    +0.010 C 
ATOM     19  C   UNL     1     -10.761  11.373  63.346  0.00  0.00    +0.161 C 
ATOM     20  O   UNL     1     -10.384  10.651  62.085  0.00  0.00    -0.223 OA
ATOM     21  C   UNL     1     -11.885  12.366  63.334  0.00  0.00    +0.067 C 
ATOM     22  C   UNL     1      -9.894  11.815  67.293  0.00  0.00    +0.201 C 
ATOM     23  C   UNL     1     -12.262  13.087  64.593  0.00  0.00    +0.157 C 
ATOM     24  O   UNL     1     -13.129  14.076  65.314  0.00  0.00    -0.349 OA
ATOM     25  C   UNL     1     -12.382  13.804  66.585  0.00  0.00    +0.185 C 
ENDROOT
BRANCH  13  26
ATOM     26  O   UNL     1      -6.020   9.268  70.189  0.00  0.00    -0.446 OA
BRANCH  26  27
ATOM     27  C   UNL     1      -6.356   8.035  70.977  0.00  0.00    +0.350 C 
ATOM     28  O   UNL     1      -5.361   6.918  71.082  0.00  0.00    -0.247 OA
BRANCH  27  29
ATOM     29  C   UNL     1      -7.686   7.921  71.659  0.00  0.00    +0.274 C 
ATOM     30  O   UNL     1      -8.013   8.812  72.821  0.00  0.00    -0.209 OA
BRANCH  29  31
ATOM     31  C   UNL     1      -8.692   6.916  71.179  0.00  0.00    +0.162 C 
BRANCH  31  32
ATOM     32  C   UNL     1      -9.128   6.919  69.744  0.00  0.00    +0.001 A 
ATOM     33  C   UNL     1      -8.460   6.010  68.755  0.00  0.00    -0.003 A 
ATOM     34  C   UNL     1      -8.896   6.012  67.321  0.00  0.00    -0.000 A 
ATOM     35  C   UNL     1     -10.001   6.922  66.874  0.00  0.00    -0.000 A 
ATOM     36  C   UNL     1     -10.670   7.831  67.863  0.00  0.00    -0.000 A 
ATOM     37  C   UNL     1     -10.234   7.829  69.298  0.00  0.00    -0.003 A 
ENDBRANCH  31  32
BRANCH  31  38
ATOM     38  N   UNL     1      -9.260   5.909  72.135  0.00  0.00    -0.163 NA
ATOM     39  C   UNL     1     -10.479   6.245  72.940  0.00  0.00    +0.421 C 
ATOM     40  O   UNL     1     -11.131   7.588  72.791  0.00  0.00    -0.225 OA
BRANCH  39  41
ATOM     41  O   UNL     1     -11.047   5.238  73.896  0.00  0.00    -0.441 OA
BRANCH  41  42
ATOM     42  C   UNL     1     -10.139   4.498  74.835  0.00  0.00    +0.138 C 
ATOM     43  C   UNL     1      -9.232   3.760  75.773  0.00  0.00    +0.044 C 
ATOM     44  C   UNL     1     -10.466   3.211  74.137  0.00  0.00    +0.044 C 
ATOM     45  C   UNL     1      -9.813   5.785  75.532  0.00  0.00    +0.044 C 
ENDBRANCH  41  42
ENDBRANCH  39  41
ENDBRANCH  31  38
ENDBRANCH  29  31
ENDBRANCH  27  29
ENDBRANCH  26  27
ENDBRANCH  13  26
BRANCH  22  46
ATOM     46  O   UNL     1     -10.656  12.761  68.173  0.00  0.00    -0.446 OA
BRANCH  46  47
ATOM     47  C   UNL     1     -11.797  12.256  69.007  0.00  0.00    +0.341 C 
ATOM     48  O   UNL     1     -12.384  10.903  68.733  0.00  0.00    -0.245 OA
BRANCH  47  49
ATOM     49  C   UNL     1     -12.349  13.104  70.114  0.00  0.00    +0.076 A 
ATOM     50  C   UNL     1     -12.438  14.592  69.945  0.00  0.00    +0.006 A 
ATOM     51  C   UNL     1     -12.991  15.440  71.052  0.00  0.00    +0.000 A 
ATOM     52  C   UNL     1     -13.455  14.800  72.327  0.00  0.00    +0.000 A 
ATOM     53  C   UNL     1     -13.366  13.312  72.495  0.00  0.00    +0.000 A 
ATOM     54  C   UNL     1     -12.813  12.464  71.388  0.00  0.00    +0.006 A 
ENDBRANCH  47  49
ENDBRANCH  46  47
ENDBRANCH  22  46
BRANCH   1  55
ATOM     55  O   UNL     1     -11.018  12.808  67.281  0.00  0.00    -0.451 OA
BRANCH  55  57
ATOM     56  C   UNL     1      -8.941  14.244  66.668  0.00  0.00    +0.121 C 
ATOM     57  C   UNL     1      -9.913  13.736  67.691  0.00  0.00    +0.317 C 
ATOM     58  O   UNL     1      -9.780  14.157  69.125  0.00  0.00    -0.250 OA
ENDBRANCH  55  57
ENDBRANCH   1  55
TORSDOF 13
ENDMDL
MODEL 9
REMARK VINA RESULT:      -8.7      3.006      9.224
REMARK  Name = 
REMARK  13 active torsions:
REMARK  status: ('A' for Active; 'I' for Inactive)
REMARK    1  A    between atoms: C_2  and  O_4
REMARK    2  A    between atoms: O_4  and  C_5
REMARK    3  A    between atoms: C_21  and  O_22
REMARK    4  A    between atoms: O_22  and  C_23
REMARK    5  A    between atoms: C_23  and  C_25
REMARK    6  A    between atoms: C_25  and  C_27
REMARK    7  A    between atoms: C_27  and  N_28
REMARK    8  A    between atoms: C_27  and  C_36
REMARK    9  A    between atoms: C_29  and  O_31
REMARK   10  A    between atoms: O_31  and  C_32
REMARK   11  A    between atoms: C_45  and  O_46
REMARK   12  A    between atoms: O_46  and  C_47
REMARK   13  A    between atoms: C_47  and  C_49
REMARK                            x       y       z     vdW  Elec       q    Type
REMARK                         _______ _______ _______ _____ _____    ______ ____
ROOT
ATOM      1  C   UNL     1      -9.614  13.838  67.937  0.00  0.00    +0.191 C 
ATOM      2  C   UNL     1     -10.530  13.201  68.939  0.00  0.00    +0.093 C 
ATOM      3  C   UNL     1     -11.466  14.051  69.746  0.00  0.00    +0.089 C 
ATOM      4  C   UNL     1     -12.494  13.786  70.806  0.00  0.00    +0.186 C 
ATOM      5  C   UNL     1     -13.011  12.559  71.498  0.00  0.00    +0.227 C 
ATOM      6  C   UNL     1     -12.716  11.091  71.416  0.00  0.00    -0.010 C 
ATOM      7  C   UNL     1     -11.781  10.240  70.609  0.00  0.00    +0.047 C 
ATOM      8  C   UNL     1     -12.315   9.029  71.314  0.00  0.00    +0.007 C 
ATOM      9  C   UNL     1     -11.553   9.174  70.535  0.00  0.00    +0.007 C 
ATOM     10  C   UNL     1     -10.753  10.506  69.549  0.00  0.00    +0.170 C 
ATOM     11  O   UNL     1     -10.087   9.251  69.068  0.00  0.00    -0.222 OA
ATOM     12  C   UNL     1     -10.874   9.048  69.879  0.00  0.00    +0.082 C 
ATOM     13  C   UNL     1     -11.854   8.592  70.919  0.00  0.00    +0.189 C 
ATOM     14  C   UNL     1     -12.714   9.596  71.629  0.00  0.00    -0.010 C 
ATOM     15  C   UNL     1     -13.694   9.140  72.669  0.00  0.00    +0.029 C 
ATOM     16  O   UNL     1     -14.074  12.875  72.508  0.00  0.00    -0.211 OA
ATOM     17  O   UNL     1     -13.159  15.040  71.287  0.00  0.00    -0.293 OA
ATOM     18  C   UNL     1     -12.326  15.054  70.457  0.00  0.00    +0.010 C 
ATOM     19  C   UNL     1     -11.485  15.538  69.551  0.00  0.00    +0.161 C 
ATOM     20  O   UNL     1     -12.421  16.388  70.359  0.00  0.00    -0.223 OA
ATOM     21  C   UNL     1     -10.569  16.175  68.549  0.00  0.00    +0.067 C 
ATOM     22  C   UNL     1     -10.235  11.732  68.857  0.00  0.00    +0.201 C 
ATOM     23  C   UNL     1      -9.634  15.324  67.741  0.00  0.00    +0.157 C 
ATOM     24  O   UNL     1      -8.565  15.201  66.697  0.00  0.00    -0.349 OA
ATOM     25  C   UNL     1      -8.546  13.714  66.892  0.00  0.00    +0.185 C 
ENDROOT
BRANCH  13  26
ATOM     26  O   UNL     1     -11.975   7.135  71.249  0.00  0.00    -0.446 OA
BRANCH  26  27
ATOM     27  C   UNL     1     -10.965   6.483  72.149  0.00  0.00    +0.350 C 
ATOM     28  O   UNL     1     -10.805   6.957  73.563  0.00  0.00    -0.247 OA
BRANCH  27  29
ATOM     29  C   UNL     1     -10.117   5.360  71.633  0.00  0.00    +0.274 C 
ATOM     30  O   UNL     1     -10.449   3.942  71.994  0.00  0.00    -0.209 OA
BRANCH  29  31
ATOM     31  C   UNL     1      -8.935   5.653  70.757  0.00  0.00    +0.162 C 
BRANCH  31  32
ATOM     32  C   UNL     1      -9.102   5.715  69.268  0.00  0.00    +0.001 A 
ATOM     33  C   UNL     1     -10.471   5.610  68.662  0.00  0.00    -0.003 A 
ATOM     34  C   UNL     1     -10.639   5.672  67.173  0.00  0.00    -0.000 A 
ATOM     35  C   UNL     1      -9.438   5.840  66.290  0.00  0.00    -0.000 A 
ATOM     36  C   UNL     1      -8.070   5.946  66.895  0.00  0.00    -0.000 A 
ATOM     37  C   UNL     1      -7.902   5.883  68.385  0.00  0.00    -0.003 A 
ENDBRANCH  31  32
BRANCH  31  38
ATOM     38  N   UNL     1      -7.586   5.883  71.371  0.00  0.00    -0.163 NA
ATOM     39  C   UNL     1      -7.210   7.248  71.865  0.00  0.00    +0.421 C 
ATOM     40  O   UNL     1      -8.184   8.383  71.747  0.00  0.00    -0.225 OA
BRANCH  39  41
ATOM     41  O   UNL     1      -5.861   7.478  72.479  0.00  0.00    -0.441 OA
BRANCH  41  42
ATOM     42  C   UNL     1      -5.210   8.827  72.377  0.00  0.00    +0.138 C 
ATOM     43  C   UNL     1      -4.560  10.174  72.275  0.00  0.00    +0.044 C 
ATOM     44  C   UNL     1      -4.918   8.575  70.927  0.00  0.00    +0.044 C 
ATOM     45  C   UNL     1      -5.502   9.077  73.826  0.00  0.00    +0.044 C 
ENDBRANCH  41  42
ENDBRANCH  39  41
ENDBRANCH  31  38
ENDBRANCH  29  31
ENDBRANCH  27  29
ENDBRANCH  26  27
ENDBRANCH  13  26
BRANCH  22  46
ATOM     46  O   UNL     1      -9.173  11.416  67.846  0.00  0.00    -0.446 OA
BRANCH  46  47
ATOM     47  C   UNL     1      -9.518  10.632  66.615  0.00  0.00    +0.341 C 
ATOM     48  O   UNL     1      -9.027   9.223  66.460  0.00  0.00    -0.245 OA
BRANCH  47  49
ATOM     49  C   UNL     1     -10.355  11.257  65.539  0.00  0.00    +0.076 A 
ATOM     50  C   UNL     1      -9.872  11.257  64.118  0.00  0.00    +0.006 A 
ATOM     51  C   UNL     1     -10.708  11.882  63.041  0.00  0.00    +0.000 A 
ATOM     52  C   UNL     1     -12.027  12.508  63.385  0.00  0.00    +0.000 A 
ATOM     53  C   UNL     1     -12.510  12.508  64.805  0.00  0.00    +0.000 A 
ATOM     54  C   UNL     1     -11.674  11.883  65.882  0.00  0.00    +0.006 A 
ENDBRANCH  47  49
ENDBRANCH  46  47
ENDBRANCH  22  46
BRANCH   1  55
ATOM     55  O   UNL     1      -9.319  12.369  67.855  0.00  0.00    -0.451 OA
BRANCH  55  57
ATOM     56  C   UNL     1      -7.463  11.401  69.395  0.00  0.00    +0.121 C 
ATOM     57  C   UNL     1      -7.915  11.875  68.045  0.00  0.00    +0.317 C 
ATOM     58  O   UNL     1      -6.964  11.854  66.885  0.00  0.00    -0.250 OA
ENDBRANCH  55  57
ENDBRANCH   1  55
TORSDOF 13
ENDMDL
