MODEL 1
REMARK VINA RESULT:      -7.9      0.000      0.000
REMARK  Name = 
REMARK  6 active torsions:
REMARK  status: ('A' for Active; 'I' for Inactive)
REMARK    1  A    between atoms: C_2  and  O_3
REMARK    2  A    between atoms: O_3  and  C_4
REMARK    3  A    between atoms: N_6  and  C_7
REMARK    4  A    between atoms: C_20  and  C_21
REMARK    5  A    between atoms: C_22  and  C_23
REMARK    6  A    between atoms: C_26  and  C_27
REMARK                            x       y       z     vdW  Elec       q    Type
REMARK                         _______ _______ _______ _____ _____    ______ ____
ROOT
ATOM      1  C   UNL     1      -4.117  19.920  68.808  0.00  0.00    +0.099 C 
ATOM      2  C   UNL     1      -5.524  20.587  69.249  0.00  0.00    +0.022 C 
ATOM      3  C   UNL     1      -6.952  20.127  68.707  0.00  0.00    +0.003 C 
ATOM      4  C   UNL     1      -6.756  20.512  67.120  0.00  0.00    +0.011 C 
ATOM      5  C   UNL     1      -8.131  19.907  66.445  0.00  0.00    +0.103 C 
ATOM      6  C   UNL     1      -9.000  19.447  67.825  0.00  0.00    +0.055 C 
ATOM      7  C   UNL     1      -8.197  18.243  68.711  0.00  0.00    +0.026 C 
ATOM      8  C   UNL     1      -9.930  18.380  66.840  0.00  0.00    +0.170 C 
ATOM      9  C   UNL     1     -10.565  19.687  66.022  0.00  0.00    +0.047 C 
ATOM     10  O   UNL     1      -8.867  18.162  65.750  0.00  0.00    -0.452 OA
ATOM     11  C   UNL     1      -7.640  18.396  66.109  0.00  0.00    +0.316 C 
ATOM     12  O   UNL     1      -6.758  18.476  65.201  0.00  0.00    -0.250 OA
ATOM     13  C   UNL     1      -6.619  18.528  68.165  0.00  0.00    +0.004 C 
ATOM     14  C   UNL     1      -5.803  18.169  69.511  0.00  0.00    +0.002 C 
ATOM     15  C   UNL     1      -4.628  18.347  68.535  0.00  0.00    +0.022 C 
ENDROOT
BRANCH   1  17
ATOM     16  C   UNL     1      -3.085  21.194  66.979  0.00  0.00    +0.421 C 
ATOM     17  N   UNL     1      -4.252  20.406  67.271  0.00  0.00    -0.170 NA
ATOM     18  O   UNL     1      -1.958  20.934  67.498  0.00  0.00    -0.225 OA
BRANCH  16  19
ATOM     19  O   UNL     1      -3.037  22.276  66.124  0.00  0.00    -0.434 OA
BRANCH  19  21
ATOM     20  C   UNL     1      -3.749  21.590  63.921  0.00  0.00    +0.051 C 
ATOM     21  C   UNL     1      -2.728  22.193  64.738  0.00  0.00    +0.210 C 
ENDBRANCH  19  21
ENDBRANCH  16  19
ENDBRANCH   1  17
BRANCH   7  22
ATOM     22  C   UNL     1      -8.541  16.922  67.834  0.00  0.00    -0.025 C 
ATOM     23  C   UNL     1      -8.706  15.959  68.734  0.00  0.00    +0.015 C 
BRANCH  23  24
ATOM     24  C   UNL     1      -9.655  14.900  68.824  0.00  0.00    +0.081 A 
ATOM     25  N   UNL     1      -9.396  13.574  68.844  0.00  0.00    -0.244 NA
ATOM     26  C   UNL     1      -9.970  12.672  68.051  0.00  0.00    +0.099 A 
ATOM     27  C   UNL     1     -11.121  12.973  67.376  0.00  0.00    +0.019 A 
ATOM     28  C   UNL     1     -11.688  14.204  67.680  0.00  0.00    +0.003 A 
ATOM     29  C   UNL     1     -10.944  15.170  68.360  0.00  0.00    +0.019 A 
BRANCH  27  30
ATOM     30  C   UNL     1     -11.394  12.253  66.130  0.00  0.00    +0.004 A 
ATOM     31  C   UNL     1     -12.189  12.788  65.122  0.00  0.00    +0.030 A 
ATOM     32  C   UNL     1     -11.934  12.453  63.799  0.00  0.00    +0.140 A 
ATOM     33  F   UNL     1     -12.515  13.096  62.750  0.00  0.00    -0.204 F 
ATOM     34  C   UNL     1     -10.880  11.602  63.500  0.00  0.00    +0.030 A 
ATOM     35  C   UNL     1     -10.454  10.757  64.501  0.00  0.00    +0.002 A 
ATOM     36  C   UNL     1     -10.739  11.068  65.817  0.00  0.00    +0.000 A 
ENDBRANCH  27  30
ENDBRANCH  23  24
ENDBRANCH   7  22
TORSDOF 6
ENDMDL
MODEL 2
REMARK VINA RESULT:      -7.7      2.925      3.622
REMARK  Name = 
REMARK  6 active torsions:
REMARK  status: ('A' for Active; 'I' for Inactive)
REMARK    1  A    between atoms: C_2  and  O_3
REMARK    2  A    between atoms: O_3  and  C_4
REMARK    3  A    between atoms: N_6  and  C_7
REMARK    4  A    between atoms: C_20  and  C_21
REMARK    5  A    between atoms: C_22  and  C_23
REMARK    6  A    between atoms: C_26  and  C_27
REMARK                            x       y       z     vdW  Elec       q    Type
REMARK                         _______ _______ _______ _____ _____    ______ ____
ROOT
ATOM      1  C   UNL     1      -4.313  18.075  69.139  0.00  0.00    +0.099 C 
ATOM      2  C   UNL     1      -5.562  18.925  69.717  0.00  0.00    +0.022 C 
ATOM      3  C   UNL     1      -7.041  18.878  69.124  0.00  0.00    +0.003 C 
ATOM      4  C   UNL     1      -6.735  19.498  67.631  0.00  0.00    +0.011 C 
ATOM      5  C   UNL     1      -8.190  19.325  66.879  0.00  0.00    +0.103 C 
ATOM      6  C   UNL     1      -9.166  18.810  68.164  0.00  0.00    +0.055 C 
ATOM      7  C   UNL     1      -8.648  17.324  68.802  0.00  0.00    +0.026 C 
ATOM      8  C   UNL     1     -10.274  18.157  67.016  0.00  0.00    +0.170 C 
ATOM      9  C   UNL     1     -10.607  19.694  66.462  0.00  0.00    +0.047 C 
ATOM     10  O   UNL     1      -9.254  17.927  65.887  0.00  0.00    -0.452 OA
ATOM     11  C   UNL     1      -8.013  17.832  66.263  0.00  0.00    +0.316 C 
ATOM     12  O   UNL     1      -7.114  17.893  65.371  0.00  0.00    -0.250 OA
ATOM     13  C   UNL     1      -7.033  17.372  68.292  0.00  0.00    +0.004 C 
ATOM     14  C   UNL     1      -6.340  16.612  69.536  0.00  0.00    +0.002 C 
ATOM     15  C   UNL     1      -5.131  16.718  68.590  0.00  0.00    +0.022 C 
ENDROOT
BRANCH   1  17
ATOM     16  C   UNL     1      -3.079  19.589  67.651  0.00  0.00    +0.421 C 
ATOM     17  N   UNL     1      -4.310  18.851  67.720  0.00  0.00    -0.170 NA
ATOM     18  O   UNL     1      -2.009  19.152  68.172  0.00  0.00    -0.225 OA
BRANCH  16  19
ATOM     19  O   UNL     1      -2.903  20.807  67.025  0.00  0.00    -0.434 OA
BRANCH  19  21
ATOM     20  C   UNL     1      -4.046  21.141  64.925  0.00  0.00    +0.051 C 
ATOM     21  C   UNL     1      -3.922  21.500  66.313  0.00  0.00    +0.210 C 
ENDBRANCH  19  21
ENDBRANCH  16  19
ENDBRANCH   1  17
BRANCH   7  22
ATOM     22  C   UNL     1      -9.238  16.286  67.703  0.00  0.00    -0.025 C 
ATOM     23  C   UNL     1      -9.510  15.186  68.397  0.00  0.00    +0.015 C 
BRANCH  23  24
ATOM     24  C   UNL     1     -10.609  14.282  68.342  0.00  0.00    +0.081 A 
ATOM     25  N   UNL     1     -11.696  14.270  69.147  0.00  0.00    -0.244 NA
ATOM     26  C   UNL     1     -12.149  13.204  69.802  0.00  0.00    +0.099 A 
ATOM     27  C   UNL     1     -11.746  11.947  69.446  0.00  0.00    +0.019 A 
ATOM     28  C   UNL     1     -10.957  11.873  68.305  0.00  0.00    +0.003 A 
ATOM     29  C   UNL     1     -10.362  13.025  67.786  0.00  0.00    +0.019 A 
BRANCH  27  30
ATOM     30  C   UNL     1     -11.764  10.902  70.473  0.00  0.00    +0.004 A 
ATOM     31  C   UNL     1     -12.819  10.758  71.368  0.00  0.00    +0.030 A 
ATOM     32  C   UNL     1     -13.138   9.497  71.852  0.00  0.00    +0.140 A 
ATOM     33  F   UNL     1     -14.279   9.241  72.548  0.00  0.00    -0.204 F 
ATOM     34  C   UNL     1     -12.410   8.396  71.424  0.00  0.00    +0.030 A 
ATOM     35  C   UNL     1     -11.139   8.632  70.950  0.00  0.00    +0.002 A 
ATOM     36  C   UNL     1     -10.806   9.896  70.502  0.00  0.00    +0.000 A 
ENDBRANCH  27  30
ENDBRANCH  23  24
ENDBRANCH   7  22
TORSDOF 6
ENDMDL
MODEL 3
REMARK VINA RESULT:      -7.6      3.948      9.676
REMARK  Name = 
REMARK  6 active torsions:
REMARK  status: ('A' for Active; 'I' for Inactive)
REMARK    1  A    between atoms: C_2  and  O_3
REMARK    2  A    between atoms: O_3  and  C_4
REMARK    3  A    between atoms: N_6  and  C_7
REMARK    4  A    between atoms: C_20  and  C_21
REMARK    5  A    between atoms: C_22  and  C_23
REMARK    6  A    between atoms: C_26  and  C_27
REMARK                            x       y       z     vdW  Elec       q    Type
REMARK                         _______ _______ _______ _____ _____    ______ ____
ROOT
ATOM      1  C   UNL     1     -11.151  11.834  64.521  0.00  0.00    +0.099 C 
ATOM      2  C   UNL     1     -12.332  12.556  65.360  0.00  0.00    +0.022 C 
ATOM      3  C   UNL     1     -12.093  13.588  66.552  0.00  0.00    +0.003 C 
ATOM      4  C   UNL     1     -11.346  12.578  67.614  0.00  0.00    +0.011 C 
ATOM      5  C   UNL     1     -10.905  13.609  68.820  0.00  0.00    +0.103 C 
ATOM      6  C   UNL     1     -11.672  15.038  68.329  0.00  0.00    +0.055 C 
ATOM      7  C   UNL     1     -11.091  15.591  66.833  0.00  0.00    +0.026 C 
ATOM      8  C   UNL     1     -10.570  15.927  69.310  0.00  0.00    +0.170 C 
ATOM      9  C   UNL     1     -11.218  15.224  70.677  0.00  0.00    +0.047 C 
ATOM     10  O   UNL     1      -9.424  14.901  69.276  0.00  0.00    -0.452 OA
ATOM     11  C   UNL     1      -9.445  14.071  68.276  0.00  0.00    +0.316 C 
ATOM     12  O   UNL     1      -8.684  13.058  68.327  0.00  0.00    -0.250 OA
ATOM     13  C   UNL     1     -10.491  14.126  66.230  0.00  0.00    +0.004 C 
ATOM     14  C   UNL     1     -10.806  14.337  64.661  0.00  0.00    +0.002 C 
ATOM     15  C   UNL     1      -9.986  13.038  64.588  0.00  0.00    +0.022 C 
ENDROOT
BRANCH   1  17
ATOM     16  C   UNL     1      -9.914   9.857  65.290  0.00  0.00    +0.421 C 
ATOM     17  N   UNL     1     -10.609  11.007  65.800  0.00  0.00    -0.170 NA
ATOM     18  O   UNL     1      -9.265   9.899  64.201  0.00  0.00    -0.225 OA
BRANCH  16  19
ATOM     19  O   UNL     1      -9.851   8.618  65.896  0.00  0.00    -0.434 OA
BRANCH  19  21
ATOM     20  C   UNL     1     -10.912   6.851  67.153  0.00  0.00    +0.051 C 
ATOM     21  C   UNL     1     -10.591   8.251  67.054  0.00  0.00    +0.210 C 
ENDBRANCH  19  21
ENDBRANCH  16  19
ENDBRANCH   1  17
BRANCH   7  22
ATOM     22  C   UNL     1      -9.692  16.283  67.274  0.00  0.00    -0.025 C 
ATOM     23  C   UNL     1      -9.424  17.145  66.299  0.00  0.00    +0.015 C 
BRANCH  23  24
ATOM     24  C   UNL     1      -8.913  18.474  66.324  0.00  0.00    +0.081 A 
ATOM     25  N   UNL     1      -7.760  18.914  65.773  0.00  0.00    -0.244 NA
ATOM     26  C   UNL     1      -6.828  19.618  66.413  0.00  0.00    +0.099 A 
ATOM     27  C   UNL     1      -7.119  20.244  67.594  0.00  0.00    +0.019 A 
ATOM     28  C   UNL     1      -8.451  20.193  67.985  0.00  0.00    +0.003 A 
ATOM     29  C   UNL     1      -9.326  19.286  67.383  0.00  0.00    +0.019 A 
BRANCH  27  30
ATOM     30  C   UNL     1      -6.020  20.487  68.531  0.00  0.00    +0.004 A 
ATOM     31  C   UNL     1      -6.151  20.281  69.900  0.00  0.00    +0.030 A 
ATOM     32  C   UNL     1      -5.043  19.896  70.643  0.00  0.00    +0.140 A 
ATOM     33  F   UNL     1      -5.133  19.463  71.930  0.00  0.00    -0.204 F 
ATOM     34  C   UNL     1      -3.825  19.707  70.006  0.00  0.00    +0.030 A 
ATOM     35  C   UNL     1      -3.637  20.360  68.809  0.00  0.00    +0.002 A 
ATOM     36  C   UNL     1      -4.736  20.779  68.085  0.00  0.00    +0.000 A 
ENDBRANCH  27  30
ENDBRANCH  23  24
ENDBRANCH   7  22
TORSDOF 6
ENDMDL
MODEL 4
REMARK VINA RESULT:      -7.3      5.269      7.994
REMARK  Name = 
REMARK  6 active torsions:
REMARK  status: ('A' for Active; 'I' for Inactive)
REMARK    1  A    between atoms: C_2  and  O_3
REMARK    2  A    between atoms: O_3  and  C_4
REMARK    3  A    between atoms: N_6  and  C_7
REMARK    4  A    between atoms: C_20  and  C_21
REMARK    5  A    between atoms: C_22  and  C_23
REMARK    6  A    between atoms: C_26  and  C_27
REMARK                            x       y       z     vdW  Elec       q    Type
REMARK                         _______ _______ _______ _____ _____    ______ ____
ROOT
ATOM      1  C   UNL     1     -10.530  16.704  69.174  0.00  0.00    +0.099 C 
ATOM      2  C   UNL     1     -11.654  16.188  68.131  0.00  0.00    +0.022 C 
ATOM      3  C   UNL     1     -11.635  14.765  67.412  0.00  0.00    +0.003 C 
ATOM      4  C   UNL     1     -10.259  14.947  66.528  0.00  0.00    +0.011 C 
ATOM      5  C   UNL     1     -10.064  13.447  65.877  0.00  0.00    +0.103 C 
ATOM      6  C   UNL     1     -11.509  12.695  66.345  0.00  0.00    +0.055 C 
ATOM      7  C   UNL     1     -11.656  12.594  68.033  0.00  0.00    +0.026 C 
ATOM      8  C   UNL     1     -10.745  11.166  66.122  0.00  0.00    +0.170 C 
ATOM      9  C   UNL     1     -10.615  11.468  64.487  0.00  0.00    +0.047 C 
ATOM     10  O   UNL     1      -9.303  11.644  66.365  0.00  0.00    -0.452 OA
ATOM     11  C   UNL     1      -9.184  12.744  67.048  0.00  0.00    +0.316 C 
ATOM     12  O   UNL     1      -8.052  13.315  67.067  0.00  0.00    -0.250 OA
ATOM     13  C   UNL     1     -10.615  13.859  68.461  0.00  0.00    +0.004 C 
ATOM     14  C   UNL     1     -11.378  14.398  69.777  0.00  0.00    +0.002 C 
ATOM     15  C   UNL     1     -10.093  15.239  69.861  0.00  0.00    +0.022 C 
ENDROOT
BRANCH   1  17
ATOM     16  C   UNL     1      -8.850  18.065  68.008  0.00  0.00    +0.421 C 
ATOM     17  N   UNL     1      -9.358  16.721  68.060  0.00  0.00    -0.170 NA
ATOM     18  O   UNL     1      -8.796  18.797  69.042  0.00  0.00    -0.225 OA
BRANCH  16  19
ATOM     19  O   UNL     1      -8.364  18.700  66.884  0.00  0.00    -0.434 OA
BRANCH  19  21
ATOM     20  C   UNL     1     -10.510  19.474  66.093  0.00  0.00    +0.051 C 
ATOM     21  C   UNL     1      -9.085  19.670  66.133  0.00  0.00    +0.210 C 
ENDBRANCH  19  21
ENDBRANCH  16  19
ENDBRANCH   1  17
BRANCH   7  22
ATOM     22  C   UNL     1     -10.686  11.336  68.360  0.00  0.00    -0.025 C 
ATOM     23  C   UNL     1     -11.088  10.907  69.552  0.00  0.00    +0.015 C 
BRANCH  23  24
ATOM     24  C   UNL     1     -11.270   9.593  70.073  0.00  0.00    +0.081 A 
ATOM     25  N   UNL     1     -12.079   9.226  71.091  0.00  0.00    -0.244 NA
ATOM     26  C   UNL     1     -11.702   8.503  72.144  0.00  0.00    +0.099 A 
ATOM     27  C   UNL     1     -10.537   7.787  72.112  0.00  0.00    +0.019 A 
ATOM     28  C   UNL     1      -9.876   7.773  70.891  0.00  0.00    +0.003 A 
ATOM     29  C   UNL     1     -10.213   8.696  69.900  0.00  0.00    +0.019 A 
BRANCH  27  30
ATOM     30  C   UNL     1      -9.869   7.507  73.386  0.00  0.00    +0.004 A 
ATOM     31  C   UNL     1     -10.339   6.549  74.278  0.00  0.00    +0.030 A 
ATOM     32  C   UNL     1      -9.440   5.865  75.085  0.00  0.00    +0.140 A 
ATOM     33  F   UNL     1      -9.789   4.771  75.815  0.00  0.00    -0.204 F 
ATOM     34  C   UNL     1      -8.083   6.136  74.979  0.00  0.00    +0.030 A 
ATOM     35  C   UNL     1      -7.728   7.366  74.469  0.00  0.00    +0.002 A 
ATOM     36  C   UNL     1      -8.634   8.066  73.696  0.00  0.00    +0.000 A 
ENDBRANCH  27  30
ENDBRANCH  23  24
ENDBRANCH   7  22
TORSDOF 6
ENDMDL
MODEL 5
REMARK VINA RESULT:      -7.2      5.657      8.593
REMARK  Name = 
REMARK  6 active torsions:
REMARK  status: ('A' for Active; 'I' for Inactive)
REMARK    1  A    between atoms: C_2  and  O_3
REMARK    2  A    between atoms: O_3  and  C_4
REMARK    3  A    between atoms: N_6  and  C_7
REMARK    4  A    between atoms: C_20  and  C_21
REMARK    5  A    between atoms: C_22  and  C_23
REMARK    6  A    between atoms: C_26  and  C_27
REMARK                            x       y       z     vdW  Elec       q    Type
REMARK                         _______ _______ _______ _____ _____    ______ ____
ROOT
ATOM      1  C   UNL     1     -11.296  15.540  68.104  0.00  0.00    +0.099 C 
ATOM      2  C   UNL     1     -12.041  14.433  67.188  0.00  0.00    +0.022 C 
ATOM      3  C   UNL     1     -11.691  12.878  67.185  0.00  0.00    +0.003 C 
ATOM      4  C   UNL     1     -10.152  12.966  66.611  0.00  0.00    +0.011 C 
ATOM      5  C   UNL     1      -9.645  11.405  66.737  0.00  0.00    +0.103 C 
ATOM      6  C   UNL     1     -11.083  10.626  67.182  0.00  0.00    +0.055 C 
ATOM      7  C   UNL     1     -11.671  11.181  68.675  0.00  0.00    +0.026 C 
ATOM      8  C   UNL     1     -10.144   9.325  67.812  0.00  0.00    +0.170 C 
ATOM      9  C   UNL     1      -9.607   8.968  66.273  0.00  0.00    +0.047 C 
ATOM     10  O   UNL     1      -8.874  10.142  68.109  0.00  0.00    -0.452 OA
ATOM     11  C   UNL     1      -9.051  11.422  68.249  0.00  0.00    +0.316 C 
ATOM     12  O   UNL     1      -8.026  12.169  68.246  0.00  0.00    -0.250 OA
ATOM     13  C   UNL     1     -10.911  12.694  68.707  0.00  0.00    +0.004 C 
ATOM     14  C   UNL     1     -12.050  13.547  69.470  0.00  0.00    +0.002 C 
ATOM     15  C   UNL     1     -10.922  14.593  69.436  0.00  0.00    +0.022 C 
ENDROOT
BRANCH   1  17
ATOM     16  C   UNL     1      -9.357  16.662  67.098  0.00  0.00    +0.421 C 
ATOM     17  N   UNL     1      -9.873  15.347  67.359  0.00  0.00    -0.170 NA
ATOM     18  O   UNL     1      -9.567  17.631  67.890  0.00  0.00    -0.225 OA
BRANCH  16  19
ATOM     19  O   UNL     1      -8.588  17.025  66.011  0.00  0.00    -0.434 OA
BRANCH  19  21
ATOM     20  C   UNL     1      -6.962  18.784  65.707  0.00  0.00    +0.051 C 
ATOM     21  C   UNL     1      -7.223  17.421  66.087  0.00  0.00    +0.210 C 
ENDBRANCH  19  21
ENDBRANCH  16  19
ENDBRANCH   1  17
BRANCH   7  22
ATOM     22  C   UNL     1     -10.709  10.384  69.709  0.00  0.00    -0.025 C 
ATOM     23  C   UNL     1     -11.492  10.109  70.747  0.00  0.00    +0.015 C 
BRANCH  23  24
ATOM     24  C   UNL     1     -11.617   8.943  71.556  0.00  0.00    +0.081 A 
ATOM     25  N   UNL     1     -10.756   8.514  72.506  0.00  0.00    -0.244 NA
ATOM     26  C   UNL     1     -10.249   7.286  72.579  0.00  0.00    +0.099 A 
ATOM     27  C   UNL     1     -10.822   6.255  71.885  0.00  0.00    +0.019 A 
ATOM     28  C   UNL     1     -12.008   6.562  71.231  0.00  0.00    +0.003 A 
ATOM     29  C   UNL     1     -12.377   7.894  71.033  0.00  0.00    +0.019 A 
BRANCH  27  30
ATOM     30  C   UNL     1      -9.971   5.123  71.509  0.00  0.00    +0.004 A 
ATOM     31  C   UNL     1     -10.060   3.885  72.136  0.00  0.00    +0.030 A 
ATOM     32  C   UNL     1      -9.772   2.733  71.418  0.00  0.00    +0.140 A 
ATOM     33  F   UNL     1     -10.045   1.485  71.887  0.00  0.00    -0.204 F 
ATOM     34  C   UNL     1      -9.415   2.831  70.081  0.00  0.00    +0.030 A 
ATOM     35  C   UNL     1      -8.892   4.033  69.659  0.00  0.00    +0.002 A 
ATOM     36  C   UNL     1      -9.145   5.177  70.392  0.00  0.00    +0.000 A 
ENDBRANCH  27  30
ENDBRANCH  23  24
ENDBRANCH   7  22
TORSDOF 6
ENDMDL
MODEL 6
REMARK VINA RESULT:      -7.2      4.642      9.915
REMARK  Name = 
REMARK  6 active torsions:
REMARK  status: ('A' for Active; 'I' for Inactive)
REMARK    1  A    between atoms: C_2  and  O_3
REMARK    2  A    between atoms: O_3  and  C_4
REMARK    3  A    between atoms: N_6  and  C_7
REMARK    4  A    between atoms: C_20  and  C_21
REMARK    5  A    between atoms: C_22  and  C_23
REMARK    6  A    between atoms: C_26  and  C_27
REMARK                            x       y       z     vdW  Elec       q    Type
REMARK                         _______ _______ _______ _____ _____    ______ ____
ROOT
ATOM      1  C   UNL     1      -7.610   9.910  68.223  0.00  0.00    +0.099 C 
ATOM      2  C   UNL     1      -7.569  10.149  66.623  0.00  0.00    +0.022 C 
ATOM      3  C   UNL     1      -8.627  11.022  65.811  0.00  0.00    +0.003 C 
ATOM      4  C   UNL     1      -9.971  10.115  66.090  0.00  0.00    +0.011 C 
ATOM      5  C   UNL     1     -11.159  11.042  65.426  0.00  0.00    +0.103 C 
ATOM      6  C   UNL     1     -10.247  12.260  64.678  0.00  0.00    +0.055 C 
ATOM      7  C   UNL     1      -9.349  13.162  65.800  0.00  0.00    +0.026 C 
ATOM      8  C   UNL     1     -11.646  13.266  64.690  0.00  0.00    +0.170 C 
ATOM      9  C   UNL     1     -12.408  12.221  63.637  0.00  0.00    +0.047 C 
ATOM     10  O   UNL     1     -12.334  12.612  65.901  0.00  0.00    -0.452 OA
ATOM     11  C   UNL     1     -11.549  11.962  66.708  0.00  0.00    +0.316 C 
ATOM     12  O   UNL     1     -12.080  11.202  67.573  0.00  0.00    -0.250 OA
ATOM     13  C   UNL     1      -9.276  12.023  67.052  0.00  0.00    +0.004 C 
ATOM     14  C   UNL     1      -7.811  12.364  67.636  0.00  0.00    +0.002 C 
ATOM     15  C   UNL     1      -8.290  11.365  68.704  0.00  0.00    +0.022 C 
ENDROOT
BRANCH   1  17
ATOM     16  C   UNL     1      -8.859   7.965  69.052  0.00  0.00    +0.421 C 
ATOM     17  N   UNL     1      -9.002   9.088  68.167  0.00  0.00    -0.170 NA
ATOM     18  O   UNL     1      -8.171   8.037  70.115  0.00  0.00    -0.225 OA
BRANCH  16  19
ATOM     19  O   UNL     1      -9.437   6.723  68.878  0.00  0.00    -0.434 OA
BRANCH  19  21
ATOM     20  C   UNL     1     -11.023   6.360  67.095  0.00  0.00    +0.051 C 
ATOM     21  C   UNL     1     -10.794   6.512  68.508  0.00  0.00    +0.210 C 
ENDBRANCH  19  21
ENDBRANCH  16  19
ENDBRANCH   1  17
BRANCH   7  22
ATOM     22  C   UNL     1     -10.491  14.142  66.406  0.00  0.00    -0.025 C 
ATOM     23  C   UNL     1      -9.814  15.140  66.962  0.00  0.00    +0.015 C 
BRANCH  23  24
ATOM     24  C   UNL     1     -10.042  16.546  66.976  0.00  0.00    +0.081 A 
ATOM     25  N   UNL     1      -9.610  17.450  66.069  0.00  0.00    -0.244 NA
ATOM     26  C   UNL     1      -8.952  18.570  66.360  0.00  0.00    +0.099 A 
ATOM     27  C   UNL     1      -8.952  19.064  67.635  0.00  0.00    +0.019 A 
ATOM     28  C   UNL     1      -9.773  18.397  68.535  0.00  0.00    +0.003 A 
ATOM     29  C   UNL     1     -10.276  17.132  68.222  0.00  0.00    +0.019 A 
BRANCH  27  30
ATOM     30  C   UNL     1      -7.816  19.890  68.052  0.00  0.00    +0.004 A 
ATOM     31  C   UNL     1      -7.129  19.665  69.240  0.00  0.00    +0.030 A 
ATOM     32  C   UNL     1      -5.777  19.971  69.317  0.00  0.00    +0.140 A 
ATOM     33  F   UNL     1      -4.991  19.580  70.357  0.00  0.00    -0.204 F 
ATOM     34  C   UNL     1      -5.127  20.482  68.203  0.00  0.00    +0.030 A 
ATOM     35  C   UNL     1      -5.906  21.113  67.258  0.00  0.00    +0.002 A 
ATOM     36  C   UNL     1      -7.259  20.839  67.203  0.00  0.00    +0.000 A 
ENDBRANCH  27  30
ENDBRANCH  23  24
ENDBRANCH   7  22
TORSDOF 6
ENDMDL
MODEL 7
REMARK VINA RESULT:      -7.1      2.024      2.683
REMARK  Name = 
REMARK  6 active torsions:
REMARK  status: ('A' for Active; 'I' for Inactive)
REMARK    1  A    between atoms: C_2  and  O_3
REMARK    2  A    between atoms: O_3  and  C_4
REMARK    3  A    between atoms: N_6  and  C_7
REMARK    4  A    between atoms: C_20  and  C_21
REMARK    5  A    between atoms: C_22  and  C_23
REMARK    6  A    between atoms: C_26  and  C_27
REMARK                            x       y       z     vdW  Elec       q    Type
REMARK                         _______ _______ _______ _____ _____    ______ ____
ROOT
ATOM      1  C   UNL     1      -4.285  19.523  68.850  0.00  0.00    +0.099 C 
ATOM      2  C   UNL     1      -5.605  20.391  69.197  0.00  0.00    +0.022 C 
ATOM      3  C   UNL     1      -7.067  20.076  68.643  0.00  0.00    +0.003 C 
ATOM      4  C   UNL     1      -6.786  20.317  67.040  0.00  0.00    +0.011 C 
ATOM      5  C   UNL     1      -8.211  19.843  66.364  0.00  0.00    +0.103 C 
ATOM      6  C   UNL     1      -9.164  19.596  67.744  0.00  0.00    +0.055 C 
ATOM      7  C   UNL     1      -8.542  18.369  68.737  0.00  0.00    +0.026 C 
ATOM      8  C   UNL     1     -10.199  18.586  66.806  0.00  0.00    +0.170 C 
ATOM      9  C   UNL     1     -10.643  19.900  65.880  0.00  0.00    +0.047 C 
ATOM     10  O   UNL     1      -9.148  18.158  65.768  0.00  0.00    -0.452 OA
ATOM     11  C   UNL     1      -7.909  18.261  66.150  0.00  0.00    +0.316 C 
ATOM     12  O   UNL     1      -7.003  18.164  65.267  0.00  0.00    -0.250 OA
ATOM     13  C   UNL     1      -6.928  18.413  68.224  0.00  0.00    +0.004 C 
ATOM     14  C   UNL     1      -6.196  18.053  69.617  0.00  0.00    +0.002 C 
ATOM     15  C   UNL     1      -4.985  18.011  68.670  0.00  0.00    +0.022 C 
ENDROOT
BRANCH   1  17
ATOM     16  C   UNL     1      -3.134  20.675  67.011  0.00  0.00    +0.421 C 
ATOM     17  N   UNL     1      -4.320  19.910  67.279  0.00  0.00    -0.170 NA
ATOM     18  O   UNL     1      -2.043  20.448  67.615  0.00  0.00    -0.225 OA
BRANCH  16  19
ATOM     19  O   UNL     1      -3.027  21.701  66.092  0.00  0.00    -0.434 OA
BRANCH  19  21
ATOM     20  C   UNL     1      -2.655  20.186  64.250  0.00  0.00    +0.051 C 
ATOM     21  C   UNL     1      -2.991  21.517  64.682  0.00  0.00    +0.210 C 
ENDBRANCH  19  21
ENDBRANCH  16  19
ENDBRANCH   1  17
BRANCH   7  22
ATOM     22  C   UNL     1      -9.031  17.041  67.943  0.00  0.00    -0.025 C 
ATOM     23  C   UNL     1      -9.642  16.307  68.866  0.00  0.00    +0.015 C 
BRANCH  23  24
ATOM     24  C   UNL     1     -10.838  15.535  68.822  0.00  0.00    +0.081 A 
ATOM     25  N   UNL     1     -11.538  15.056  69.874  0.00  0.00    -0.244 NA
ATOM     26  C   UNL     1     -11.920  13.789  70.025  0.00  0.00    +0.099 A 
ATOM     27  C   UNL     1     -11.923  12.934  68.957  0.00  0.00    +0.019 A 
ATOM     28  C   UNL     1     -11.633  13.510  67.728  0.00  0.00    +0.003 A 
ATOM     29  C   UNL     1     -11.057  14.781  67.667  0.00  0.00    +0.019 A 
BRANCH  27  30
ATOM     30  C   UNL     1     -11.768  11.501  69.225  0.00  0.00    +0.004 A 
ATOM     31  C   UNL     1     -11.236  10.623  68.287  0.00  0.00    +0.030 A 
ATOM     32  C   UNL     1     -10.528   9.509  68.718  0.00  0.00    +0.140 A 
ATOM     33  F   UNL     1      -9.795   8.731  67.876  0.00  0.00    -0.204 F 
ATOM     34  C   UNL     1     -10.348   9.297  70.077  0.00  0.00    +0.030 A 
ATOM     35  C   UNL     1     -11.257   9.886  70.928  0.00  0.00    +0.002 A 
ATOM     36  C   UNL     1     -11.991  10.971  70.491  0.00  0.00    +0.000 A 
ENDBRANCH  27  30
ENDBRANCH  23  24
ENDBRANCH   7  22
TORSDOF 6
ENDMDL
MODEL 8
REMARK VINA RESULT:      -6.9      3.726      9.512
REMARK  Name = 
REMARK  6 active torsions:
REMARK  status: ('A' for Active; 'I' for Inactive)
REMARK    1  A    between atoms: C_2  and  O_3
REMARK    2  A    between atoms: O_3  and  C_4
REMARK    3  A    between atoms: N_6  and  C_7
REMARK    4  A    between atoms: C_20  and  C_21
REMARK    5  A    between atoms: C_22  and  C_23
REMARK    6  A    between atoms: C_26  and  C_27
REMARK                            x       y       z     vdW  Elec       q    Type
REMARK                         _______ _______ _______ _____ _____    ______ ____
ROOT
ATOM      1  C   UNL     1     -11.222  12.580  64.527  0.00  0.00    +0.099 C 
ATOM      2  C   UNL     1     -12.396  13.231  65.428  0.00  0.00    +0.022 C 
ATOM      3  C   UNL     1     -12.151  14.127  66.725  0.00  0.00    +0.003 C 
ATOM      4  C   UNL     1     -11.433  12.996  67.680  0.00  0.00    +0.011 C 
ATOM      5  C   UNL     1     -10.984  13.886  68.991  0.00  0.00    +0.103 C 
ATOM      6  C   UNL     1     -11.721  15.373  68.648  0.00  0.00    +0.055 C 
ATOM      7  C   UNL     1     -11.115  16.070  67.224  0.00  0.00    +0.026 C 
ATOM      8  C   UNL     1     -10.611  16.133  69.727  0.00  0.00    +0.170 C 
ATOM      9  C   UNL     1     -11.285  15.301  71.006  0.00  0.00    +0.047 C 
ATOM     10  O   UNL     1      -9.484  15.094  69.593  0.00  0.00    -0.452 OA
ATOM     11  C   UNL     1      -9.511  14.374  68.511  0.00  0.00    +0.316 C 
ATOM     12  O   UNL     1      -8.769  13.347  68.460  0.00  0.00    -0.250 OA
ATOM     13  C   UNL     1     -10.536  14.666  66.474  0.00  0.00    +0.004 C 
ATOM     14  C   UNL     1     -10.832  15.047  64.933  0.00  0.00    +0.002 C 
ATOM     15  C   UNL     1     -10.035  13.747  64.730  0.00  0.00    +0.022 C 
ENDROOT
BRANCH   1  17
ATOM     16  C   UNL     1     -10.090  10.474  65.090  0.00  0.00    +0.421 C 
ATOM     17  N   UNL     1     -10.707  11.612  65.716  0.00  0.00    -0.170 NA
ATOM     18  O   UNL     1      -9.460  10.575  63.995  0.00  0.00    -0.225 OA
BRANCH  16  19
ATOM     19  O   UNL     1     -10.091   9.184  65.583  0.00  0.00    -0.434 OA
BRANCH  19  21
ATOM     20  C   UNL     1     -10.682   7.478  67.185  0.00  0.00    +0.051 C 
ATOM     21  C   UNL     1     -10.302   8.845  66.948  0.00  0.00    +0.210 C 
ENDBRANCH  19  21
ENDBRANCH  16  19
ENDBRANCH   1  17
BRANCH   7  22
ATOM     22  C   UNL     1      -9.707  16.684  67.747  0.00  0.00    -0.025 C 
ATOM     23  C   UNL     1      -9.317  17.499  66.772  0.00  0.00    +0.015 C 
BRANCH  23  24
ATOM     24  C   UNL     1      -8.724  18.794  66.802  0.00  0.00    +0.081 A 
ATOM     25  N   UNL     1      -8.340  19.539  65.741  0.00  0.00    -0.244 NA
ATOM     26  C   UNL     1      -7.140  20.095  65.593  0.00  0.00    +0.099 A 
ATOM     27  C   UNL     1      -6.304  20.238  66.666  0.00  0.00    +0.019 A 
ATOM     28  C   UNL     1      -6.844  19.887  67.897  0.00  0.00    +0.003 A 
ATOM     29  C   UNL     1      -8.020  19.136  67.959  0.00  0.00    +0.019 A 
BRANCH  27  30
ATOM     30  C   UNL     1      -4.861  20.285  66.412  0.00  0.00    +0.004 A 
ATOM     31  C   UNL     1      -4.280  19.665  65.311  0.00  0.00    +0.030 A 
ATOM     32  C   UNL     1      -3.136  20.209  64.744  0.00  0.00    +0.140 A 
ATOM     33  F   UNL     1      -2.639  19.796  63.547  0.00  0.00    -0.204 F 
ATOM     34  C   UNL     1      -2.598  21.373  65.273  0.00  0.00    +0.030 A 
ATOM     35  C   UNL     1      -2.900  21.663  66.585  0.00  0.00    +0.002 A 
ATOM     36  C   UNL     1      -4.017  21.093  67.165  0.00  0.00    +0.000 A 
ENDBRANCH  27  30
ENDBRANCH  23  24
ENDBRANCH   7  22
TORSDOF 6
ENDMDL
MODEL 9
REMARK VINA RESULT:      -6.9      6.330     11.385
REMARK  Name = 
REMARK  6 active torsions:
REMARK  status: ('A' for Active; 'I' for Inactive)
REMARK    1  A    between atoms: C_2  and  O_3
REMARK    2  A    between atoms: O_3  and  C_4
REMARK    3  A    between atoms: N_6  and  C_7
REMARK    4  A    between atoms: C_20  and  C_21
REMARK    5  A    between atoms: C_22  and  C_23
REMARK    6  A    between atoms: C_26  and  C_27
REMARK                            x       y       z     vdW  Elec       q    Type
REMARK                         _______ _______ _______ _____ _____    ______ ____
ROOT
ATOM      1  C   UNL     1     -11.173   7.327  72.559  0.00  0.00    +0.099 C 
ATOM      2  C   UNL     1      -9.733   8.034  72.354  0.00  0.00    +0.022 C 
ATOM      3  C   UNL     1      -9.218   8.657  70.980  0.00  0.00    +0.003 C 
ATOM      4  C   UNL     1      -9.169   7.281  70.081  0.00  0.00    +0.011 C 
ATOM      5  C   UNL     1      -8.810   7.859  68.581  0.00  0.00    +0.103 C 
ATOM      6  C   UNL     1      -8.504   9.491  68.922  0.00  0.00    +0.055 C 
ATOM      7  C   UNL     1      -9.871  10.277  69.548  0.00  0.00    +0.026 C 
ATOM      8  C   UNL     1      -8.806   9.858  67.265  0.00  0.00    +0.170 C 
ATOM      9  C   UNL     1      -7.462   8.975  66.824  0.00  0.00    +0.047 C 
ATOM     10  O   UNL     1      -9.733   8.664  66.979  0.00  0.00    -0.452 OA
ATOM     11  C   UNL     1     -10.308   8.138  68.019  0.00  0.00    +0.316 C 
ATOM     12  O   UNL     1     -10.878   7.014  67.881  0.00  0.00    -0.250 OA
ATOM     13  C   UNL     1     -10.699   8.925  70.144  0.00  0.00    +0.004 C 
ATOM     14  C   UNL     1     -11.390   9.588  71.444  0.00  0.00    +0.002 C 
ATOM     15  C   UNL     1     -12.077   8.212  71.459  0.00  0.00    +0.022 C 
ENDROOT
BRANCH   1  17
ATOM     16  C   UNL     1     -10.778   4.913  72.347  0.00  0.00    +0.421 C 
ATOM     17  N   UNL     1     -10.832   6.109  71.552  0.00  0.00    -0.170 NA
ATOM     18  O   UNL     1     -11.524   4.749  73.359  0.00  0.00    -0.225 OA
BRANCH  16  19
ATOM     19  O   UNL     1      -9.955   3.828  72.116  0.00  0.00    -0.434 OA
BRANCH  19  21
ATOM     20  C   UNL     1      -9.440   3.341  69.808  0.00  0.00    +0.051 C 
ATOM     21  C   UNL     1      -8.965   3.772  71.096  0.00  0.00    +0.210 C 
ENDBRANCH  19  21
ENDBRANCH  16  19
ENDBRANCH   1  17
BRANCH   7  22
ATOM     22  C   UNL     1     -10.733  10.536  68.198  0.00  0.00    -0.025 C 
ATOM     23  C   UNL     1     -11.511  11.571  68.494  0.00  0.00    +0.015 C 
BRANCH  23  24
ATOM     24  C   UNL     1     -11.891  12.716  67.736  0.00  0.00    +0.081 A 
ATOM     25  N   UNL     1     -11.675  12.930  66.419  0.00  0.00    -0.244 NA
ATOM     26  C   UNL     1     -11.115  14.022  65.904  0.00  0.00    +0.099 A 
ATOM     27  C   UNL     1     -11.018  15.168  66.646  0.00  0.00    +0.019 A 
ATOM     28  C   UNL     1     -11.647  15.134  67.883  0.00  0.00    +0.003 A 
ATOM     29  C   UNL     1     -12.040  13.914  68.438  0.00  0.00    +0.019 A 
BRANCH  27  30
ATOM     30  C   UNL     1      -9.939  16.106  66.323  0.00  0.00    +0.004 A 
ATOM     31  C   UNL     1     -10.149  17.477  66.233  0.00  0.00    +0.030 A 
ATOM     32  C   UNL     1      -9.122  18.350  66.563  0.00  0.00    +0.140 A 
ATOM     33  F   UNL     1      -9.311  19.689  66.713  0.00  0.00    -0.204 F 
ATOM     34  C   UNL     1      -7.904  17.842  66.994  0.00  0.00    +0.030 A 
ATOM     35  C   UNL     1      -7.597  16.552  66.619  0.00  0.00    +0.002 A 
ATOM     36  C   UNL     1      -8.614  15.692  66.253  0.00  0.00    +0.000 A 
ENDBRANCH  27  30
ENDBRANCH  23  24
ENDBRANCH   7  22
TORSDOF 6
ENDMDL
