MODEL 1
REMARK VINA RESULT:      -6.4      0.000      0.000
REMARK  Name = 
REMARK  10 active torsions:
REMARK  status: ('A' for Active; 'I' for Inactive)
REMARK    1  A    between atoms: C_2  and  C_3
REMARK    2  A    between atoms: C_3  and  C_4
REMARK    3  A    between atoms: C_4  and  C_5
REMARK    4  A    between atoms: C_5  and  C_6
REMARK    5  A    between atoms: C_6  and  C_7
REMARK    6  A    between atoms: C_7  and  C_8
REMARK    7  A    between atoms: C_8  and  C_9
REMARK    8  A    between atoms: C_9  and  C_10
REMARK    9  A    between atoms: C_10  and  O_12
REMARK   10  A    between atoms: O_12  and  C_13
REMARK                            x       y       z     vdW  Elec       q    Type
REMARK                         _______ _______ _______ _____ _____    ______ ____
ROOT
ATOM      1  C   UNL     1     -10.116  11.900  66.194  0.00  0.00    +0.169 C 
ATOM      2  C   UNL     1     -10.138  11.874  67.828  0.00  0.00    +0.037 C 
ATOM      3  C   UNL     1     -10.272  10.269  67.651  0.00  0.00    +0.003 C 
ATOM      4  C   UNL     1     -10.017  10.048  69.302  0.00  0.00    +0.001 C 
ATOM      5  C   UNL     1     -11.682   9.986  69.469  0.00  0.00    +0.004 C 
ATOM      6  C   UNL     1     -11.861  11.574  69.618  0.00  0.00    +0.000 C 
ATOM      7  C   UNL     1     -11.547   9.788  71.142  0.00  0.00    +0.019 C 
ATOM      8  C   UNL     1     -11.515   8.202  71.003  0.00  0.00    -0.042 C 
ATOM      9  C   UNL     1     -12.529   7.462  70.946  0.00  0.00    +0.029 C 
ATOM     10  C   UNL     1     -13.702   7.799  71.724  0.00  0.00    +0.173 C 
ATOM     11  C   UNL     1     -13.640   9.140  72.388  0.00  0.00    +0.069 C 
ATOM     12  O   UNL     1     -14.716   7.136  71.840  0.00  0.00    -0.291 OA
ATOM     13  C   UNL     1     -10.177   7.822  70.470  0.00  0.00    +0.022 C 
ATOM     14  C   UNL     1     -13.154  10.004  71.284  0.00  0.00    +0.012 C 
ATOM     15  C   UNL     1      -9.887   8.453  69.142  0.00  0.00    +0.004 C 
ATOM     16  C   UNL     1      -8.709  10.169  67.269  0.00  0.00    +0.004 C 
ATOM     17  C   UNL     1      -8.878  12.270  68.365  0.00  0.00    +0.004 C 
ATOM     18  C   UNL     1     -11.425  12.242  68.350  0.00  0.00    +0.003 C 
ATOM     19  C   UNL     1      -8.659  11.128  66.133  0.00  0.00    +0.044 C 
ENDROOT
BRANCH   1  20
ATOM     20  O   UNL     1      -9.449  13.294  66.169  0.00  0.00    -0.452 OA
BRANCH  20  21
ATOM     21  C   UNL     1     -10.318  14.150  65.489  0.00  0.00    +0.317 C 
ATOM     22  O   UNL     1     -10.882  13.666  64.469  0.00  0.00    -0.250 OA
BRANCH  21  23
ATOM     23  C   UNL     1     -10.809  15.432  66.057  0.00  0.00    +0.110 C 
BRANCH  23  24
ATOM     24  C   UNL     1     -10.038  15.732  67.323  0.00  0.00    +0.012 C 
BRANCH  24  25
ATOM     25  C   UNL     1     -10.901  16.692  68.121  0.00  0.00    +0.001 C 
BRANCH  25  26
ATOM     26  C   UNL     1     -11.701  15.848  69.076  0.00  0.00    +0.000 C 
BRANCH  26  27
ATOM     27  C   UNL     1     -10.825  15.528  70.254  0.00  0.00    +0.000 C 
BRANCH  27  28
ATOM     28  C   UNL     1     -11.660  14.862  71.315  0.00  0.00    +0.000 C 
BRANCH  28  29
ATOM     29  C   UNL     1     -13.122  14.896  70.884  0.00  0.00    +0.000 C 
BRANCH  29  31
ATOM     30  C   UNL     1     -13.743  13.450  72.404  0.00  0.00    +0.000 C 
ATOM     31  C   UNL     1     -13.959  14.201  71.934  0.00  0.00    +0.000 C 
ENDBRANCH  29  31
ENDBRANCH  28  29
ENDBRANCH  27  28
ENDBRANCH  26  27
ENDBRANCH  25  26
ENDBRANCH  24  25
ENDBRANCH  23  24
ENDBRANCH  21  23
ENDBRANCH  20  21
ENDBRANCH   1  20
TORSDOF 10
ENDMDL
MODEL 2
REMARK VINA RESULT:      -6.3      2.470      7.291
REMARK  Name = 
REMARK  10 active torsions:
REMARK  status: ('A' for Active; 'I' for Inactive)
REMARK    1  A    between atoms: C_2  and  C_3
REMARK    2  A    between atoms: C_3  and  C_4
REMARK    3  A    between atoms: C_4  and  C_5
REMARK    4  A    between atoms: C_5  and  C_6
REMARK    5  A    between atoms: C_6  and  C_7
REMARK    6  A    between atoms: C_7  and  C_8
REMARK    7  A    between atoms: C_8  and  C_9
REMARK    8  A    between atoms: C_9  and  C_10
REMARK    9  A    between atoms: C_10  and  O_12
REMARK   10  A    between atoms: O_12  and  C_13
REMARK                            x       y       z     vdW  Elec       q    Type
REMARK                         _______ _______ _______ _____ _____    ______ ____
ROOT
ATOM      1  C   UNL     1     -10.858  12.281  66.385  0.00  0.00    +0.169 C 
ATOM      2  C   UNL     1     -10.795  13.495  67.477  0.00  0.00    +0.037 C 
ATOM      3  C   UNL     1     -10.360  14.409  66.212  0.00  0.00    +0.003 C 
ATOM      4  C   UNL     1     -10.531  15.805  67.140  0.00  0.00    +0.001 C 
ATOM      5  C   UNL     1      -8.882  15.726  67.417  0.00  0.00    +0.004 C 
ATOM      6  C   UNL     1      -9.007  14.757  68.690  0.00  0.00    +0.000 C 
ATOM      7  C   UNL     1      -8.939  17.106  68.391  0.00  0.00    +0.019 C 
ATOM      8  C   UNL     1      -8.671  18.060  67.145  0.00  0.00    -0.042 C 
ATOM      9  C   UNL     1      -7.535  18.361  66.697  0.00  0.00    +0.029 C 
ATOM     10  C   UNL     1      -6.431  18.538  67.617  0.00  0.00    +0.173 C 
ATOM     11  C   UNL     1      -6.734  18.145  69.030  0.00  0.00    +0.069 C 
ATOM     12  O   UNL     1      -5.307  18.914  67.342  0.00  0.00    -0.291 OA
ATOM     13  C   UNL     1      -9.923  18.115  66.340  0.00  0.00    +0.022 C 
ATOM     14  C   UNL     1      -7.400  16.833  68.845  0.00  0.00    +0.012 C 
ATOM     15  C   UNL     1     -10.358  16.764  65.861  0.00  0.00    +0.004 C 
ATOM     16  C   UNL     1     -11.884  14.423  65.685  0.00  0.00    +0.004 C 
ATOM     17  C   UNL     1     -12.094  13.810  67.970  0.00  0.00    +0.004 C 
ATOM     18  C   UNL     1      -9.590  13.447  68.259  0.00  0.00    +0.003 C 
ATOM     19  C   UNL     1     -12.141  12.960  65.602  0.00  0.00    +0.044 C 
ENDROOT
BRANCH   1  20
ATOM     20  O   UNL     1     -11.779  11.436  67.294  0.00  0.00    -0.452 OA
BRANCH  20  21
ATOM     21  C   UNL     1     -11.047  10.313  67.686  0.00  0.00    +0.317 C 
ATOM     22  O   UNL     1     -10.180   9.906  66.864  0.00  0.00    -0.250 OA
BRANCH  21  23
ATOM     23  C   UNL     1     -11.038   9.791  69.077  0.00  0.00    +0.110 C 
BRANCH  23  24
ATOM     24  C   UNL     1     -11.576  10.859  70.003  0.00  0.00    +0.012 C 
BRANCH  24  25
ATOM     25  C   UNL     1     -12.436  10.136  71.022  0.00  0.00    +0.001 C 
BRANCH  25  26
ATOM     26  C   UNL     1     -13.180  11.201  71.780  0.00  0.00    +0.000 C 
BRANCH  26  27
ATOM     27  C   UNL     1     -12.640  12.535  71.350  0.00  0.00    +0.000 C 
BRANCH  27  28
ATOM     28  C   UNL     1     -13.357  13.618  72.112  0.00  0.00    +0.000 C 
BRANCH  28  29
ATOM     29  C   UNL     1     -13.482  14.847  71.219  0.00  0.00    +0.000 C 
BRANCH  29  31
ATOM     30  C   UNL     1     -11.670  16.020  70.864  0.00  0.00    +0.000 C 
ATOM     31  C   UNL     1     -12.301  15.757  71.468  0.00  0.00    +0.000 C 
ENDBRANCH  29  31
ENDBRANCH  28  29
ENDBRANCH  27  28
ENDBRANCH  26  27
ENDBRANCH  25  26
ENDBRANCH  24  25
ENDBRANCH  23  24
ENDBRANCH  21  23
ENDBRANCH  20  21
ENDBRANCH   1  20
TORSDOF 10
ENDMDL
MODEL 3
REMARK VINA RESULT:      -6.1      2.306      6.046
REMARK  Name = 
REMARK  10 active torsions:
REMARK  status: ('A' for Active; 'I' for Inactive)
REMARK    1  A    between atoms: C_2  and  C_3
REMARK    2  A    between atoms: C_3  and  C_4
REMARK    3  A    between atoms: C_4  and  C_5
REMARK    4  A    between atoms: C_5  and  C_6
REMARK    5  A    between atoms: C_6  and  C_7
REMARK    6  A    between atoms: C_7  and  C_8
REMARK    7  A    between atoms: C_8  and  C_9
REMARK    8  A    between atoms: C_9  and  C_10
REMARK    9  A    between atoms: C_10  and  O_12
REMARK   10  A    between atoms: O_12  and  C_13
REMARK                            x       y       z     vdW  Elec       q    Type
REMARK                         _______ _______ _______ _____ _____    ______ ____
ROOT
ATOM      1  C   UNL     1      -9.539  10.921  67.334  0.00  0.00    +0.169 C 
ATOM      2  C   UNL     1     -10.972  11.628  67.675  0.00  0.00    +0.037 C 
ATOM      3  C   UNL     1     -10.067  12.813  68.308  0.00  0.00    +0.003 C 
ATOM      4  C   UNL     1     -11.429  13.794  68.463  0.00  0.00    +0.001 C 
ATOM      5  C   UNL     1     -11.526  13.269  70.050  0.00  0.00    +0.004 C 
ATOM      6  C   UNL     1     -12.395  11.964  69.707  0.00  0.00    +0.000 C 
ATOM      7  C   UNL     1     -12.916  14.193  70.314  0.00  0.00    +0.019 C 
ATOM      8  C   UNL     1     -12.056  15.444  70.793  0.00  0.00    -0.042 C 
ATOM      9  C   UNL     1     -11.648  15.632  71.967  0.00  0.00    +0.029 C 
ATOM     10  C   UNL     1     -12.478  15.231  73.082  0.00  0.00    +0.173 C 
ATOM     11  C   UNL     1     -13.690  14.439  72.699  0.00  0.00    +0.069 C 
ATOM     12  O   UNL     1     -12.259  15.429  74.263  0.00  0.00    -0.291 OA
ATOM     13  C   UNL     1     -11.425  16.048  69.587  0.00  0.00    +0.022 C 
ATOM     14  C   UNL     1     -13.121  13.453  71.748  0.00  0.00    +0.012 C 
ATOM     15  C   UNL     1     -10.547  15.081  68.852  0.00  0.00    +0.004 C 
ATOM     16  C   UNL     1      -9.703  13.340  66.828  0.00  0.00    +0.004 C 
ATOM     17  C   UNL     1     -11.648  12.020  66.484  0.00  0.00    +0.004 C 
ATOM     18  C   UNL     1     -11.589  11.049  68.837  0.00  0.00    +0.003 C 
ATOM     19  C   UNL     1      -9.144  12.092  66.241  0.00  0.00    +0.044 C 
ENDROOT
BRANCH   1  20
ATOM     20  O   UNL     1     -10.174  10.030  66.243  0.00  0.00    -0.452 OA
BRANCH  20  21
ATOM     21  C   UNL     1      -9.713   8.729  66.459  0.00  0.00    +0.317 C 
ATOM     22  O   UNL     1      -8.461   8.574  66.411  0.00  0.00    -0.250 OA
BRANCH  21  23
ATOM     23  C   UNL     1     -10.564   7.644  67.011  0.00  0.00    +0.110 C 
BRANCH  23  24
ATOM     24  C   UNL     1     -10.401   7.611  68.514  0.00  0.00    +0.012 C 
BRANCH  24  25
ATOM     25  C   UNL     1     -10.859   6.233  68.955  0.00  0.00    +0.001 C 
BRANCH  25  26
ATOM     26  C   UNL     1     -11.682   6.439  70.197  0.00  0.00    +0.000 C 
BRANCH  26  27
ATOM     27  C   UNL     1     -10.744   6.483  71.369  0.00  0.00    +0.000 C 
BRANCH  27  28
ATOM     28  C   UNL     1     -11.326   7.387  72.424  0.00  0.00    +0.000 C 
BRANCH  28  29
ATOM     29  C   UNL     1     -11.542   8.770  71.823  0.00  0.00    +0.000 C 
BRANCH  29  31
ATOM     30  C   UNL     1     -13.698   9.137  71.800  0.00  0.00    +0.000 C 
ATOM     31  C   UNL     1     -12.906   9.276  72.231  0.00  0.00    +0.000 C 
ENDBRANCH  29  31
ENDBRANCH  28  29
ENDBRANCH  27  28
ENDBRANCH  26  27
ENDBRANCH  25  26
ENDBRANCH  24  25
ENDBRANCH  23  24
ENDBRANCH  21  23
ENDBRANCH  20  21
ENDBRANCH   1  20
TORSDOF 10
ENDMDL
MODEL 4
REMARK VINA RESULT:      -5.9      1.377      1.898
REMARK  Name = 
REMARK  10 active torsions:
REMARK  status: ('A' for Active; 'I' for Inactive)
REMARK    1  A    between atoms: C_2  and  C_3
REMARK    2  A    between atoms: C_3  and  C_4
REMARK    3  A    between atoms: C_4  and  C_5
REMARK    4  A    between atoms: C_5  and  C_6
REMARK    5  A    between atoms: C_6  and  C_7
REMARK    6  A    between atoms: C_7  and  C_8
REMARK    7  A    between atoms: C_8  and  C_9
REMARK    8  A    between atoms: C_9  and  C_10
REMARK    9  A    between atoms: C_10  and  O_12
REMARK   10  A    between atoms: O_12  and  C_13
REMARK                            x       y       z     vdW  Elec       q    Type
REMARK                         _______ _______ _______ _____ _____    ______ ____
ROOT
ATOM      1  C   UNL     1     -11.046  11.496  64.793  0.00  0.00    +0.169 C 
ATOM      2  C   UNL     1     -10.414  11.549  66.299  0.00  0.00    +0.037 C 
ATOM      3  C   UNL     1     -10.495   9.933  66.228  0.00  0.00    +0.003 C 
ATOM      4  C   UNL     1      -9.589   9.808  67.644  0.00  0.00    +0.001 C 
ATOM      5  C   UNL     1     -11.041   9.663  68.465  0.00  0.00    +0.004 C 
ATOM      6  C   UNL     1     -11.258  11.244  68.636  0.00  0.00    +0.000 C 
ATOM      7  C   UNL     1     -10.239   9.555  69.948  0.00  0.00    +0.019 C 
ATOM      8  C   UNL     1     -10.153   7.969  69.845  0.00  0.00    -0.042 C 
ATOM      9  C   UNL     1     -11.051   7.172  70.216  0.00  0.00    +0.029 C 
ATOM     10  C   UNL     1     -11.838   7.482  71.390  0.00  0.00    +0.173 C 
ATOM     11  C   UNL     1     -11.612   8.856  71.942  0.00  0.00    +0.069 C 
ATOM     12  O   UNL     1     -12.673   6.771  71.917  0.00  0.00    -0.291 OA
ATOM     13  C   UNL     1      -9.114   7.638  68.830  0.00  0.00    +0.022 C 
ATOM     14  C   UNL     1     -11.667   9.689  70.716  0.00  0.00    +0.012 C 
ATOM     15  C   UNL     1      -9.422   8.217  67.483  0.00  0.00    +0.004 C 
ATOM     16  C   UNL     1      -9.210   9.900  65.255  0.00  0.00    +0.004 C 
ATOM     17  C   UNL     1      -9.077  12.041  66.278  0.00  0.00    +0.004 C 
ATOM     18  C   UNL     1     -11.410  11.871  67.284  0.00  0.00    +0.003 C 
ATOM     19  C   UNL     1      -9.684  10.803  64.172  0.00  0.00    +0.044 C 
ENDROOT
BRANCH   1  20
ATOM     20  O   UNL     1     -10.544  12.921  64.471  0.00  0.00    -0.452 OA
BRANCH  20  21
ATOM     21  C   UNL     1     -11.675  13.715  64.261  0.00  0.00    +0.317 C 
ATOM     22  O   UNL     1     -12.737  13.095  63.979  0.00  0.00    -0.250 OA
BRANCH  21  23
ATOM     23  C   UNL     1     -11.742  15.151  64.634  0.00  0.00    +0.110 C 
BRANCH  23  24
ATOM     24  C   UNL     1     -10.502  15.510  65.421  0.00  0.00    +0.012 C 
BRANCH  24  25
ATOM     25  C   UNL     1     -10.915  15.496  66.881  0.00  0.00    +0.001 C 
BRANCH  25  26
ATOM     26  C   UNL     1      -9.645  15.386  67.679  0.00  0.00    +0.000 C 
BRANCH  26  27
ATOM     27  C   UNL     1     -10.010  14.954  69.071  0.00  0.00    +0.000 C 
BRANCH  27  28
ATOM     28  C   UNL     1     -11.437  15.350  69.345  0.00  0.00    +0.000 C 
BRANCH  28  29
ATOM     29  C   UNL     1     -11.995  14.451  70.442  0.00  0.00    +0.000 C 
BRANCH  29  31
ATOM     30  C   UNL     1     -11.910  16.007  71.977  0.00  0.00    +0.000 C 
ATOM     31  C   UNL     1     -11.793  15.124  71.780  0.00  0.00    +0.000 C 
ENDBRANCH  29  31
ENDBRANCH  28  29
ENDBRANCH  27  28
ENDBRANCH  26  27
ENDBRANCH  25  26
ENDBRANCH  24  25
ENDBRANCH  23  24
ENDBRANCH  21  23
ENDBRANCH  20  21
ENDBRANCH   1  20
TORSDOF 10
ENDMDL
MODEL 5
REMARK VINA RESULT:      -5.9      2.068      3.086
REMARK  Name = 
REMARK  10 active torsions:
REMARK  status: ('A' for Active; 'I' for Inactive)
REMARK    1  A    between atoms: C_2  and  C_3
REMARK    2  A    between atoms: C_3  and  C_4
REMARK    3  A    between atoms: C_4  and  C_5
REMARK    4  A    between atoms: C_5  and  C_6
REMARK    5  A    between atoms: C_6  and  C_7
REMARK    6  A    between atoms: C_7  and  C_8
REMARK    7  A    between atoms: C_8  and  C_9
REMARK    8  A    between atoms: C_9  and  C_10
REMARK    9  A    between atoms: C_10  and  O_12
REMARK   10  A    between atoms: O_12  and  C_13
REMARK                            x       y       z     vdW  Elec       q    Type
REMARK                         _______ _______ _______ _____ _____    ______ ____
ROOT
ATOM      1  C   UNL     1     -10.955  11.518  64.658  0.00  0.00    +0.169 C 
ATOM      2  C   UNL     1     -10.381  11.616  66.185  0.00  0.00    +0.037 C 
ATOM      3  C   UNL     1     -10.407   9.997  66.140  0.00  0.00    +0.003 C 
ATOM      4  C   UNL     1      -9.549   9.925  67.589  0.00  0.00    +0.001 C 
ATOM      5  C   UNL     1     -11.025   9.745  68.359  0.00  0.00    +0.004 C 
ATOM      6  C   UNL     1     -11.298  11.321  68.495  0.00  0.00    +0.000 C 
ATOM      7  C   UNL     1     -10.274   9.688  69.872  0.00  0.00    +0.019 C 
ATOM      8  C   UNL     1     -10.133   8.104  69.800  0.00  0.00    -0.042 C 
ATOM      9  C   UNL     1     -11.018   7.284  70.152  0.00  0.00    +0.029 C 
ATOM     10  C   UNL     1     -11.857   7.587  71.292  0.00  0.00    +0.173 C 
ATOM     11  C   UNL     1     -11.696   8.976  71.827  0.00  0.00    +0.069 C 
ATOM     12  O   UNL     1     -12.687   6.857  71.800  0.00  0.00    -0.291 OA
ATOM     13  C   UNL     1      -9.048   7.791  68.828  0.00  0.00    +0.022 C 
ATOM     14  C   UNL     1     -11.733   9.787  70.586  0.00  0.00    +0.012 C 
ATOM     15  C   UNL     1      -9.325   8.338  67.461  0.00  0.00    +0.004 C 
ATOM     16  C   UNL     1      -9.087   9.991  65.214  0.00  0.00    +0.004 C 
ATOM     17  C   UNL     1      -9.060  12.151  66.203  0.00  0.00    +0.004 C 
ATOM     18  C   UNL     1     -11.422  11.921  67.128  0.00  0.00    +0.003 C 
ATOM     19  C   UNL     1      -9.550  10.860  64.099  0.00  0.00    +0.044 C 
ENDROOT
BRANCH   1  20
ATOM     20  O   UNL     1     -10.488  12.953  64.330  0.00  0.00    -0.452 OA
BRANCH  20  21
ATOM     21  C   UNL     1     -11.637  13.712  64.092  0.00  0.00    +0.317 C 
ATOM     22  O   UNL     1     -12.588  13.107  63.525  0.00  0.00    -0.250 OA
BRANCH  21  23
ATOM     23  C   UNL     1     -11.880  15.038  64.714  0.00  0.00    +0.110 C 
BRANCH  23  24
ATOM     24  C   UNL     1     -10.564  15.595  65.210  0.00  0.00    +0.012 C 
BRANCH  24  25
ATOM     25  C   UNL     1     -10.620  15.513  66.724  0.00  0.00    +0.001 C 
BRANCH  25  26
ATOM     26  C   UNL     1      -9.222  15.777  67.214  0.00  0.00    +0.000 C 
BRANCH  26  27
ATOM     27  C   UNL     1      -9.321  16.401  68.576  0.00  0.00    +0.000 C 
BRANCH  27  28
ATOM     28  C   UNL     1     -10.420  17.430  68.563  0.00  0.00    +0.000 C 
BRANCH  28  29
ATOM     29  C   UNL     1      -9.818  18.789  68.226  0.00  0.00    +0.000 C 
BRANCH  29  31
ATOM     30  C   UNL     1     -10.466  19.306  66.201  0.00  0.00    +0.000 C 
ATOM     31  C   UNL     1     -10.608  19.409  67.096  0.00  0.00    +0.000 C 
ENDBRANCH  29  31
ENDBRANCH  28  29
ENDBRANCH  27  28
ENDBRANCH  26  27
ENDBRANCH  25  26
ENDBRANCH  24  25
ENDBRANCH  23  24
ENDBRANCH  21  23
ENDBRANCH  20  21
ENDBRANCH   1  20
TORSDOF 10
ENDMDL
MODEL 6
REMARK VINA RESULT:      -5.8      1.791      3.181
REMARK  Name = 
REMARK  10 active torsions:
REMARK  status: ('A' for Active; 'I' for Inactive)
REMARK    1  A    between atoms: C_2  and  C_3
REMARK    2  A    between atoms: C_3  and  C_4
REMARK    3  A    between atoms: C_4  and  C_5
REMARK    4  A    between atoms: C_5  and  C_6
REMARK    5  A    between atoms: C_6  and  C_7
REMARK    6  A    between atoms: C_7  and  C_8
REMARK    7  A    between atoms: C_8  and  C_9
REMARK    8  A    between atoms: C_9  and  C_10
REMARK    9  A    between atoms: C_10  and  O_12
REMARK   10  A    between atoms: O_12  and  C_13
REMARK                            x       y       z     vdW  Elec       q    Type
REMARK                         _______ _______ _______ _____ _____    ______ ____
ROOT
ATOM      1  C   UNL     1      -9.400   9.313  65.622  0.00  0.00    +0.169 C 
ATOM      2  C   UNL     1      -9.574  10.259  66.944  0.00  0.00    +0.037 C 
ATOM      3  C   UNL     1      -9.697   8.856  67.746  0.00  0.00    +0.003 C 
ATOM      4  C   UNL     1      -9.597   9.669  69.218  0.00  0.00    +0.001 C 
ATOM      5  C   UNL     1     -11.270   9.631  69.261  0.00  0.00    +0.004 C 
ATOM      6  C   UNL     1     -11.456  10.988  68.423  0.00  0.00    +0.000 C 
ATOM      7  C   UNL     1     -11.292  10.469  70.728  0.00  0.00    +0.019 C 
ATOM      8  C   UNL     1     -11.252   9.114  71.563  0.00  0.00    -0.042 C 
ATOM      9  C   UNL     1     -12.260   8.432  71.879  0.00  0.00    +0.029 C 
ATOM     10  C   UNL     1     -13.498   9.103  72.211  0.00  0.00    +0.173 C 
ATOM     11  C   UNL     1     -13.493  10.577  71.950  0.00  0.00    +0.069 C 
ATOM     12  O   UNL     1     -14.521   8.585  72.620  0.00  0.00    -0.291 OA
ATOM     13  C   UNL     1      -9.872   8.563  71.464  0.00  0.00    +0.022 C 
ATOM     14  C   UNL     1     -12.904  10.643  70.591  0.00  0.00    +0.012 C 
ATOM     15  C   UNL     1      -9.458   8.299  70.048  0.00  0.00    +0.004 C 
ATOM     16  C   UNL     1      -8.106   8.631  67.619  0.00  0.00    +0.004 C 
ATOM     17  C   UNL     1      -8.368  10.961  67.235  0.00  0.00    +0.004 C 
ATOM     18  C   UNL     1     -10.903  10.796  67.045  0.00  0.00    +0.003 C 
ATOM     19  C   UNL     1      -7.947   8.732  66.143  0.00  0.00    +0.044 C 
ENDROOT
BRANCH   1  20
ATOM     20  O   UNL     1      -8.729  10.454  64.825  0.00  0.00    -0.452 OA
BRANCH  20  21
ATOM     21  C   UNL     1      -9.383  10.532  63.593  0.00  0.00    +0.317 C 
ATOM     22  O   UNL     1      -8.848   9.892  62.645  0.00  0.00    -0.250 OA
BRANCH  21  23
ATOM     23  C   UNL     1     -10.764  11.055  63.435  0.00  0.00    +0.110 C 
BRANCH  23  24
ATOM     24  C   UNL     1     -10.793  12.499  63.885  0.00  0.00    +0.012 C 
BRANCH  24  25
ATOM     25  C   UNL     1     -12.220  12.772  64.322  0.00  0.00    +0.001 C 
BRANCH  25  26
ATOM     26  C   UNL     1     -12.151  13.907  65.307  0.00  0.00    +0.000 C 
BRANCH  26  27
ATOM     27  C   UNL     1     -10.875  14.658  65.057  0.00  0.00    +0.000 C 
BRANCH  27  28
ATOM     28  C   UNL     1     -10.455  15.344  66.330  0.00  0.00    +0.000 C 
BRANCH  28  29
ATOM     29  C   UNL     1      -9.972  14.291  67.320  0.00  0.00    +0.000 C 
BRANCH  29  31
ATOM     30  C   UNL     1     -11.448  14.607  68.903  0.00  0.00    +0.000 C 
ATOM     31  C   UNL     1     -10.564  14.587  68.678  0.00  0.00    +0.000 C 
ENDBRANCH  29  31
ENDBRANCH  28  29
ENDBRANCH  27  28
ENDBRANCH  26  27
ENDBRANCH  25  26
ENDBRANCH  24  25
ENDBRANCH  23  24
ENDBRANCH  21  23
ENDBRANCH  20  21
ENDBRANCH   1  20
TORSDOF 10
ENDMDL
MODEL 7
REMARK VINA RESULT:      -5.6      2.548      8.055
REMARK  Name = 
REMARK  10 active torsions:
REMARK  status: ('A' for Active; 'I' for Inactive)
REMARK    1  A    between atoms: C_2  and  C_3
REMARK    2  A    between atoms: C_3  and  C_4
REMARK    3  A    between atoms: C_4  and  C_5
REMARK    4  A    between atoms: C_5  and  C_6
REMARK    5  A    between atoms: C_6  and  C_7
REMARK    6  A    between atoms: C_7  and  C_8
REMARK    7  A    between atoms: C_8  and  C_9
REMARK    8  A    between atoms: C_9  and  C_10
REMARK    9  A    between atoms: C_10  and  O_12
REMARK   10  A    between atoms: O_12  and  C_13
REMARK                            x       y       z     vdW  Elec       q    Type
REMARK                         _______ _______ _______ _____ _____    ______ ____
ROOT
ATOM      1  C   UNL     1     -10.807  12.292  66.347  0.00  0.00    +0.169 C 
ATOM      2  C   UNL     1     -10.749  13.507  67.439  0.00  0.00    +0.037 C 
ATOM      3  C   UNL     1     -10.373  14.434  66.164  0.00  0.00    +0.003 C 
ATOM      4  C   UNL     1     -10.559  15.824  67.098  0.00  0.00    +0.001 C 
ATOM      5  C   UNL     1      -8.901  15.791  67.332  0.00  0.00    +0.004 C 
ATOM      6  C   UNL     1      -8.965  14.817  68.607  0.00  0.00    +0.000 C 
ATOM      7  C   UNL     1      -8.970  17.168  68.309  0.00  0.00    +0.019 C 
ATOM      8  C   UNL     1      -8.762  18.130  67.058  0.00  0.00    -0.042 C 
ATOM      9  C   UNL     1      -7.647  18.462  66.581  0.00  0.00    +0.029 C 
ATOM     10  C   UNL     1      -6.525  18.669  67.472  0.00  0.00    +0.173 C 
ATOM     11  C   UNL     1      -6.779  18.267  68.892  0.00  0.00    +0.069 C 
ATOM     12  O   UNL     1      -5.419  19.077  67.168  0.00  0.00    -0.291 OA
ATOM     13  C   UNL     1     -10.036  18.150  66.287  0.00  0.00    +0.022 C 
ATOM     14  C   UNL     1      -7.414  16.937  68.723  0.00  0.00    +0.012 C 
ATOM     15  C   UNL     1     -10.446  16.788  65.816  0.00  0.00    +0.004 C 
ATOM     16  C   UNL     1     -11.910  14.405  65.677  0.00  0.00    +0.004 C 
ATOM     17  C   UNL     1     -12.043  13.786  67.966  0.00  0.00    +0.004 C 
ATOM     18  C   UNL     1      -9.523  13.492  68.189  0.00  0.00    +0.003 C 
ATOM     19  C   UNL     1     -12.129  12.936  65.599  0.00  0.00    +0.044 C 
ENDROOT
BRANCH   1  20
ATOM     20  O   UNL     1     -11.681  11.422  67.278  0.00  0.00    -0.452 OA
BRANCH  20  21
ATOM     21  C   UNL     1     -10.957  10.257  67.545  0.00  0.00    +0.317 C 
ATOM     22  O   UNL     1     -10.408   9.710  66.548  0.00  0.00    -0.250 OA
BRANCH  21  23
ATOM     23  C   UNL     1     -10.579   9.829  68.916  0.00  0.00    +0.110 C 
BRANCH  23  24
ATOM     24  C   UNL     1     -11.251  10.742  69.916  0.00  0.00    +0.012 C 
BRANCH  24  25
ATOM     25  C   UNL     1     -12.080   9.842  70.813  0.00  0.00    +0.001 C 
BRANCH  25  26
ATOM     26  C   UNL     1     -11.103   9.046  71.633  0.00  0.00    +0.000 C 
BRANCH  26  27
ATOM     27  C   UNL     1     -11.880   8.029  72.419  0.00  0.00    +0.000 C 
BRANCH  27  28
ATOM     28  C   UNL     1     -12.358   6.951  71.482  0.00  0.00    +0.000 C 
BRANCH  28  29
ATOM     29  C   UNL     1     -11.147   6.261  70.867  0.00  0.00    +0.000 C 
BRANCH  29  31
ATOM     30  C   UNL     1     -10.707   5.961  68.745  0.00  0.00    +0.000 C 
ATOM     31  C   UNL     1     -11.335   6.183  69.369  0.00  0.00    +0.000 C 
ENDBRANCH  29  31
ENDBRANCH  28  29
ENDBRANCH  27  28
ENDBRANCH  26  27
ENDBRANCH  25  26
ENDBRANCH  24  25
ENDBRANCH  23  24
ENDBRANCH  21  23
ENDBRANCH  20  21
ENDBRANCH   1  20
TORSDOF 10
ENDMDL
MODEL 8
REMARK VINA RESULT:      -5.6      4.886      9.826
REMARK  Name = 
REMARK  10 active torsions:
REMARK  status: ('A' for Active; 'I' for Inactive)
REMARK    1  A    between atoms: C_2  and  C_3
REMARK    2  A    between atoms: C_3  and  C_4
REMARK    3  A    between atoms: C_4  and  C_5
REMARK    4  A    between atoms: C_5  and  C_6
REMARK    5  A    between atoms: C_6  and  C_7
REMARK    6  A    between atoms: C_7  and  C_8
REMARK    7  A    between atoms: C_8  and  C_9
REMARK    8  A    between atoms: C_9  and  C_10
REMARK    9  A    between atoms: C_10  and  O_12
REMARK   10  A    between atoms: O_12  and  C_13
REMARK                            x       y       z     vdW  Elec       q    Type
REMARK                         _______ _______ _______ _____ _____    ______ ____
ROOT
ATOM      1  C   UNL     1      -9.998  17.930  66.161  0.00  0.00    +0.169 C 
ATOM      2  C   UNL     1      -8.572  17.791  66.947  0.00  0.00    +0.037 C 
ATOM      3  C   UNL     1      -8.328  19.318  66.463  0.00  0.00    +0.003 C 
ATOM      4  C   UNL     1      -6.974  19.435  67.459  0.00  0.00    +0.001 C 
ATOM      5  C   UNL     1      -6.052  19.054  66.114  0.00  0.00    +0.004 C 
ATOM      6  C   UNL     1      -6.173  17.466  66.314  0.00  0.00    +0.000 C 
ATOM      7  C   UNL     1      -4.628  19.116  67.022  0.00  0.00    +0.019 C 
ATOM      8  C   UNL     1      -4.431  20.663  66.703  0.00  0.00    -0.042 C 
ATOM      9  C   UNL     1      -3.860  21.123  65.681  0.00  0.00    +0.029 C 
ATOM     10  C   UNL     1      -2.720  20.423  65.128  0.00  0.00    +0.173 C 
ATOM     11  C   UNL     1      -2.456  19.084  65.745  0.00  0.00    +0.069 C 
ATOM     12  O   UNL     1      -2.016  20.791  64.206  0.00  0.00    -0.291 OA
ATOM     13  C   UNL     1      -5.427  21.422  67.510  0.00  0.00    +0.022 C 
ATOM     14  C   UNL     1      -3.813  18.485  65.763  0.00  0.00    +0.012 C 
ATOM     15  C   UNL     1      -6.838  21.018  67.210  0.00  0.00    +0.004 C 
ATOM     16  C   UNL     1      -9.355  19.849  67.586  0.00  0.00    +0.004 C 
ATOM     17  C   UNL     1      -8.770  17.679  68.353  0.00  0.00    +0.004 C 
ATOM     18  C   UNL     1      -7.607  17.058  66.174  0.00  0.00    +0.003 C 
ATOM     19  C   UNL     1     -10.559  19.050  67.234  0.00  0.00    +0.044 C 
ENDROOT
BRANCH   1  20
ATOM     20  O   UNL     1     -10.617  16.762  66.961  0.00  0.00    -0.452 OA
BRANCH  20  21
ATOM     21  C   UNL     1     -10.876  15.735  66.049  0.00  0.00    +0.317 C 
ATOM     22  O   UNL     1     -10.807  16.052  64.829  0.00  0.00    -0.250 OA
BRANCH  21  23
ATOM     23  C   UNL     1     -10.928  14.301  66.432  0.00  0.00    +0.110 C 
BRANCH  23  24
ATOM     24  C   UNL     1     -10.023  14.080  67.623  0.00  0.00    +0.012 C 
BRANCH  24  25
ATOM     25  C   UNL     1     -10.828  13.259  68.613  0.00  0.00    +0.001 C 
BRANCH  25  26
ATOM     26  C   UNL     1     -11.764  14.218  69.296  0.00  0.00    +0.000 C 
BRANCH  26  27
ATOM     27  C   UNL     1     -10.940  15.133  70.156  0.00  0.00    +0.000 C 
BRANCH  27  28
ATOM     28  C   UNL     1     -11.858  16.089  70.870  0.00  0.00    +0.000 C 
BRANCH  28  29
ATOM     29  C   UNL     1     -11.990  15.653  72.324  0.00  0.00    +0.000 C 
BRANCH  29  31
ATOM     30  C   UNL     1     -14.137  15.292  72.117  0.00  0.00    +0.000 C 
ATOM     31  C   UNL     1     -13.456  15.539  72.671  0.00  0.00    +0.000 C 
ENDBRANCH  29  31
ENDBRANCH  28  29
ENDBRANCH  27  28
ENDBRANCH  26  27
ENDBRANCH  25  26
ENDBRANCH  24  25
ENDBRANCH  23  24
ENDBRANCH  21  23
ENDBRANCH  20  21
ENDBRANCH   1  20
TORSDOF 10
ENDMDL
MODEL 9
REMARK VINA RESULT:      -5.6      2.429      7.692
REMARK  Name = 
REMARK  10 active torsions:
REMARK  status: ('A' for Active; 'I' for Inactive)
REMARK    1  A    between atoms: C_2  and  C_3
REMARK    2  A    between atoms: C_3  and  C_4
REMARK    3  A    between atoms: C_4  and  C_5
REMARK    4  A    between atoms: C_5  and  C_6
REMARK    5  A    between atoms: C_6  and  C_7
REMARK    6  A    between atoms: C_7  and  C_8
REMARK    7  A    between atoms: C_8  and  C_9
REMARK    8  A    between atoms: C_9  and  C_10
REMARK    9  A    between atoms: C_10  and  O_12
REMARK   10  A    between atoms: O_12  and  C_13
REMARK                            x       y       z     vdW  Elec       q    Type
REMARK                         _______ _______ _______ _____ _____    ______ ____
ROOT
ATOM      1  C   UNL     1     -10.593  12.414  65.695  0.00  0.00    +0.169 C 
ATOM      2  C   UNL     1     -10.639  13.535  66.883  0.00  0.00    +0.037 C 
ATOM      3  C   UNL     1     -10.320  14.590  65.695  0.00  0.00    +0.003 C 
ATOM      4  C   UNL     1     -10.621  15.880  66.736  0.00  0.00    +0.001 C 
ATOM      5  C   UNL     1      -8.968  15.951  66.996  0.00  0.00    +0.004 C 
ATOM      6  C   UNL     1      -8.974  14.873  68.186  0.00  0.00    +0.000 C 
ATOM      7  C   UNL     1      -9.153  17.233  68.081  0.00  0.00    +0.019 C 
ATOM      8  C   UNL     1      -9.003  18.308  66.917  0.00  0.00    -0.042 C 
ATOM      9  C   UNL     1      -7.911  18.761  66.488  0.00  0.00    +0.029 C 
ATOM     10  C   UNL     1      -6.818  18.976  67.413  0.00  0.00    +0.173 C 
ATOM     11  C   UNL     1      -7.058  18.441  68.790  0.00  0.00    +0.069 C 
ATOM     12  O   UNL     1      -5.743  19.489  67.163  0.00  0.00    -0.291 OA
ATOM     13  C   UNL     1     -10.265  18.298  66.126  0.00  0.00    +0.022 C 
ATOM     14  C   UNL     1      -7.588  17.086  68.502  0.00  0.00    +0.012 C 
ATOM     15  C   UNL     1     -10.565  16.953  65.539  0.00  0.00    +0.004 C 
ATOM     16  C   UNL     1     -11.844  14.487  65.180  0.00  0.00    +0.004 C 
ATOM     17  C   UNL     1     -11.957  13.673  67.408  0.00  0.00    +0.004 C 
ATOM     18  C   UNL     1      -9.425  13.550  67.651  0.00  0.00    +0.003 C 
ATOM     19  C   UNL     1     -11.950  13.017  64.978  0.00  0.00    +0.044 C 
ENDROOT
BRANCH   1  20
ATOM     20  O   UNL     1     -11.409  11.407  66.536  0.00  0.00    -0.452 OA
BRANCH  20  21
ATOM     21  C   UNL     1     -10.684  10.213  66.560  0.00  0.00    +0.317 C 
ATOM     22  O   UNL     1      -9.892  10.030  65.594  0.00  0.00    -0.250 OA
BRANCH  21  23
ATOM     23  C   UNL     1     -10.587   9.343  67.760  0.00  0.00    +0.110 C 
BRANCH  23  24
ATOM     24  C   UNL     1      -9.907  10.113  68.869  0.00  0.00    +0.012 C 
BRANCH  24  25
ATOM     25  C   UNL     1     -10.782   9.938  70.097  0.00  0.00    +0.001 C 
BRANCH  25  26
ATOM     26  C   UNL     1     -11.687  11.138  70.146  0.00  0.00    +0.000 C 
BRANCH  26  27
ATOM     27  C   UNL     1     -12.819  10.824  71.081  0.00  0.00    +0.000 C 
BRANCH  27  28
ATOM     28  C   UNL     1     -12.503   9.551  71.821  0.00  0.00    +0.000 C 
BRANCH  28  29
ATOM     29  C   UNL     1     -13.803   8.808  72.101  0.00  0.00    +0.000 C 
BRANCH  29  31
ATOM     30  C   UNL     1     -12.903   6.951  71.375  0.00  0.00    +0.000 C 
ATOM     31  C   UNL     1     -13.671   7.384  71.612  0.00  0.00    +0.000 C 
ENDBRANCH  29  31
ENDBRANCH  28  29
ENDBRANCH  27  28
ENDBRANCH  26  27
ENDBRANCH  25  26
ENDBRANCH  24  25
ENDBRANCH  23  24
ENDBRANCH  21  23
ENDBRANCH  20  21
ENDBRANCH   1  20
TORSDOF 10
ENDMDL
