MODEL 1
REMARK VINA RESULT:      -3.6      0.000      0.000
REMARK  Name = 
REMARK  2 active torsions:
REMARK  status: ('A' for Active; 'I' for Inactive)
REMARK    1  A    between atoms: N_2  and  C_5
REMARK    2  A    between atoms: C_5  and  C_6
REMARK                            x       y       z     vdW  Elec       q    Type
REMARK                         _______ _______ _______ _____ _____    ______ ____
ROOT
ATOM      1  C   UNL     1     -15.086  15.069  71.468  0.00  0.00    +0.171 C 
ATOM      2  N   UNL     1     -13.727  15.042  71.977  0.00  0.00    +0.313 N 
ATOM      3  C   UNL     1     -12.848  15.345  70.874  0.00  0.00    +0.171 C 
ATOM      4  C   UNL     1     -13.464  13.676  72.401  0.00  0.00    +0.171 C 
ENDROOT
BRANCH   2   5
ATOM      5  C   UNL     1     -13.515  15.917  73.096  0.00  0.00    +0.145 C 
BRANCH   5   6
ATOM      6  C   UNL     1     -12.465  15.413  74.040  0.00  0.00    +0.243 C 
ATOM      7  O   UNL     1     -12.460  16.106  75.261  0.00  0.00    -0.214 OA
ENDBRANCH   5   6
ENDBRANCH   2   5
TORSDOF 2
ENDMDL
MODEL 2
REMARK VINA RESULT:      -3.3      8.075      8.807
REMARK  Name = 
REMARK  2 active torsions:
REMARK  status: ('A' for Active; 'I' for Inactive)
REMARK    1  A    between atoms: N_2  and  C_5
REMARK    2  A    between atoms: C_5  and  C_6
REMARK                            x       y       z     vdW  Elec       q    Type
REMARK                         _______ _______ _______ _____ _____    ______ ____
ROOT
ATOM      1  C   UNL     1     -10.239  13.153  64.521  0.00  0.00    +0.171 C 
ATOM      2  N   UNL     1     -11.686  13.246  64.594  0.00  0.00    +0.313 N 
ATOM      3  C   UNL     1     -12.099  12.585  65.807  0.00  0.00    +0.171 C 
ATOM      4  C   UNL     1     -12.212  12.492  63.467  0.00  0.00    +0.171 C 
ENDROOT
BRANCH   2   5
ATOM      5  C   UNL     1     -12.179  14.593  64.514  0.00  0.00    +0.145 C 
BRANCH   5   6
ATOM      6  C   UNL     1     -11.128  15.618  64.814  0.00  0.00    +0.243 C 
ATOM      7  O   UNL     1     -11.364  16.841  64.166  0.00  0.00    -0.214 OA
ENDBRANCH   5   6
ENDBRANCH   2   5
TORSDOF 2
ENDMDL
MODEL 3
REMARK VINA RESULT:      -3.1      2.392      3.123
REMARK  Name = 
REMARK  2 active torsions:
REMARK  status: ('A' for Active; 'I' for Inactive)
REMARK    1  A    between atoms: N_2  and  C_5
REMARK    2  A    between atoms: C_5  and  C_6
REMARK                            x       y       z     vdW  Elec       q    Type
REMARK                         _______ _______ _______ _____ _____    ______ ____
ROOT
ATOM      1  C   UNL     1     -12.926  15.047  73.219  0.00  0.00    +0.171 C 
ATOM      2  N   UNL     1     -13.382  14.425  71.990  0.00  0.00    +0.313 N 
ATOM      3  C   UNL     1     -14.640  15.037  71.638  0.00  0.00    +0.171 C 
ATOM      4  C   UNL     1     -13.632  13.025  72.294  0.00  0.00    +0.171 C 
ENDROOT
BRANCH   2   5
ATOM      5  C   UNL     1     -12.426  14.497  70.921  0.00  0.00    +0.145 C 
BRANCH   5   6
ATOM      6  C   UNL     1     -11.952  15.894  70.654  0.00  0.00    +0.243 C 
ATOM      7  O   UNL     1     -12.031  16.242  69.297  0.00  0.00    -0.214 OA
ENDBRANCH   5   6
ENDBRANCH   2   5
TORSDOF 2
ENDMDL
MODEL 4
REMARK VINA RESULT:      -3.1      6.792      7.910
REMARK  Name = 
REMARK  2 active torsions:
REMARK  status: ('A' for Active; 'I' for Inactive)
REMARK    1  A    between atoms: N_2  and  C_5
REMARK    2  A    between atoms: C_5  and  C_6
REMARK                            x       y       z     vdW  Elec       q    Type
REMARK                         _______ _______ _______ _____ _____    ______ ____
ROOT
ATOM      1  C   UNL     1      -9.884  13.647  66.370  0.00  0.00    +0.171 C 
ATOM      2  N   UNL     1     -11.317  13.720  66.147  0.00  0.00    +0.313 N 
ATOM      3  C   UNL     1     -11.927  14.100  67.397  0.00  0.00    +0.171 C 
ATOM      4  C   UNL     1     -11.760  12.374  65.820  0.00  0.00    +0.171 C 
ENDROOT
BRANCH   2   5
ATOM      5  C   UNL     1     -11.687  14.597  65.072  0.00  0.00    +0.145 C 
BRANCH   5   6
ATOM      6  C   UNL     1     -10.843  15.835  65.012  0.00  0.00    +0.243 C 
ATOM      7  O   UNL     1     -11.372  16.808  64.150  0.00  0.00    -0.214 OA
ENDBRANCH   5   6
ENDBRANCH   2   5
TORSDOF 2
ENDMDL
MODEL 5
REMARK VINA RESULT:      -2.9      7.317      8.051
REMARK  Name = 
REMARK  2 active torsions:
REMARK  status: ('A' for Active; 'I' for Inactive)
REMARK    1  A    between atoms: N_2  and  C_5
REMARK    2  A    between atoms: C_5  and  C_6
REMARK                            x       y       z     vdW  Elec       q    Type
REMARK                         _______ _______ _______ _____ _____    ______ ____
ROOT
ATOM      1  C   UNL     1     -12.581  13.882  65.543  0.00  0.00    +0.171 C 
ATOM      2  N   UNL     1     -11.151  13.645  65.622  0.00  0.00    +0.313 N 
ATOM      3  C   UNL     1     -10.900  12.336  65.072  0.00  0.00    +0.171 C 
ATOM      4  C   UNL     1     -10.808  13.614  67.035  0.00  0.00    +0.171 C 
ENDROOT
BRANCH   2   5
ATOM      5  C   UNL     1     -10.365  14.663  64.983  0.00  0.00    +0.145 C 
BRANCH   5   6
ATOM      6  C   UNL     1     -10.797  16.051  65.349  0.00  0.00    +0.243 C 
ATOM      7  O   UNL     1     -11.217  16.798  64.238  0.00  0.00    -0.214 OA
ENDBRANCH   5   6
ENDBRANCH   2   5
TORSDOF 2
ENDMDL
MODEL 6
REMARK VINA RESULT:      -2.9      7.517      8.699
REMARK  Name = 
REMARK  2 active torsions:
REMARK  status: ('A' for Active; 'I' for Inactive)
REMARK    1  A    between atoms: N_2  and  C_5
REMARK    2  A    between atoms: C_5  and  C_6
REMARK                            x       y       z     vdW  Elec       q    Type
REMARK                         _______ _______ _______ _____ _____    ______ ____
ROOT
ATOM      1  C   UNL     1     -10.627  15.731  65.509  0.00  0.00    +0.171 C 
ATOM      2  N   UNL     1     -11.296  14.445  65.440  0.00  0.00    +0.313 N 
ATOM      3  C   UNL     1     -11.956  14.235  66.706  0.00  0.00    +0.171 C 
ATOM      4  C   UNL     1     -10.257  13.437  65.300  0.00  0.00    +0.171 C 
ENDROOT
BRANCH   2   5
ATOM      5  C   UNL     1     -12.201  14.327  64.331  0.00  0.00    +0.145 C 
BRANCH   5   6
ATOM      6  C   UNL     1     -12.055  13.029  63.594  0.00  0.00    +0.243 C 
ATOM      7  O   UNL     1     -13.177  12.199  63.735  0.00  0.00    -0.214 OA
ENDBRANCH   5   6
ENDBRANCH   2   5
TORSDOF 2
ENDMDL
MODEL 7
REMARK VINA RESULT:      -2.9      2.216      3.172
REMARK  Name = 
REMARK  2 active torsions:
REMARK  status: ('A' for Active; 'I' for Inactive)
REMARK    1  A    between atoms: N_2  and  C_5
REMARK    2  A    between atoms: C_5  and  C_6
REMARK                            x       y       z     vdW  Elec       q    Type
REMARK                         _______ _______ _______ _____ _____    ______ ____
ROOT
ATOM      1  C   UNL     1     -12.323  14.981  73.873  0.00  0.00    +0.171 C 
ATOM      2  N   UNL     1     -12.814  14.807  72.519  0.00  0.00    +0.313 N 
ATOM      3  C   UNL     1     -13.171  13.418  72.366  0.00  0.00    +0.171 C 
ATOM      4  C   UNL     1     -11.698  15.086  71.628  0.00  0.00    +0.171 C 
ENDROOT
BRANCH   2   5
ATOM      5  C   UNL     1     -13.898  15.687  72.183  0.00  0.00    +0.145 C 
BRANCH   5   6
ATOM      6  C   UNL     1     -15.030  14.983  71.497  0.00  0.00    +0.243 C 
ATOM      7  O   UNL     1     -16.100  15.841  71.201  0.00  0.00    -0.214 OA
ENDBRANCH   5   6
ENDBRANCH   2   5
TORSDOF 2
ENDMDL
MODEL 8
REMARK VINA RESULT:      -2.8      7.200      8.300
REMARK  Name = 
REMARK  2 active torsions:
REMARK  status: ('A' for Active; 'I' for Inactive)
REMARK    1  A    between atoms: N_2  and  C_5
REMARK    2  A    between atoms: C_5  and  C_6
REMARK                            x       y       z     vdW  Elec       q    Type
REMARK                         _______ _______ _______ _____ _____    ______ ____
ROOT
ATOM      1  C   UNL     1     -10.168  13.483  65.748  0.00  0.00    +0.171 C 
ATOM      2  N   UNL     1     -11.262  14.435  65.808  0.00  0.00    +0.313 N 
ATOM      3  C   UNL     1     -10.856  15.604  65.066  0.00  0.00    +0.171 C 
ATOM      4  C   UNL     1     -11.411  14.816  67.204  0.00  0.00    +0.171 C 
ENDROOT
BRANCH   2   5
ATOM      5  C   UNL     1     -12.512  13.903  65.342  0.00  0.00    +0.145 C 
BRANCH   5   6
ATOM      6  C   UNL     1     -12.398  12.494  64.845  0.00  0.00    +0.243 C 
ATOM      7  O   UNL     1     -13.116  12.279  63.659  0.00  0.00    -0.214 OA
ENDBRANCH   5   6
ENDBRANCH   2   5
TORSDOF 2
ENDMDL
MODEL 9
REMARK VINA RESULT:      -2.8      6.977      7.821
REMARK  Name = 
REMARK  2 active torsions:
REMARK  status: ('A' for Active; 'I' for Inactive)
REMARK    1  A    between atoms: N_2  and  C_5
REMARK    2  A    between atoms: C_5  and  C_6
REMARK                            x       y       z     vdW  Elec       q    Type
REMARK                         _______ _______ _______ _____ _____    ______ ____
ROOT
ATOM      1  C   UNL     1     -10.802  15.656  67.387  0.00  0.00    +0.171 C 
ATOM      2  N   UNL     1     -10.921  14.692  66.307  0.00  0.00    +0.313 N 
ATOM      3  C   UNL     1      -9.795  13.796  66.405  0.00  0.00    +0.171 C 
ATOM      4  C   UNL     1     -10.798  15.437  65.064  0.00  0.00    +0.171 C 
ENDROOT
BRANCH   2   5
ATOM      5  C   UNL     1     -12.174  13.991  66.299  0.00  0.00    +0.145 C 
BRANCH   5   6
ATOM      6  C   UNL     1     -12.112  12.694  65.549  0.00  0.00    +0.243 C 
ATOM      7  O   UNL     1     -13.192  12.527  64.668  0.00  0.00    -0.214 OA
ENDBRANCH   5   6
ENDBRANCH   2   5
TORSDOF 2
ENDMDL
