MODEL 1
REMARK VINA RESULT:      -5.5      0.000      0.000
REMARK  Name = 
REMARK  16 active torsions:
REMARK  status: ('A' for Active; 'I' for Inactive)
REMARK    1  A    between atoms: C_2  and  C_3
REMARK    2  A    between atoms: C_5  and  C_6
REMARK    3  A    between atoms: C_6  and  C_8
REMARK    4  A    between atoms: C_8  and  N_9
REMARK    5  A    between atoms: N_9  and  C_10
REMARK    6  A    between atoms: C_10  and  C_11
REMARK    7  A    between atoms: C_11  and  C_12
REMARK    8  A    between atoms: C_12  and  C_13
REMARK    9  A    between atoms: C_13  and  C_14
REMARK   10  A    between atoms: C_14  and  C_15
REMARK   11  A    between atoms: C_15  and  O_16
REMARK   12  A    between atoms: O_16  and  C_17
REMARK   13  A    between atoms: C_17  and  C_18
REMARK   14  A    between atoms: C_18  and  C_19
REMARK   15  A    between atoms: C_19  and  C_20
REMARK   16  A    between atoms: C_20  and  C_21
REMARK                            x       y       z     vdW  Elec       q    Type
REMARK                         _______ _______ _______ _____ _____    ______ ____
ROOT
ATOM      1  C   UNL     1     -10.197   9.929  66.241  0.00  0.00    +0.019 C 
ENDROOT
BRANCH   1   2
ATOM      2  C   UNL     1      -9.549  10.460  64.970  0.00  0.00    +0.089 C 
BRANCH   2   3
ATOM      3  N   UNL     1     -10.630  11.031  64.182  0.00  0.00    -0.215 NA
BRANCH   3   4
ATOM      4  C   UNL     1     -10.788  12.446  64.432  0.00  0.00    +0.126 C 
BRANCH   4   5
ATOM      5  C   UNL     1     -12.457  12.624  64.618  0.00  0.00    +0.192 C 
ATOM      6  O   UNL     1     -12.518  13.642  63.445  0.00  0.00    -0.217 OA
BRANCH   5  12
ATOM      7  C   UNL     1     -10.821  15.663  66.216  0.00  0.00    +0.049 A 
ATOM      8  C   UNL     1     -11.202  15.543  67.548  0.00  0.00    +0.194 A 
ATOM      9  O   UNL     1     -11.297  16.659  68.390  0.00  0.00    -0.287 OA
ATOM     10  C   UNL     1     -11.718  14.310  67.934  0.00  0.00    +0.042 A 
ATOM     11  C   UNL     1     -12.096  13.349  67.003  0.00  0.00    +0.001 A 
ATOM     12  C   UNL     1     -12.226  13.847  65.709  0.00  0.00    +0.009 A 
ATOM     13  C   UNL     1     -11.174  14.671  65.311  0.00  0.00    -0.000 A 
BRANCH   7  15
ATOM     14  O   UNL     1     -11.088  17.239  64.553  0.00  0.00    -0.215 OA
ATOM     15  C   UNL     1     -10.434  17.041  65.776  0.00  0.00    +0.212 C 
ENDBRANCH   7  15
ENDBRANCH   5  12
ENDBRANCH   4   5
ENDBRANCH   3   4
ENDBRANCH   2   3
ENDBRANCH   1   2
BRANCH   1  16
ATOM     16  C   UNL     1      -9.272  10.033  67.425  0.00  0.00    +0.002 C 
BRANCH  16  17
ATOM     17  C   UNL     1      -9.897  10.803  68.574  0.00  0.00    +0.003 C 
BRANCH  17  18
ATOM     18  C   UNL     1     -11.293  10.218  68.758  0.00  0.00    +0.032 C 
BRANCH  18  19
ATOM     19  C   UNL     1     -11.947  11.068  69.840  0.00  0.00    +0.142 C 
BRANCH  19  20
ATOM     20  O   UNL     1     -12.966  10.273  70.376  0.00  0.00    -0.354 OA
BRANCH  20  21
ATOM     21  C   UNL     1     -12.779  10.180  71.746  0.00  0.00    +0.142 C 
BRANCH  21  22
ATOM     22  C   UNL     1     -12.986   8.757  72.181  0.00  0.00    +0.032 C 
BRANCH  22  23
ATOM     23  C   UNL     1     -11.653   8.044  72.292  0.00  0.00    +0.007 C 
BRANCH  23  24
ATOM     24  C   UNL     1     -11.728   6.776  71.454  0.00  0.00    +0.026 C 
BRANCH  24  25
ATOM     25  C   UNL     1     -10.929   6.977  70.232  0.00  0.00    -0.022 A 
ATOM     26  C   UNL     1     -11.318   6.399  69.045  0.00  0.00    -0.004 A 
ATOM     27  C   UNL     1     -10.418   6.248  68.004  0.00  0.00    -0.000 A 
ATOM     28  C   UNL     1      -9.069   6.370  68.261  0.00  0.00    -0.000 A 
ATOM     29  C   UNL     1      -8.631   6.923  69.453  0.00  0.00    -0.000 A 
ATOM     30  C   UNL     1      -9.596   7.338  70.353  0.00  0.00    -0.004 A 
ENDBRANCH  24  25
ENDBRANCH  23  24
ENDBRANCH  22  23
ENDBRANCH  21  22
ENDBRANCH  20  21
ENDBRANCH  19  20
ENDBRANCH  18  19
ENDBRANCH  17  18
ENDBRANCH  16  17
ENDBRANCH   1  16
TORSDOF 16
ENDMDL
MODEL 2
REMARK VINA RESULT:      -5.4      2.629      5.169
REMARK  Name = 
REMARK  16 active torsions:
REMARK  status: ('A' for Active; 'I' for Inactive)
REMARK    1  A    between atoms: C_2  and  C_3
REMARK    2  A    between atoms: C_5  and  C_6
REMARK    3  A    between atoms: C_6  and  C_8
REMARK    4  A    between atoms: C_8  and  N_9
REMARK    5  A    between atoms: N_9  and  C_10
REMARK    6  A    between atoms: C_10  and  C_11
REMARK    7  A    between atoms: C_11  and  C_12
REMARK    8  A    between atoms: C_12  and  C_13
REMARK    9  A    between atoms: C_13  and  C_14
REMARK   10  A    between atoms: C_14  and  C_15
REMARK   11  A    between atoms: C_15  and  O_16
REMARK   12  A    between atoms: O_16  and  C_17
REMARK   13  A    between atoms: C_17  and  C_18
REMARK   14  A    between atoms: C_18  and  C_19
REMARK   15  A    between atoms: C_19  and  C_20
REMARK   16  A    between atoms: C_20  and  C_21
REMARK                            x       y       z     vdW  Elec       q    Type
REMARK                         _______ _______ _______ _____ _____    ______ ____
ROOT
ATOM      1  C   UNL     1      -8.935  16.292  67.195  0.00  0.00    +0.019 C 
ENDROOT
BRANCH   1   2
ATOM      2  C   UNL     1      -9.962  17.213  66.550  0.00  0.00    +0.089 C 
BRANCH   2   3
ATOM      3  N   UNL     1     -10.461  16.498  65.386  0.00  0.00    -0.215 NA
BRANCH   3   4
ATOM      4  C   UNL     1     -10.074  15.106  65.404  0.00  0.00    +0.126 C 
BRANCH   4   5
ATOM      5  C   UNL     1     -11.526  14.294  65.116  0.00  0.00    +0.192 C 
ATOM      6  O   UNL     1     -11.938  14.417  66.610  0.00  0.00    -0.217 OA
BRANCH   5  12
ATOM      7  C   UNL     1     -10.317  10.755  64.426  0.00  0.00    +0.049 A 
ATOM      8  C   UNL     1     -10.245  10.208  65.702  0.00  0.00    +0.194 A 
ATOM      9  O   UNL     1      -9.374   9.152  66.003  0.00  0.00    -0.287 OA
ATOM     10  C   UNL     1     -10.889  10.913  66.714  0.00  0.00    +0.042 A 
ATOM     11  C   UNL     1     -11.334  12.217  66.529  0.00  0.00    +0.001 A 
ATOM     12  C   UNL     1     -10.793  12.838  65.405  0.00  0.00    +0.009 A 
ATOM     13  C   UNL     1     -10.805  12.043  64.260  0.00  0.00    -0.000 A 
BRANCH   7  15
ATOM     14  O   UNL     1      -9.260  11.050  62.397  0.00  0.00    -0.215 OA
ATOM     15  C   UNL     1      -9.477  10.081  63.385  0.00  0.00    +0.212 C 
ENDBRANCH   7  15
ENDBRANCH   5  12
ENDBRANCH   4   5
ENDBRANCH   3   4
ENDBRANCH   2   3
ENDBRANCH   1   2
BRANCH   1  16
ATOM     16  C   UNL     1      -9.037  16.309  68.697  0.00  0.00    +0.002 C 
BRANCH  16  17
ATOM     17  C   UNL     1     -10.399  16.784  69.173  0.00  0.00    +0.003 C 
BRANCH  17  18
ATOM     18  C   UNL     1     -10.992  15.625  69.965  0.00  0.00    +0.032 C 
BRANCH  18  19
ATOM     19  C   UNL     1     -11.672  16.266  71.169  0.00  0.00    +0.142 C 
BRANCH  19  20
ATOM     20  O   UNL     1     -13.012  15.871  71.099  0.00  0.00    -0.354 OA
BRANCH  20  21
ATOM     21  C   UNL     1     -13.347  15.233  72.282  0.00  0.00    +0.142 C 
BRANCH  21  22
ATOM     22  C   UNL     1     -14.176  14.019  71.977  0.00  0.00    +0.032 C 
BRANCH  22  23
ATOM     23  C   UNL     1     -13.365  12.759  72.209  0.00  0.00    +0.007 C 
BRANCH  23  24
ATOM     24  C   UNL     1     -12.766  12.335  70.876  0.00  0.00    +0.026 C 
BRANCH  24  25
ATOM     25  C   UNL     1     -12.510  10.884  70.920  0.00  0.00    -0.022 A 
ATOM     26  C   UNL     1     -13.197  10.083  71.803  0.00  0.00    -0.004 A 
ATOM     27  C   UNL     1     -12.722   8.826  72.133  0.00  0.00    -0.000 A 
ATOM     28  C   UNL     1     -11.413   8.504  71.841  0.00  0.00    -0.000 A 
ATOM     29  C   UNL     1     -10.676   9.296  70.976  0.00  0.00    -0.000 A 
ATOM     30  C   UNL     1     -11.305  10.400  70.431  0.00  0.00    -0.004 A 
ENDBRANCH  24  25
ENDBRANCH  23  24
ENDBRANCH  22  23
ENDBRANCH  21  22
ENDBRANCH  20  21
ENDBRANCH  19  20
ENDBRANCH  18  19
ENDBRANCH  17  18
ENDBRANCH  16  17
ENDBRANCH   1  16
TORSDOF 16
ENDMDL
MODEL 3
REMARK VINA RESULT:      -5.3      2.757      5.149
REMARK  Name = 
REMARK  16 active torsions:
REMARK  status: ('A' for Active; 'I' for Inactive)
REMARK    1  A    between atoms: C_2  and  C_3
REMARK    2  A    between atoms: C_5  and  C_6
REMARK    3  A    between atoms: C_6  and  C_8
REMARK    4  A    between atoms: C_8  and  N_9
REMARK    5  A    between atoms: N_9  and  C_10
REMARK    6  A    between atoms: C_10  and  C_11
REMARK    7  A    between atoms: C_11  and  C_12
REMARK    8  A    between atoms: C_12  and  C_13
REMARK    9  A    between atoms: C_13  and  C_14
REMARK   10  A    between atoms: C_14  and  C_15
REMARK   11  A    between atoms: C_15  and  O_16
REMARK   12  A    between atoms: O_16  and  C_17
REMARK   13  A    between atoms: C_17  and  C_18
REMARK   14  A    between atoms: C_18  and  C_19
REMARK   15  A    between atoms: C_19  and  C_20
REMARK   16  A    between atoms: C_20  and  C_21
REMARK                            x       y       z     vdW  Elec       q    Type
REMARK                         _______ _______ _______ _____ _____    ______ ____
ROOT
ATOM      1  C   UNL     1     -11.985  13.989  65.805  0.00  0.00    +0.019 C 
ENDROOT
BRANCH   1   2
ATOM      2  C   UNL     1     -10.963  15.042  65.398  0.00  0.00    +0.089 C 
BRANCH   2   3
ATOM      3  N   UNL     1     -10.740  15.857  66.582  0.00  0.00    -0.215 NA
BRANCH   3   4
ATOM      4  C   UNL     1     -11.030  15.131  67.797  0.00  0.00    +0.126 C 
BRANCH   4   5
ATOM      5  C   UNL     1     -10.928  16.317  68.994  0.00  0.00    +0.192 C 
ATOM      6  O   UNL     1      -9.703  15.614  69.642  0.00  0.00    -0.217 OA
BRANCH   5  12
ATOM      7  C   UNL     1     -12.710  15.247  72.179  0.00  0.00    +0.049 A 
ATOM      8  C   UNL     1     -13.064  13.932  71.897  0.00  0.00    +0.194 A 
ATOM      9  O   UNL     1     -14.160  13.316  72.515  0.00  0.00    -0.287 OA
ATOM     10  C   UNL     1     -12.438  13.344  70.802  0.00  0.00    +0.042 A 
ATOM     11  C   UNL     1     -11.721  14.095  69.877  0.00  0.00    +0.001 A 
ATOM     12  C   UNL     1     -11.968  15.464  69.959  0.00  0.00    +0.009 A 
ATOM     13  C   UNL     1     -11.957  15.964  71.260  0.00  0.00    -0.000 A 
BRANCH   7  15
ATOM     14  O   UNL     1     -12.591  16.291  74.232  0.00  0.00    -0.215 OA
ATOM     15  C   UNL     1     -13.515  15.918  73.247  0.00  0.00    +0.212 C 
ENDBRANCH   7  15
ENDBRANCH   5  12
ENDBRANCH   4   5
ENDBRANCH   3   4
ENDBRANCH   2   3
ENDBRANCH   1   2
BRANCH   1  16
ATOM     16  C   UNL     1     -12.078  12.881  64.790  0.00  0.00    +0.002 C 
BRANCH  16  17
ATOM     17  C   UNL     1     -10.838  12.004  64.785  0.00  0.00    +0.003 C 
BRANCH  17  18
ATOM     18  C   UNL     1     -10.822  11.297  66.135  0.00  0.00    +0.032 C 
BRANCH  18  19
ATOM     19  C   UNL     1      -9.394  11.437  66.646  0.00  0.00    +0.142 C 
BRANCH  19  20
ATOM     20  O   UNL     1      -9.479  11.314  68.037  0.00  0.00    -0.354 OA
BRANCH  20  21
ATOM     21  C   UNL     1      -8.400  10.568  68.481  0.00  0.00    +0.142 C 
BRANCH  21  22
ATOM     22  C   UNL     1      -8.754   9.905  69.782  0.00  0.00    +0.032 C 
BRANCH  22  23
ATOM     23  C   UNL     1     -10.093   9.204  69.665  0.00  0.00    +0.007 C 
BRANCH  23  24
ATOM     24  C   UNL     1     -10.153   8.125  70.736  0.00  0.00    +0.026 C 
BRANCH  24  25
ATOM     25  C   UNL     1     -11.467   8.197  71.399  0.00  0.00    -0.022 A 
ATOM     26  C   UNL     1     -12.365   7.161  71.276  0.00  0.00    -0.004 A 
ATOM     27  C   UNL     1     -13.708   7.355  71.549  0.00  0.00    -0.000 A 
ATOM     28  C   UNL     1     -14.199   8.641  71.625  0.00  0.00    -0.000 A 
ATOM     29  C   UNL     1     -13.332   9.716  71.724  0.00  0.00    -0.000 A 
ATOM     30  C   UNL     1     -11.977   9.440  71.744  0.00  0.00    -0.004 A 
ENDBRANCH  24  25
ENDBRANCH  23  24
ENDBRANCH  22  23
ENDBRANCH  21  22
ENDBRANCH  20  21
ENDBRANCH  19  20
ENDBRANCH  18  19
ENDBRANCH  17  18
ENDBRANCH  16  17
ENDBRANCH   1  16
TORSDOF 16
ENDMDL
MODEL 4
REMARK VINA RESULT:      -5.3      1.991      4.521
REMARK  Name = 
REMARK  16 active torsions:
REMARK  status: ('A' for Active; 'I' for Inactive)
REMARK    1  A    between atoms: C_2  and  C_3
REMARK    2  A    between atoms: C_5  and  C_6
REMARK    3  A    between atoms: C_6  and  C_8
REMARK    4  A    between atoms: C_8  and  N_9
REMARK    5  A    between atoms: N_9  and  C_10
REMARK    6  A    between atoms: C_10  and  C_11
REMARK    7  A    between atoms: C_11  and  C_12
REMARK    8  A    between atoms: C_12  and  C_13
REMARK    9  A    between atoms: C_13  and  C_14
REMARK   10  A    between atoms: C_14  and  C_15
REMARK   11  A    between atoms: C_15  and  O_16
REMARK   12  A    between atoms: O_16  and  C_17
REMARK   13  A    between atoms: C_17  and  C_18
REMARK   14  A    between atoms: C_18  and  C_19
REMARK   15  A    between atoms: C_19  and  C_20
REMARK   16  A    between atoms: C_20  and  C_21
REMARK                            x       y       z     vdW  Elec       q    Type
REMARK                         _______ _______ _______ _____ _____    ______ ____
ROOT
ATOM      1  C   UNL     1     -11.473  11.461  69.604  0.00  0.00    +0.019 C 
ENDROOT
BRANCH   1   2
ATOM      2  C   UNL     1     -12.413  12.054  70.645  0.00  0.00    +0.089 C 
BRANCH   2   3
ATOM      3  N   UNL     1     -12.331  13.497  70.479  0.00  0.00    -0.215 NA
BRANCH   3   4
ATOM      4  C   UNL     1     -11.913  13.861  69.145  0.00  0.00    +0.126 C 
BRANCH   4   5
ATOM      5  C   UNL     1     -10.891  15.180  69.403  0.00  0.00    +0.192 C 
ATOM      6  O   UNL     1     -12.080  16.055  69.890  0.00  0.00    -0.217 OA
BRANCH   5  12
ATOM      7  C   UNL     1     -11.137  14.936  65.616  0.00  0.00    +0.049 A 
ATOM      8  C   UNL     1     -10.831  16.231  65.212  0.00  0.00    +0.194 A 
ATOM      9  O   UNL     1     -11.298  16.753  63.998  0.00  0.00    -0.287 OA
ATOM     10  C   UNL     1     -10.252  17.057  66.169  0.00  0.00    +0.042 A 
ATOM     11  C   UNL     1     -10.237  16.717  67.518  0.00  0.00    +0.001 A 
ATOM     12  C   UNL     1     -11.116  15.687  67.844  0.00  0.00    +0.009 A 
ATOM     13  C   UNL     1     -11.074  14.607  66.963  0.00  0.00    -0.000 A 
BRANCH   7  15
ATOM     14  O   UNL     1     -13.092  13.754  65.298  0.00  0.00    -0.215 OA
ATOM     15  C   UNL     1     -11.914  14.118  64.632  0.00  0.00    +0.212 C 
ENDBRANCH   7  15
ENDBRANCH   5  12
ENDBRANCH   4   5
ENDBRANCH   3   4
ENDBRANCH   2   3
ENDBRANCH   1   2
BRANCH   1  16
ATOM     16  C   UNL     1     -11.101  10.040  69.933  0.00  0.00    +0.002 C 
BRANCH  16  17
ATOM     17  C   UNL     1     -11.758   9.559  71.215  0.00  0.00    +0.003 C 
BRANCH  17  18
ATOM     18  C   UNL     1     -10.732   8.663  71.899  0.00  0.00    +0.032 C 
BRANCH  18  19
ATOM     19  C   UNL     1     -11.233   7.240  71.683  0.00  0.00    +0.142 C 
BRANCH  19  20
ATOM     20  O   UNL     1     -10.167   6.552  71.093  0.00  0.00    -0.354 OA
BRANCH  20  21
ATOM     21  C   UNL     1     -10.678   5.633  70.192  0.00  0.00    +0.142 C 
BRANCH  21  22
ATOM     22  C   UNL     1     -11.094   6.345  68.936  0.00  0.00    +0.032 C 
BRANCH  22  23
ATOM     23  C   UNL     1      -9.884   6.946  68.250  0.00  0.00    +0.007 C 
BRANCH  23  24
ATOM     24  C   UNL     1     -10.328   7.475  66.894  0.00  0.00    +0.026 C 
BRANCH  24  25
ATOM     25  C   UNL     1      -9.594   8.723  66.617  0.00  0.00    -0.022 A 
ATOM     26  C   UNL     1      -8.452   9.029  67.322  0.00  0.00    -0.004 A 
ATOM     27  C   UNL     1      -7.972  10.327  67.361  0.00  0.00    -0.000 A 
ATOM     28  C   UNL     1      -8.801  11.361  66.976  0.00  0.00    -0.000 A 
ATOM     29  C   UNL     1      -9.973  11.098  66.287  0.00  0.00    -0.000 A 
ATOM     30  C   UNL     1     -10.264   9.774  66.009  0.00  0.00    -0.004 A 
ENDBRANCH  24  25
ENDBRANCH  23  24
ENDBRANCH  22  23
ENDBRANCH  21  22
ENDBRANCH  20  21
ENDBRANCH  19  20
ENDBRANCH  18  19
ENDBRANCH  17  18
ENDBRANCH  16  17
ENDBRANCH   1  16
TORSDOF 16
ENDMDL
MODEL 5
REMARK VINA RESULT:      -5.3      2.382      4.590
REMARK  Name = 
REMARK  16 active torsions:
REMARK  status: ('A' for Active; 'I' for Inactive)
REMARK    1  A    between atoms: C_2  and  C_3
REMARK    2  A    between atoms: C_5  and  C_6
REMARK    3  A    between atoms: C_6  and  C_8
REMARK    4  A    between atoms: C_8  and  N_9
REMARK    5  A    between atoms: N_9  and  C_10
REMARK    6  A    between atoms: C_10  and  C_11
REMARK    7  A    between atoms: C_11  and  C_12
REMARK    8  A    between atoms: C_12  and  C_13
REMARK    9  A    between atoms: C_13  and  C_14
REMARK   10  A    between atoms: C_14  and  C_15
REMARK   11  A    between atoms: C_15  and  O_16
REMARK   12  A    between atoms: O_16  and  C_17
REMARK   13  A    between atoms: C_17  and  C_18
REMARK   14  A    between atoms: C_18  and  C_19
REMARK   15  A    between atoms: C_19  and  C_20
REMARK   16  A    between atoms: C_20  and  C_21
REMARK                            x       y       z     vdW  Elec       q    Type
REMARK                         _______ _______ _______ _____ _____    ______ ____
ROOT
ATOM      1  C   UNL     1     -13.623  13.631  71.699  0.00  0.00    +0.019 C 
ENDROOT
BRANCH   1   2
ATOM      2  C   UNL     1     -12.874  14.650  72.547  0.00  0.00    +0.089 C 
BRANCH   2   3
ATOM      3  N   UNL     1     -12.533  15.741  71.647  0.00  0.00    -0.215 NA
BRANCH   3   4
ATOM      4  C   UNL     1     -12.351  15.281  70.290  0.00  0.00    +0.126 C 
BRANCH   4   5
ATOM      5  C   UNL     1     -10.700  15.508  70.020  0.00  0.00    +0.192 C 
ATOM      6  O   UNL     1     -10.958  16.890  69.355  0.00  0.00    -0.217 OA
BRANCH   5  12
ATOM      7  C   UNL     1     -11.235  15.130  66.273  0.00  0.00    +0.049 A 
ATOM      8  C   UNL     1     -11.647  13.807  66.162  0.00  0.00    +0.194 A 
ATOM      9  O   UNL     1     -11.452  13.072  64.985  0.00  0.00    -0.287 OA
ATOM     10  C   UNL     1     -12.034  13.178  67.340  0.00  0.00    +0.042 A 
ATOM     11  C   UNL     1     -11.764  13.729  68.588  0.00  0.00    +0.001 A 
ATOM     12  C   UNL     1     -10.813  14.747  68.554  0.00  0.00    +0.009 A 
ATOM     13  C   UNL     1     -11.012  15.673  67.531  0.00  0.00    -0.000 A 
BRANCH   7  15
ATOM     14  O   UNL     1     -10.493  17.096  65.322  0.00  0.00    -0.215 OA
ATOM     15  C   UNL     1     -10.660  15.736  65.031  0.00  0.00    +0.212 C 
ENDBRANCH   7  15
ENDBRANCH   5  12
ENDBRANCH   4   5
ENDBRANCH   3   4
ENDBRANCH   2   3
ENDBRANCH   1   2
BRANCH   1  16
ATOM     16  C   UNL     1     -13.269  12.218  72.083  0.00  0.00    +0.002 C 
BRANCH  16  17
ATOM     17  C   UNL     1     -12.595  11.468  70.947  0.00  0.00    +0.003 C 
BRANCH  17  18
ATOM     18  C   UNL     1     -13.226  10.082  70.930  0.00  0.00    +0.032 C 
BRANCH  18  19
ATOM     19  C   UNL     1     -12.947   9.495  72.309  0.00  0.00    +0.142 C 
BRANCH  19  20
ATOM     20  O   UNL     1     -12.846   8.113  72.116  0.00  0.00    -0.354 OA
BRANCH  20  21
ATOM     21  C   UNL     1     -11.747   7.859  71.312  0.00  0.00    +0.142 C 
BRANCH  21  22
ATOM     22  C   UNL     1     -10.526   8.484  71.924  0.00  0.00    +0.032 C 
BRANCH  22  23
ATOM     23  C   UNL     1      -9.584   8.966  70.838  0.00  0.00    +0.007 C 
BRANCH  23  24
ATOM     24  C   UNL     1     -10.147   8.520  69.497  0.00  0.00    +0.026 C 
BRANCH  24  25
ATOM     25  C   UNL     1     -10.058   9.650  68.554  0.00  0.00    -0.022 A 
ATOM     26  C   UNL     1     -10.191   9.438  67.202  0.00  0.00    -0.004 A 
ATOM     27  C   UNL     1      -9.741  10.380  66.292  0.00  0.00    -0.000 A 
ATOM     28  C   UNL     1      -8.876  11.365  66.718  0.00  0.00    -0.000 A 
ATOM     29  C   UNL     1      -8.691  11.596  68.071  0.00  0.00    -0.000 A 
ATOM     30  C   UNL     1      -9.405  10.807  68.954  0.00  0.00    -0.004 A 
ENDBRANCH  24  25
ENDBRANCH  23  24
ENDBRANCH  22  23
ENDBRANCH  21  22
ENDBRANCH  20  21
ENDBRANCH  19  20
ENDBRANCH  18  19
ENDBRANCH  17  18
ENDBRANCH  16  17
ENDBRANCH   1  16
TORSDOF 16
ENDMDL
MODEL 6
REMARK VINA RESULT:      -5.3      1.697      2.925
REMARK  Name = 
REMARK  16 active torsions:
REMARK  status: ('A' for Active; 'I' for Inactive)
REMARK    1  A    between atoms: C_2  and  C_3
REMARK    2  A    between atoms: C_5  and  C_6
REMARK    3  A    between atoms: C_6  and  C_8
REMARK    4  A    between atoms: C_8  and  N_9
REMARK    5  A    between atoms: N_9  and  C_10
REMARK    6  A    between atoms: C_10  and  C_11
REMARK    7  A    between atoms: C_11  and  C_12
REMARK    8  A    between atoms: C_12  and  C_13
REMARK    9  A    between atoms: C_13  and  C_14
REMARK   10  A    between atoms: C_14  and  C_15
REMARK   11  A    between atoms: C_15  and  O_16
REMARK   12  A    between atoms: O_16  and  C_17
REMARK   13  A    between atoms: C_17  and  C_18
REMARK   14  A    between atoms: C_18  and  C_19
REMARK   15  A    between atoms: C_19  and  C_20
REMARK   16  A    between atoms: C_20  and  C_21
REMARK                            x       y       z     vdW  Elec       q    Type
REMARK                         _______ _______ _______ _____ _____    ______ ____
ROOT
ATOM      1  C   UNL     1      -8.457   9.007  68.749  0.00  0.00    +0.019 C 
ENDROOT
BRANCH   1   2
ATOM      2  C   UNL     1      -8.896   8.862  67.298  0.00  0.00    +0.089 C 
BRANCH   2   3
ATOM      3  N   UNL     1      -7.937   9.626  66.515  0.00  0.00    -0.215 NA
BRANCH   3   4
ATOM      4  C   UNL     1      -8.572  10.707  65.796  0.00  0.00    +0.126 C 
BRANCH   4   5
ATOM      5  C   UNL     1      -9.936   9.978  65.121  0.00  0.00    +0.192 C 
ATOM      6  O   UNL     1      -9.272   9.942  63.717  0.00  0.00    -0.217 OA
BRANCH   5  12
ATOM      7  C   UNL     1     -12.025  13.104  65.697  0.00  0.00    +0.049 A 
ATOM      8  C   UNL     1     -12.292  13.529  64.401  0.00  0.00    +0.194 A 
ATOM      9  O   UNL     1     -12.555  14.873  64.106  0.00  0.00    -0.287 OA
ATOM     10  C   UNL     1     -12.045  12.610  63.386  0.00  0.00    +0.042 A 
ATOM     11  C   UNL     1     -11.316  11.448  63.610  0.00  0.00    +0.001 A 
ATOM     12  C   UNL     1     -10.599  11.462  64.805  0.00  0.00    +0.009 A 
ATOM     13  C   UNL     1     -11.332  11.918  65.899  0.00  0.00    -0.000 A 
BRANCH   7  15
ATOM     14  O   UNL     1     -10.848  14.249  67.317  0.00  0.00    -0.215 OA
ATOM     15  C   UNL     1     -12.129  14.156  66.757  0.00  0.00    +0.212 C 
ENDBRANCH   7  15
ENDBRANCH   5  12
ENDBRANCH   4   5
ENDBRANCH   3   4
ENDBRANCH   2   3
ENDBRANCH   1   2
BRANCH   1  16
ATOM     16  C   UNL     1      -9.580   9.497  69.625  0.00  0.00    +0.002 C 
BRANCH  16  17
ATOM     17  C   UNL     1     -10.867   9.699  68.845  0.00  0.00    +0.003 C 
BRANCH  17  18
ATOM     18  C   UNL     1     -11.525  10.937  69.440  0.00  0.00    +0.032 C 
BRANCH  18  19
ATOM     19  C   UNL     1     -11.916  10.544  70.859  0.00  0.00    +0.142 C 
BRANCH  19  20
ATOM     20  O   UNL     1     -13.240  10.103  70.776  0.00  0.00    -0.354 OA
BRANCH  20  21
ATOM     21  C   UNL     1     -13.477   9.220  71.817  0.00  0.00    +0.142 C 
BRANCH  21  22
ATOM     22  C   UNL     1     -12.192   8.540  72.196  0.00  0.00    +0.032 C 
BRANCH  22  23
ATOM     23  C   UNL     1     -12.239   7.076  71.806  0.00  0.00    +0.007 C 
BRANCH  23  24
ATOM     24  C   UNL     1     -10.808   6.592  71.627  0.00  0.00    +0.026 C 
BRANCH  24  25
ATOM     25  C   UNL     1     -10.738   5.787  70.394  0.00  0.00    -0.022 A 
ATOM     26  C   UNL     1      -9.711   4.891  70.206  0.00  0.00    -0.004 A 
ATOM     27  C   UNL     1      -9.406   4.420  68.941  0.00  0.00    -0.000 A 
ATOM     28  C   UNL     1      -9.905   5.084  67.840  0.00  0.00    -0.000 A 
ATOM     29  C   UNL     1     -10.922   6.013  67.984  0.00  0.00    -0.000 A 
ATOM     30  C   UNL     1     -11.403   6.235  69.262  0.00  0.00    -0.004 A 
ENDBRANCH  24  25
ENDBRANCH  23  24
ENDBRANCH  22  23
ENDBRANCH  21  22
ENDBRANCH  20  21
ENDBRANCH  19  20
ENDBRANCH  18  19
ENDBRANCH  17  18
ENDBRANCH  16  17
ENDBRANCH   1  16
TORSDOF 16
ENDMDL
MODEL 7
REMARK VINA RESULT:      -5.3      1.467      3.021
REMARK  Name = 
REMARK  16 active torsions:
REMARK  status: ('A' for Active; 'I' for Inactive)
REMARK    1  A    between atoms: C_2  and  C_3
REMARK    2  A    between atoms: C_5  and  C_6
REMARK    3  A    between atoms: C_6  and  C_8
REMARK    4  A    between atoms: C_8  and  N_9
REMARK    5  A    between atoms: N_9  and  C_10
REMARK    6  A    between atoms: C_10  and  C_11
REMARK    7  A    between atoms: C_11  and  C_12
REMARK    8  A    between atoms: C_12  and  C_13
REMARK    9  A    between atoms: C_13  and  C_14
REMARK   10  A    between atoms: C_14  and  C_15
REMARK   11  A    between atoms: C_15  and  O_16
REMARK   12  A    between atoms: O_16  and  C_17
REMARK   13  A    between atoms: C_17  and  C_18
REMARK   14  A    between atoms: C_18  and  C_19
REMARK   15  A    between atoms: C_19  and  C_20
REMARK   16  A    between atoms: C_20  and  C_21
REMARK                            x       y       z     vdW  Elec       q    Type
REMARK                         _______ _______ _______ _____ _____    ______ ____
ROOT
ATOM      1  C   UNL     1      -8.986  10.640  64.554  0.00  0.00    +0.019 C 
ENDROOT
BRANCH   1   2
ATOM      2  C   UNL     1      -9.673  10.425  63.211  0.00  0.00    +0.089 C 
BRANCH   2   3
ATOM      3  N   UNL     1     -10.574  11.555  63.042  0.00  0.00    -0.215 NA
BRANCH   3   4
ATOM      4  C   UNL     1     -10.662  12.357  64.240  0.00  0.00    +0.126 C 
BRANCH   4   5
ATOM      5  C   UNL     1     -12.320  12.411  64.552  0.00  0.00    +0.192 C 
ATOM      6  O   UNL     1     -12.546  13.419  63.391  0.00  0.00    -0.217 OA
BRANCH   5  12
ATOM      7  C   UNL     1     -10.694  15.469  66.123  0.00  0.00    +0.049 A 
ATOM      8  C   UNL     1     -11.092  15.371  67.452  0.00  0.00    +0.194 A 
ATOM      9  O   UNL     1     -11.194  16.500  68.275  0.00  0.00    -0.287 OA
ATOM     10  C   UNL     1     -11.617  14.147  67.851  0.00  0.00    +0.042 A 
ATOM     11  C   UNL     1     -11.988  13.172  66.930  0.00  0.00    +0.001 A 
ATOM     12  C   UNL     1     -12.099  13.651  65.627  0.00  0.00    +0.009 A 
ATOM     13  C   UNL     1     -11.039  14.464  65.230  0.00  0.00    -0.000 A 
BRANCH   7  15
ATOM     14  O   UNL     1     -11.178  17.155  64.625  0.00  0.00    -0.215 OA
ATOM     15  C   UNL     1     -10.296  16.838  65.667  0.00  0.00    +0.212 C 
ENDBRANCH   7  15
ENDBRANCH   5  12
ENDBRANCH   4   5
ENDBRANCH   3   4
ENDBRANCH   2   3
ENDBRANCH   1   2
BRANCH   1  16
ATOM     16  C   UNL     1      -8.658   9.333  65.227  0.00  0.00    +0.002 C 
BRANCH  16  17
ATOM     17  C   UNL     1      -8.734   9.434  66.740  0.00  0.00    +0.003 C 
BRANCH  17  18
ATOM     18  C   UNL     1      -9.916   8.569  67.158  0.00  0.00    +0.032 C 
BRANCH  18  19
ATOM     19  C   UNL     1      -9.668   7.209  66.515  0.00  0.00    +0.142 C 
BRANCH  19  20
ATOM     20  O   UNL     1      -9.807   6.275  67.547  0.00  0.00    -0.354 OA
BRANCH  20  21
ATOM     21  C   UNL     1     -10.918   6.614  68.302  0.00  0.00    +0.142 C 
BRANCH  21  22
ATOM     22  C   UNL     1     -10.915   5.821  69.578  0.00  0.00    +0.032 C 
BRANCH  22  23
ATOM     23  C   UNL     1     -11.753   6.519  70.631  0.00  0.00    +0.007 C 
BRANCH  23  24
ATOM     24  C   UNL     1     -10.813   7.302  71.535  0.00  0.00    +0.026 C 
BRANCH  24  25
ATOM     25  C   UNL     1     -11.218   8.719  71.516  0.00  0.00    -0.022 A 
ATOM     26  C   UNL     1     -12.436   9.100  72.030  0.00  0.00    -0.004 A 
ATOM     27  C   UNL     1     -12.997  10.319  71.688  0.00  0.00    -0.000 A 
ATOM     28  C   UNL     1     -12.505  11.001  70.596  0.00  0.00    -0.000 A 
ATOM     29  C   UNL     1     -11.295  10.636  70.030  0.00  0.00    -0.000 A 
ATOM     30  C   UNL     1     -10.618   9.576  70.605  0.00  0.00    -0.004 A 
ENDBRANCH  24  25
ENDBRANCH  23  24
ENDBRANCH  22  23
ENDBRANCH  21  22
ENDBRANCH  20  21
ENDBRANCH  19  20
ENDBRANCH  18  19
ENDBRANCH  17  18
ENDBRANCH  16  17
ENDBRANCH   1  16
TORSDOF 16
ENDMDL
MODEL 8
REMARK VINA RESULT:      -5.2      1.486      2.004
REMARK  Name = 
REMARK  16 active torsions:
REMARK  status: ('A' for Active; 'I' for Inactive)
REMARK    1  A    between atoms: C_2  and  C_3
REMARK    2  A    between atoms: C_5  and  C_6
REMARK    3  A    between atoms: C_6  and  C_8
REMARK    4  A    between atoms: C_8  and  N_9
REMARK    5  A    between atoms: N_9  and  C_10
REMARK    6  A    between atoms: C_10  and  C_11
REMARK    7  A    between atoms: C_11  and  C_12
REMARK    8  A    between atoms: C_12  and  C_13
REMARK    9  A    between atoms: C_13  and  C_14
REMARK   10  A    between atoms: C_14  and  C_15
REMARK   11  A    between atoms: C_15  and  O_16
REMARK   12  A    between atoms: O_16  and  C_17
REMARK   13  A    between atoms: C_17  and  C_18
REMARK   14  A    between atoms: C_18  and  C_19
REMARK   15  A    between atoms: C_19  and  C_20
REMARK   16  A    between atoms: C_20  and  C_21
REMARK                            x       y       z     vdW  Elec       q    Type
REMARK                         _______ _______ _______ _____ _____    ______ ____
ROOT
ATOM      1  C   UNL     1      -9.737  10.281  65.962  0.00  0.00    +0.019 C 
ENDROOT
BRANCH   1   2
ATOM      2  C   UNL     1      -9.322  10.587  64.529  0.00  0.00    +0.089 C 
BRANCH   2   3
ATOM      3  N   UNL     1     -10.549  10.926  63.825  0.00  0.00    -0.215 NA
BRANCH   3   4
ATOM      4  C   UNL     1     -10.811  12.346  63.855  0.00  0.00    +0.126 C 
BRANCH   4   5
ATOM      5  C   UNL     1     -12.467  12.431  64.172  0.00  0.00    +0.192 C 
ATOM      6  O   UNL     1     -12.657  13.537  63.097  0.00  0.00    -0.217 OA
BRANCH   5  12
ATOM      7  C   UNL     1     -10.806  15.366  65.929  0.00  0.00    +0.049 A 
ATOM      8  C   UNL     1     -11.126  15.137  67.263  0.00  0.00    +0.194 A 
ATOM      9  O   UNL     1     -11.199  16.183  68.192  0.00  0.00    -0.287 OA
ATOM     10  C   UNL     1     -11.606  13.870  67.575  0.00  0.00    +0.042 A 
ATOM     11  C   UNL     1     -12.012  12.977  66.589  0.00  0.00    +0.001 A 
ATOM     12  C   UNL     1     -12.206  13.570  65.344  0.00  0.00    +0.009 A 
ATOM     13  C   UNL     1     -11.183  14.440  64.967  0.00  0.00    -0.000 A 
BRANCH   7  15
ATOM     14  O   UNL     1     -11.178  17.065  64.414  0.00  0.00    -0.215 OA
ATOM     15  C   UNL     1     -10.457  16.780  65.581  0.00  0.00    +0.212 C 
ENDBRANCH   7  15
ENDBRANCH   5  12
ENDBRANCH   4   5
ENDBRANCH   3   4
ENDBRANCH   2   3
ENDBRANCH   1   2
BRANCH   1  16
ATOM     16  C   UNL     1      -9.872   8.800  66.200  0.00  0.00    +0.002 C 
BRANCH  16  17
ATOM     17  C   UNL     1     -10.463   8.492  67.564  0.00  0.00    +0.003 C 
BRANCH  17  18
ATOM     18  C   UNL     1     -10.833   9.838  68.173  0.00  0.00    +0.032 C 
BRANCH  18  19
ATOM     19  C   UNL     1     -10.249   9.818  69.581  0.00  0.00    +0.142 C 
BRANCH  19  20
ATOM     20  O   UNL     1     -11.081  10.645  70.344  0.00  0.00    -0.354 OA
BRANCH  20  21
ATOM     21  C   UNL     1     -12.201   9.920  70.718  0.00  0.00    +0.142 C 
BRANCH  21  22
ATOM     22  C   UNL     1     -11.832   8.966  71.818  0.00  0.00    +0.032 C 
BRANCH  22  23
ATOM     23  C   UNL     1     -12.564   7.651  71.638  0.00  0.00    +0.007 C 
BRANCH  23  24
ATOM     24  C   UNL     1     -11.788   6.816  70.630  0.00  0.00    +0.026 C 
BRANCH  24  25
ATOM     25  C   UNL     1     -10.951   5.852  71.367  0.00  0.00    -0.022 A 
ATOM     26  C   UNL     1     -10.195   4.926  70.687  0.00  0.00    -0.004 A 
ATOM     27  C   UNL     1      -9.719   3.794  71.328  0.00  0.00    -0.000 A 
ATOM     28  C   UNL     1     -10.265   3.430  72.540  0.00  0.00    -0.000 A 
ATOM     29  C   UNL     1     -11.054   4.322  73.248  0.00  0.00    -0.000 A 
ATOM     30  C   UNL     1     -11.260   5.570  72.690  0.00  0.00    -0.004 A 
ENDBRANCH  24  25
ENDBRANCH  23  24
ENDBRANCH  22  23
ENDBRANCH  21  22
ENDBRANCH  20  21
ENDBRANCH  19  20
ENDBRANCH  18  19
ENDBRANCH  17  18
ENDBRANCH  16  17
ENDBRANCH   1  16
TORSDOF 16
ENDMDL
MODEL 9
REMARK VINA RESULT:      -5.2      2.869      5.778
REMARK  Name = 
REMARK  16 active torsions:
REMARK  status: ('A' for Active; 'I' for Inactive)
REMARK    1  A    between atoms: C_2  and  C_3
REMARK    2  A    between atoms: C_5  and  C_6
REMARK    3  A    between atoms: C_6  and  C_8
REMARK    4  A    between atoms: C_8  and  N_9
REMARK    5  A    between atoms: N_9  and  C_10
REMARK    6  A    between atoms: C_10  and  C_11
REMARK    7  A    between atoms: C_11  and  C_12
REMARK    8  A    between atoms: C_12  and  C_13
REMARK    9  A    between atoms: C_13  and  C_14
REMARK   10  A    between atoms: C_14  and  C_15
REMARK   11  A    between atoms: C_15  and  O_16
REMARK   12  A    between atoms: O_16  and  C_17
REMARK   13  A    between atoms: C_17  and  C_18
REMARK   14  A    between atoms: C_18  and  C_19
REMARK   15  A    between atoms: C_19  and  C_20
REMARK   16  A    between atoms: C_20  and  C_21
REMARK                            x       y       z     vdW  Elec       q    Type
REMARK                         _______ _______ _______ _____ _____    ______ ____
ROOT
ATOM      1  C   UNL     1     -10.956  13.895  65.836  0.00  0.00    +0.019 C 
ENDROOT
BRANCH   1   2
ATOM      2  C   UNL     1     -10.942  15.382  65.508  0.00  0.00    +0.089 C 
BRANCH   2   3
ATOM      3  N   UNL     1     -10.548  16.056  66.736  0.00  0.00    -0.215 NA
BRANCH   3   4
ATOM      4  C   UNL     1     -10.966  15.322  67.908  0.00  0.00    +0.126 C 
BRANCH   4   5
ATOM      5  C   UNL     1     -10.738  16.429  69.162  0.00  0.00    +0.192 C 
ATOM      6  O   UNL     1      -9.604  15.562  69.776  0.00  0.00    -0.217 OA
BRANCH   5  12
ATOM      7  C   UNL     1     -12.546  15.281  72.305  0.00  0.00    +0.049 A 
ATOM      8  C   UNL     1     -13.145  14.096  71.890  0.00  0.00    +0.194 A 
ATOM      9  O   UNL     1     -14.308  13.607  72.500  0.00  0.00    -0.287 OA
ATOM     10  C   UNL     1     -12.685  13.556  70.694  0.00  0.00    +0.042 A 
ATOM     11  C   UNL     1     -11.883  14.284  69.821  0.00  0.00    +0.001 A 
ATOM     12  C   UNL     1     -11.873  15.653  70.083  0.00  0.00    +0.009 A 
ATOM     13  C   UNL     1     -11.715  15.969  71.431  0.00  0.00    -0.000 A 
BRANCH   7  15
ATOM     14  O   UNL     1     -12.438  15.479  74.600  0.00  0.00    -0.215 OA
ATOM     15  C   UNL     1     -13.169  15.938  73.497  0.00  0.00    +0.212 C 
ENDBRANCH   7  15
ENDBRANCH   5  12
ENDBRANCH   4   5
ENDBRANCH   3   4
ENDBRANCH   2   3
ENDBRANCH   1   2
BRANCH   1  16
ATOM     16  C   UNL     1     -12.228  13.234  65.374  0.00  0.00    +0.002 C 
BRANCH  16  17
ATOM     17  C   UNL     1     -12.084  12.617  63.994  0.00  0.00    +0.003 C 
BRANCH  17  18
ATOM     18  C   UNL     1     -10.595  12.353  63.809  0.00  0.00    +0.032 C 
BRANCH  18  19
ATOM     19  C   UNL     1     -10.485  10.867  63.491  0.00  0.00    +0.142 C 
BRANCH  19  20
ATOM     20  O   UNL     1      -9.152  10.526  63.742  0.00  0.00    -0.354 OA
BRANCH  20  21
ATOM     21  C   UNL     1      -9.100   9.771  64.901  0.00  0.00    +0.142 C 
BRANCH  21  22
ATOM     22  C   UNL     1      -8.165  10.423  65.880  0.00  0.00    +0.032 C 
BRANCH  22  23
ATOM     23  C   UNL     1      -8.785  10.444  67.263  0.00  0.00    +0.007 C 
BRANCH  23  24
ATOM     24  C   UNL     1     -10.297  10.485  67.098  0.00  0.00    +0.026 C 
BRANCH  24  25
ATOM     25  C   UNL     1     -10.912   9.823  68.263  0.00  0.00    -0.022 A 
ATOM     26  C   UNL     1     -11.448  10.572  69.285  0.00  0.00    -0.004 A 
ATOM     27  C   UNL     1     -11.674  10.010  70.530  0.00  0.00    -0.000 A 
ATOM     28  C   UNL     1     -11.070   8.811  70.844  0.00  0.00    -0.000 A 
ATOM     29  C   UNL     1     -10.495   8.036  69.851  0.00  0.00    -0.000 A 
ATOM     30  C   UNL     1     -10.558   8.514  68.555  0.00  0.00    -0.004 A 
ENDBRANCH  24  25
ENDBRANCH  23  24
ENDBRANCH  22  23
ENDBRANCH  21  22
ENDBRANCH  20  21
ENDBRANCH  19  20
ENDBRANCH  18  19
ENDBRANCH  17  18
ENDBRANCH  16  17
ENDBRANCH   1  16
TORSDOF 16
ENDMDL
