MODEL 1
REMARK VINA RESULT:      -6.2      0.000      0.000
REMARK  Name = 
REMARK  2 active torsions:
REMARK  status: ('A' for Active; 'I' for Inactive)
REMARK    1  A    between atoms: N_4  and  C_5
REMARK    2  A    between atoms: C_5  and  C_7
REMARK                            x       y       z     vdW  Elec       q    Type
REMARK                         _______ _______ _______ _____ _____    ______ ____
ROOT
ATOM      1  C   UNL     1     -10.198  16.513  66.164  0.00  0.00    +0.189 A 
ATOM      2  C   UNL     1     -10.734  16.535  67.443  0.00  0.00    +0.195 A 
ATOM      3  N   UNL     1     -11.431  15.354  67.853  0.00  0.00    -0.105 NA
ATOM      4  N   UNL     1     -10.615  17.611  68.259  0.00  0.00    -0.206 NA
ATOM      5  C   UNL     1      -9.875  18.664  67.838  0.00  0.00    +0.200 A 
ATOM      6  N   UNL     1     -10.169  20.007  68.205  0.00  0.00    -0.105 NA
ATOM      7  C   UNL     1      -9.016  18.434  66.773  0.00  0.00    +0.173 A 
ATOM      8 CL   UNL     1      -7.624  19.502  66.623  0.00  0.00    -0.058 Cl
ATOM      9  N   UNL     1      -9.236  17.428  65.892  0.00  0.00    -0.222 NA
ENDROOT
BRANCH   1  10
ATOM     10  C   UNL     1     -10.945  15.887  65.066  0.00  0.00    +0.363 C 
ATOM     11  O   UNL     1     -11.383  16.681  64.180  0.00  0.00    -0.247 OA
BRANCH  10  14
ATOM     12  N   UNL     1     -12.995  14.005  65.089  0.00  0.00    +0.134 NA
ATOM     13  C   UNL     1     -11.739  13.730  64.460  0.00  0.00    +0.532 C 
ATOM     14  N   UNL     1     -10.759  14.534  64.680  0.00  0.00    +0.013 NA
ATOM     15  N   UNL     1     -11.684  12.638  63.558  0.00  0.00    +0.134 NA
ENDBRANCH  10  14
ENDBRANCH   1  10
TORSDOF 2
ENDMDL
MODEL 2
REMARK VINA RESULT:      -5.8      2.856      5.699
REMARK  Name = 
REMARK  2 active torsions:
REMARK  status: ('A' for Active; 'I' for Inactive)
REMARK    1  A    between atoms: N_4  and  C_5
REMARK    2  A    between atoms: C_5  and  C_7
REMARK                            x       y       z     vdW  Elec       q    Type
REMARK                         _______ _______ _______ _____ _____    ______ ____
ROOT
ATOM      1  C   UNL     1     -10.655  15.055  65.740  0.00  0.00    +0.189 A 
ATOM      2  C   UNL     1     -11.465  15.407  64.671  0.00  0.00    +0.195 A 
ATOM      3  N   UNL     1     -11.458  16.792  64.306  0.00  0.00    -0.105 NA
ATOM      4  N   UNL     1     -12.227  14.501  64.009  0.00  0.00    -0.206 NA
ATOM      5  C   UNL     1     -12.126  13.196  64.354  0.00  0.00    +0.200 A 
ATOM      6  N   UNL     1     -13.219  12.290  64.271  0.00  0.00    -0.105 NA
ATOM      7  C   UNL     1     -11.014  12.835  65.104  0.00  0.00    +0.173 A 
ATOM      8 CL   UNL     1     -10.502  11.153  65.016  0.00  0.00    -0.058 Cl
ATOM      9  N   UNL     1     -10.351  13.740  65.864  0.00  0.00    -0.222 NA
ENDROOT
BRANCH   1  10
ATOM     10  C   UNL     1     -10.546  15.945  66.902  0.00  0.00    +0.363 C 
ATOM     11  O   UNL     1     -11.195  15.584  67.930  0.00  0.00    -0.247 OA
BRANCH  10  14
ATOM     12  N   UNL     1     -10.813  18.664  67.428  0.00  0.00    +0.134 NA
ATOM     13  C   UNL     1      -9.558  17.995  67.587  0.00  0.00    +0.532 C 
ATOM     14  N   UNL     1      -9.438  16.806  67.112  0.00  0.00    +0.013 NA
ATOM     15  N   UNL     1      -8.557  18.654  68.344  0.00  0.00    +0.134 NA
ENDBRANCH  10  14
ENDBRANCH   1  10
TORSDOF 2
ENDMDL
MODEL 3
REMARK VINA RESULT:      -5.8      3.197      5.507
REMARK  Name = 
REMARK  2 active torsions:
REMARK  status: ('A' for Active; 'I' for Inactive)
REMARK    1  A    between atoms: N_4  and  C_5
REMARK    2  A    between atoms: C_5  and  C_7
REMARK                            x       y       z     vdW  Elec       q    Type
REMARK                         _______ _______ _______ _____ _____    ______ ____
ROOT
ATOM      1  C   UNL     1     -10.340  14.865  65.248  0.00  0.00    +0.189 A 
ATOM      2  C   UNL     1     -11.399  15.314  64.473  0.00  0.00    +0.195 A 
ATOM      3  N   UNL     1     -11.444  16.724  64.227  0.00  0.00    -0.105 NA
ATOM      4  N   UNL     1     -12.342  14.475  63.979  0.00  0.00    -0.206 NA
ATOM      5  C   UNL     1     -12.195  13.144  64.182  0.00  0.00    +0.200 A 
ATOM      6  N   UNL     1     -13.300  12.262  64.333  0.00  0.00    -0.105 NA
ATOM      7  C   UNL     1     -10.934  12.710  64.568  0.00  0.00    +0.173 A 
ATOM      8 CL   UNL     1     -10.523  11.035  64.214  0.00  0.00    -0.058 Cl
ATOM      9  N   UNL     1     -10.059  13.541  65.183  0.00  0.00    -0.222 NA
ENDROOT
BRANCH   1  10
ATOM     10  C   UNL     1      -9.888  15.654  66.401  0.00  0.00    +0.363 C 
ATOM     11  O   UNL     1      -8.771  16.236  66.261  0.00  0.00    -0.247 OA
BRANCH  10  14
ATOM     12  N   UNL     1     -10.604  14.332  68.743  0.00  0.00    +0.134 NA
ATOM     13  C   UNL     1     -10.927  15.711  68.538  0.00  0.00    +0.532 C 
ATOM     14  N   UNL     1     -10.782  16.202  67.357  0.00  0.00    +0.013 NA
ATOM     15  N   UNL     1     -11.298  16.472  69.675  0.00  0.00    +0.134 NA
ENDBRANCH  10  14
ENDBRANCH   1  10
TORSDOF 2
ENDMDL
MODEL 4
REMARK VINA RESULT:      -5.7      3.949      4.931
REMARK  Name = 
REMARK  2 active torsions:
REMARK  status: ('A' for Active; 'I' for Inactive)
REMARK    1  A    between atoms: N_4  and  C_5
REMARK    2  A    between atoms: C_5  and  C_7
REMARK                            x       y       z     vdW  Elec       q    Type
REMARK                         _______ _______ _______ _____ _____    ______ ____
ROOT
ATOM      1  C   UNL     1     -12.167  12.814  65.208  0.00  0.00    +0.189 A 
ATOM      2  C   UNL     1     -12.063  14.196  65.273  0.00  0.00    +0.195 A 
ATOM      3  N   UNL     1     -12.543  14.917  64.133  0.00  0.00    -0.105 NA
ATOM      4  N   UNL     1     -11.532  14.833  66.346  0.00  0.00    -0.206 NA
ATOM      5  C   UNL     1     -11.171  14.096  67.422  0.00  0.00    +0.200 A 
ATOM      6  N   UNL     1     -10.083  14.449  68.267  0.00  0.00    -0.105 NA
ATOM      7  C   UNL     1     -11.683  12.807  67.494  0.00  0.00    +0.173 A 
ATOM      8 CL   UNL     1     -11.796  12.079  69.093  0.00  0.00    -0.058 Cl
ATOM      9  N   UNL     1     -12.082  12.143  66.383  0.00  0.00    -0.222 NA
ENDROOT
BRANCH   1  10
ATOM     10  C   UNL     1     -11.899  12.116  63.944  0.00  0.00    +0.363 C 
ATOM     11  O   UNL     1     -12.913  11.889  63.219  0.00  0.00    -0.247 OA
BRANCH  10  14
ATOM     12  N   UNL     1      -9.937  10.173  64.286  0.00  0.00    +0.134 NA
ATOM     13  C   UNL     1      -9.835  11.161  63.256  0.00  0.00    +0.532 C 
ATOM     14  N   UNL     1     -10.640  12.163  63.291  0.00  0.00    +0.013 NA
ATOM     15  N   UNL     1      -8.912  10.919  62.208  0.00  0.00    +0.134 NA
ENDBRANCH  10  14
ENDBRANCH   1  10
TORSDOF 2
ENDMDL
MODEL 5
REMARK VINA RESULT:      -5.5      2.948      5.394
REMARK  Name = 
REMARK  2 active torsions:
REMARK  status: ('A' for Active; 'I' for Inactive)
REMARK    1  A    between atoms: N_4  and  C_5
REMARK    2  A    between atoms: C_5  and  C_7
REMARK                            x       y       z     vdW  Elec       q    Type
REMARK                         _______ _______ _______ _____ _____    ______ ____
ROOT
ATOM      1  C   UNL     1     -11.183  15.178  66.068  0.00  0.00    +0.189 A 
ATOM      2  C   UNL     1     -11.577  14.576  67.254  0.00  0.00    +0.195 A 
ATOM      3  N   UNL     1     -11.713  15.444  68.384  0.00  0.00    -0.105 NA
ATOM      4  N   UNL     1     -11.815  13.244  67.346  0.00  0.00    -0.206 NA
ATOM      5  C   UNL     1     -11.745  12.495  66.221  0.00  0.00    +0.200 A 
ATOM      6  N   UNL     1     -11.324  11.137  66.225  0.00  0.00    -0.105 NA
ATOM      7  C   UNL     1     -11.782  13.180  65.014  0.00  0.00    +0.173 A 
ATOM      8 CL   UNL     1     -12.342  12.287  63.604  0.00  0.00    -0.058 Cl
ATOM      9  N   UNL     1     -11.409  14.480  64.928  0.00  0.00    -0.222 NA
ENDROOT
BRANCH   1  10
ATOM     10  C   UNL     1     -10.174  16.244  66.086  0.00  0.00    +0.363 C 
ATOM     11  O   UNL     1      -8.967  15.856  66.098  0.00  0.00    -0.247 OA
BRANCH  10  14
ATOM     12  N   UNL     1     -10.728  18.419  67.732  0.00  0.00    +0.134 NA
ATOM     13  C   UNL     1     -10.441  18.592  66.341  0.00  0.00    +0.532 C 
ATOM     14  N   UNL     1     -10.423  17.549  65.588  0.00  0.00    +0.013 NA
ATOM     15  N   UNL     1     -10.100  19.896  65.901  0.00  0.00    +0.134 NA
ENDBRANCH  10  14
ENDBRANCH   1  10
TORSDOF 2
ENDMDL
MODEL 6
REMARK VINA RESULT:      -5.4      4.160      4.935
REMARK  Name = 
REMARK  2 active torsions:
REMARK  status: ('A' for Active; 'I' for Inactive)
REMARK    1  A    between atoms: N_4  and  C_5
REMARK    2  A    between atoms: C_5  and  C_7
REMARK                            x       y       z     vdW  Elec       q    Type
REMARK                         _______ _______ _______ _____ _____    ______ ____
ROOT
ATOM      1  C   UNL     1     -11.706  14.612  68.967  0.00  0.00    +0.189 A 
ATOM      2  C   UNL     1     -11.624  15.929  69.394  0.00  0.00    +0.195 A 
ATOM      3  N   UNL     1     -11.347  16.902  68.380  0.00  0.00    -0.105 NA
ATOM      4  N   UNL     1     -11.788  16.282  70.693  0.00  0.00    -0.206 NA
ATOM      5  C   UNL     1     -12.126  15.322  71.586  0.00  0.00    +0.200 A 
ATOM      6  N   UNL     1     -11.708  15.354  72.945  0.00  0.00    -0.105 NA
ATOM      7  C   UNL     1     -12.618  14.133  71.065  0.00  0.00    +0.173 A 
ATOM      8 CL   UNL     1     -13.644  13.163  72.116  0.00  0.00    -0.058 Cl
ATOM      9  N   UNL     1     -12.325  13.741  69.801  0.00  0.00    -0.222 NA
ENDROOT
BRANCH   1  10
ATOM     10  C   UNL     1     -10.780  14.113  67.943  0.00  0.00    +0.363 C 
ATOM     11  O   UNL     1      -9.826  13.398  68.370  0.00  0.00    -0.247 OA
BRANCH  10  14
ATOM     12  N   UNL     1     -11.948  11.780  66.975  0.00  0.00    +0.134 NA
ATOM     13  C   UNL     1     -11.904  12.973  66.186  0.00  0.00    +0.532 C 
ATOM     14  N   UNL     1     -11.155  13.940  66.585  0.00  0.00    +0.013 NA
ATOM     15  N   UNL     1     -12.765  13.046  65.062  0.00  0.00    +0.134 NA
ENDBRANCH  10  14
ENDBRANCH   1  10
TORSDOF 2
ENDMDL
MODEL 7
REMARK VINA RESULT:      -5.4      2.658      5.348
REMARK  Name = 
REMARK  2 active torsions:
REMARK  status: ('A' for Active; 'I' for Inactive)
REMARK    1  A    between atoms: N_4  and  C_5
REMARK    2  A    between atoms: C_5  and  C_7
REMARK                            x       y       z     vdW  Elec       q    Type
REMARK                         _______ _______ _______ _____ _____    ______ ____
ROOT
ATOM      1  C   UNL     1     -10.741  14.670  65.206  0.00  0.00    +0.189 A 
ATOM      2  C   UNL     1     -11.909  14.000  64.873  0.00  0.00    +0.195 A 
ATOM      3  N   UNL     1     -12.732  14.625  63.882  0.00  0.00    -0.105 NA
ATOM      4  N   UNL     1     -12.260  12.825  65.452  0.00  0.00    -0.206 NA
ATOM      5  C   UNL     1     -11.398  12.250  66.322  0.00  0.00    +0.200 A 
ATOM      6  N   UNL     1     -11.830  11.471  67.431  0.00  0.00    -0.105 NA
ATOM      7  C   UNL     1     -10.089  12.710  66.297  0.00  0.00    +0.173 A 
ATOM      8 CL   UNL     1      -8.844  11.612  66.885  0.00  0.00    -0.058 Cl
ATOM      9  N   UNL     1      -9.783  13.946  65.834  0.00  0.00    -0.222 NA
ENDROOT
BRANCH   1  10
ATOM     10  C   UNL     1     -10.741  16.135  65.313  0.00  0.00    +0.363 C 
ATOM     11  O   UNL     1     -11.146  16.759  64.287  0.00  0.00    -0.247 OA
BRANCH  10  14
ATOM     12  N   UNL     1      -8.990  18.164  66.060  0.00  0.00    +0.134 NA
ATOM     13  C   UNL     1     -10.185  17.902  66.803  0.00  0.00    +0.532 C 
ATOM     14  N   UNL     1     -10.829  16.816  66.555  0.00  0.00    +0.013 NA
ATOM     15  N   UNL     1     -10.631  18.905  67.699  0.00  0.00    +0.134 NA
ENDBRANCH  10  14
ENDBRANCH   1  10
TORSDOF 2
ENDMDL
MODEL 8
REMARK VINA RESULT:      -5.3      1.945      2.113
REMARK  Name = 
REMARK  2 active torsions:
REMARK  status: ('A' for Active; 'I' for Inactive)
REMARK    1  A    between atoms: N_4  and  C_5
REMARK    2  A    between atoms: C_5  and  C_7
REMARK                            x       y       z     vdW  Elec       q    Type
REMARK                         _______ _______ _______ _____ _____    ______ ____
ROOT
ATOM      1  C   UNL     1     -10.151  15.732  67.598  0.00  0.00    +0.189 A 
ATOM      2  C   UNL     1     -10.951  16.680  68.217  0.00  0.00    +0.195 A 
ATOM      3  N   UNL     1     -11.820  16.195  69.247  0.00  0.00    -0.105 NA
ATOM      4  N   UNL     1     -10.923  17.990  67.868  0.00  0.00    -0.206 NA
ATOM      5  C   UNL     1     -10.022  18.394  66.942  0.00  0.00    +0.200 A 
ATOM      6  N   UNL     1     -10.274  19.464  66.039  0.00  0.00    -0.105 NA
ATOM      7  C   UNL     1      -8.972  17.526  66.676  0.00  0.00    +0.173 A 
ATOM      8 CL   UNL     1      -7.496  18.232  66.026  0.00  0.00    -0.058 Cl
ATOM      9  N   UNL     1      -9.079  16.196  66.911  0.00  0.00    -0.222 NA
ENDROOT
BRANCH   1  10
ATOM     10  C   UNL     1     -10.689  14.398  67.301  0.00  0.00    +0.363 C 
ATOM     11  O   UNL     1     -10.354  13.481  68.109  0.00  0.00    -0.247 OA
BRANCH  10  14
ATOM     12  N   UNL     1     -10.706  13.614  64.632  0.00  0.00    +0.134 NA
ATOM     13  C   UNL     1     -11.903  13.610  65.416  0.00  0.00    +0.532 C 
ATOM     14  N   UNL     1     -11.883  14.197  66.560  0.00  0.00    +0.013 NA
ATOM     15  N   UNL     1     -13.008  12.875  64.918  0.00  0.00    +0.134 NA
ENDBRANCH  10  14
ENDBRANCH   1  10
TORSDOF 2
ENDMDL
MODEL 9
REMARK VINA RESULT:      -5.2      3.445      5.256
REMARK  Name = 
REMARK  2 active torsions:
REMARK  status: ('A' for Active; 'I' for Inactive)
REMARK    1  A    between atoms: N_4  and  C_5
REMARK    2  A    between atoms: C_5  and  C_7
REMARK                            x       y       z     vdW  Elec       q    Type
REMARK                         _______ _______ _______ _____ _____    ______ ____
ROOT
ATOM      1  C   UNL     1     -11.119  14.988  67.660  0.00  0.00    +0.189 A 
ATOM      2  C   UNL     1     -10.228  15.922  67.152  0.00  0.00    +0.195 A 
ATOM      3  N   UNL     1      -9.302  16.483  68.090  0.00  0.00    -0.105 NA
ATOM      4  N   UNL     1     -10.232  16.293  65.848  0.00  0.00    -0.206 NA
ATOM      5  C   UNL     1     -11.080  15.666  65.000  0.00  0.00    +0.200 A 
ATOM      6  N   UNL     1     -11.662  16.313  63.875  0.00  0.00    -0.105 NA
ATOM      7  C   UNL     1     -11.626  14.467  65.439  0.00  0.00    +0.173 A 
ATOM      8 CL   UNL     1     -12.168  13.334  64.205  0.00  0.00    -0.058 Cl
ATOM      9  N   UNL     1     -11.732  14.182  66.760  0.00  0.00    -0.222 NA
ENDROOT
BRANCH   1  10
ATOM     10  C   UNL     1     -11.711  15.186  68.989  0.00  0.00    +0.363 C 
ATOM     11  O   UNL     1     -12.258  16.312  69.183  0.00  0.00    -0.247 OA
BRANCH  10  14
ATOM     12  N   UNL     1     -11.467  15.182  71.761  0.00  0.00    +0.134 NA
ATOM     13  C   UNL     1     -12.260  14.203  71.082  0.00  0.00    +0.532 C 
ATOM     14  N   UNL     1     -12.150  14.110  69.804  0.00  0.00    +0.013 NA
ATOM     15  N   UNL     1     -13.188  13.461  71.856  0.00  0.00    +0.134 NA
ENDBRANCH  10  14
ENDBRANCH   1  10
TORSDOF 2
ENDMDL
