MODEL 1
REMARK VINA RESULT:      -6.5      0.000      0.000
REMARK  Name = 
REMARK  3 active torsions:
REMARK  status: ('A' for Active; 'I' for Inactive)
REMARK    1  A    between atoms: O_2  and  C_3
REMARK    2  A    between atoms: N_12  and  C1*_13
REMARK    3  A    between atoms: C4*_15  and  C5*_16
REMARK                            x       y       z     vdW  Elec       q    Type
REMARK                         _______ _______ _______ _____ _____    ______ ____
ROOT
ATOM      1  C   UNL     1     -10.425  17.368  67.102  0.00  0.00    +0.249 A 
ATOM      2  C   UNL     1     -10.546  16.248  66.321  0.00  0.00    +0.170 A 
ATOM      3  N   UNL     1     -10.839  16.158  65.020  0.00  0.00    -0.217 NA
ATOM      4  C   UNL     1     -10.784  14.891  64.740  0.00  0.00    +0.182 A 
ATOM      5  N   UNL     1     -10.893  14.078  65.835  0.00  0.00    -0.269 N 
ATOM      6  C   UNL     1     -10.726  14.971  66.854  0.00  0.00    +0.172 A 
ATOM      7  N   UNL     1     -10.904  14.935  68.178  0.00  0.00    -0.192 NA
ATOM      8  C   UNL     1     -11.259  16.080  68.829  0.00  0.00    +0.261 A 
ATOM      9  N   UNL     1     -12.222  16.068  69.897  0.00  0.00    -0.086 NA
ATOM     10  N   UNL     1     -10.861  17.298  68.366  0.00  0.00    -0.175 NA
ENDROOT
BRANCH   5  11
ATOM     11  C1* UNL     1      -9.772  12.933  65.911  0.00  0.00    +0.241 C 
ATOM     12  C2* UNL     1     -10.709  11.733  66.680  0.00  0.00    +0.234 C 
ATOM     13  O2* UNL     1     -12.097  12.214  66.423  0.00  0.00    -0.216 OA
ATOM     14  C3* UNL     1     -10.555  10.555  65.486  0.00  0.00    +0.216 C 
ATOM     15  O3* UNL     1      -9.059  10.747  65.434  0.00  0.00    -0.218 OA
ATOM     16  C4* UNL     1     -10.764  11.515  64.091  0.00  0.00    +0.183 C 
ATOM     17  O4* UNL     1      -9.919  12.608  64.508  0.00  0.00    -0.331 OA
BRANCH  16  18
ATOM     18  C5* UNL     1     -12.200  12.210  64.460  0.00  0.00    +0.214 C 
ATOM     19  O5* UNL     1     -13.057  12.224  63.474  0.00  0.00    -0.218 OA
ENDBRANCH  16  18
ENDBRANCH   5  11
BRANCH   1  21
ATOM     20  C   UNL     1      -9.414  18.912  66.618  0.00  0.00    +0.254 C 
ATOM     21  O   UNL     1      -9.657  18.409  66.584  0.00  0.00    -0.455 OA
ENDBRANCH   1  21
TORSDOF 3
ENDMDL
MODEL 2
REMARK VINA RESULT:      -6.5      1.914      3.582
REMARK  Name = 
REMARK  3 active torsions:
REMARK  status: ('A' for Active; 'I' for Inactive)
REMARK    1  A    between atoms: O_2  and  C_3
REMARK    2  A    between atoms: N_12  and  C1*_13
REMARK    3  A    between atoms: C4*_15  and  C5*_16
REMARK                            x       y       z     vdW  Elec       q    Type
REMARK                         _______ _______ _______ _____ _____    ______ ____
ROOT
ATOM      1  C   UNL     1     -11.883  15.556  69.999  0.00  0.00    +0.249 A 
ATOM      2  C   UNL     1     -11.786  14.562  69.061  0.00  0.00    +0.170 A 
ATOM      3  N   UNL     1     -11.714  13.239  69.242  0.00  0.00    -0.217 NA
ATOM      4  C   UNL     1     -11.687  12.728  68.048  0.00  0.00    +0.182 A 
ATOM      5  N   UNL     1     -11.309  13.614  67.076  0.00  0.00    -0.269 N 
ATOM      6  C   UNL     1     -11.389  14.801  67.745  0.00  0.00    +0.172 A 
ATOM      7  N   UNL     1     -10.982  16.051  67.500  0.00  0.00    -0.192 NA
ATOM      8  C   UNL     1     -10.639  16.852  68.549  0.00  0.00    +0.261 A 
ATOM      9  N   UNL     1      -9.510  17.741  68.476  0.00  0.00    -0.086 NA
ATOM     10  N   UNL     1     -11.232  16.702  69.766  0.00  0.00    -0.175 NA
ENDROOT
BRANCH   5  11
ATOM     11  C1* UNL     1     -12.279  13.633  65.798  0.00  0.00    +0.241 C 
ATOM     12  C2* UNL     1     -11.118  14.065  64.625  0.00  0.00    +0.234 C 
ATOM     13  O2* UNL     1      -9.840  13.725  65.316  0.00  0.00    -0.216 OA
ATOM     14  C3* UNL     1     -11.314  12.716  63.635  0.00  0.00    +0.216 C 
ATOM     15  O3* UNL     1     -12.813  12.883  63.638  0.00  0.00    -0.218 OA
ATOM     16  C4* UNL     1     -11.410  11.490  64.817  0.00  0.00    +0.183 C 
ATOM     17  O4* UNL     1     -12.299  12.187  65.714  0.00  0.00    -0.331 OA
BRANCH  16  18
ATOM     18  C5* UNL     1     -10.018  11.792  65.627  0.00  0.00    +0.214 C 
ATOM     19  O5* UNL     1      -9.443  10.727  66.118  0.00  0.00    -0.218 OA
ENDBRANCH  16  18
ENDBRANCH   5  11
BRANCH   1  21
ATOM     20  C   UNL     1     -13.186  15.562  71.394  0.00  0.00    +0.254 C 
ATOM     21  O   UNL     1     -12.831  15.373  71.005  0.00  0.00    -0.455 OA
ENDBRANCH   1  21
TORSDOF 3
ENDMDL
MODEL 3
REMARK VINA RESULT:      -6.3      1.975      3.195
REMARK  Name = 
REMARK  3 active torsions:
REMARK  status: ('A' for Active; 'I' for Inactive)
REMARK    1  A    between atoms: O_2  and  C_3
REMARK    2  A    between atoms: N_12  and  C1*_13
REMARK    3  A    between atoms: C4*_15  and  C5*_16
REMARK                            x       y       z     vdW  Elec       q    Type
REMARK                         _______ _______ _______ _____ _____    ______ ____
ROOT
ATOM      1  C   UNL     1      -9.203  17.687  68.029  0.00  0.00    +0.249 A 
ATOM      2  C   UNL     1     -10.028  16.660  67.651  0.00  0.00    +0.170 A 
ATOM      3  N   UNL     1     -11.029  16.092  68.331  0.00  0.00    -0.217 NA
ATOM      4  C   UNL     1     -11.532  15.203  67.528  0.00  0.00    +0.182 A 
ATOM      5  N   UNL     1     -10.687  14.830  66.518  0.00  0.00    -0.269 N 
ATOM      6  C   UNL     1      -9.721  15.791  66.604  0.00  0.00    +0.172 A 
ATOM      7  N   UNL     1      -8.502  15.951  66.080  0.00  0.00    -0.192 NA
ATOM      8  C   UNL     1      -7.562  16.635  66.793  0.00  0.00    +0.261 A 
ATOM      9  N   UNL     1      -6.189  16.206  66.828  0.00  0.00    -0.086 NA
ATOM     10  N   UNL     1      -7.921  17.631  67.649  0.00  0.00    -0.175 NA
ENDROOT
BRANCH   5  11
ATOM     11  C1* UNL     1     -11.362  14.849  65.063  0.00  0.00    +0.241 C 
ATOM     12  C2* UNL     1     -10.455  13.585  64.364  0.00  0.00    +0.234 C 
ATOM     13  O2* UNL     1      -9.921  12.886  65.569  0.00  0.00    -0.216 OA
ATOM     14  C3* UNL     1     -11.758  12.591  63.972  0.00  0.00    +0.216 C 
ATOM     15  O3* UNL     1     -12.492  13.741  63.329  0.00  0.00    -0.218 OA
ATOM     16  C4* UNL     1     -12.687  12.742  65.394  0.00  0.00    +0.183 C 
ATOM     17  O4* UNL     1     -12.551  14.171  65.536  0.00  0.00    -0.331 OA
BRANCH  16  18
ATOM     18  C5* UNL     1     -11.556  12.313  66.498  0.00  0.00    +0.214 C 
ATOM     19  O5* UNL     1     -12.019  11.604  67.492  0.00  0.00    -0.218 OA
ENDBRANCH  16  18
ENDBRANCH   5  11
BRANCH   1  21
ATOM     20  C   UNL     1      -9.855  19.359  68.681  0.00  0.00    +0.254 C 
ATOM     21  O   UNL     1      -9.819  18.808  68.583  0.00  0.00    -0.455 OA
ENDBRANCH   1  21
TORSDOF 3
ENDMDL
MODEL 4
REMARK VINA RESULT:      -6.0      1.920      5.662
REMARK  Name = 
REMARK  3 active torsions:
REMARK  status: ('A' for Active; 'I' for Inactive)
REMARK    1  A    between atoms: O_2  and  C_3
REMARK    2  A    between atoms: N_12  and  C1*_13
REMARK    3  A    between atoms: C4*_15  and  C5*_16
REMARK                            x       y       z     vdW  Elec       q    Type
REMARK                         _______ _______ _______ _____ _____    ______ ____
ROOT
ATOM      1  C   UNL     1     -11.973  12.880  65.802  0.00  0.00    +0.249 A 
ATOM      2  C   UNL     1     -11.282  14.063  65.830  0.00  0.00    +0.170 A 
ATOM      3  N   UNL     1     -10.520  14.614  64.879  0.00  0.00    -0.217 NA
ATOM      4  C   UNL     1     -10.130  15.754  65.366  0.00  0.00    +0.182 A 
ATOM      5  N   UNL     1     -10.219  15.831  66.729  0.00  0.00    -0.269 N 
ATOM      6  C   UNL     1     -10.978  14.733  67.015  0.00  0.00    +0.172 A 
ATOM      7  N   UNL     1     -11.295  14.071  68.132  0.00  0.00    -0.192 NA
ATOM      8  C   UNL     1     -11.521  12.728  68.062  0.00  0.00    +0.261 A 
ATOM      9  N   UNL     1     -11.050  11.833  69.085  0.00  0.00    -0.086 NA
ATOM     10  N   UNL     1     -12.029  12.163  66.931  0.00  0.00    -0.175 NA
ENDROOT
BRANCH   5  11
ATOM     11  C1* UNL     1     -10.943  17.161  67.261  0.00  0.00    +0.241 C 
ATOM     12  C2* UNL     1      -9.947  17.448  68.615  0.00  0.00    +0.234 C 
ATOM     13  O2* UNL     1      -8.739  16.637  68.288  0.00  0.00    -0.216 OA
ATOM     14  C3* UNL     1      -9.428  18.987  68.166  0.00  0.00    +0.216 C 
ATOM     15  O3* UNL     1     -10.843  19.423  67.880  0.00  0.00    -0.218 OA
ATOM     16  C4* UNL     1      -9.132  18.729  66.506  0.00  0.00    +0.183 C 
ATOM     17  O4* UNL     1     -10.334  17.979  66.233  0.00  0.00    -0.331 OA
BRANCH  16  18
ATOM     18  C5* UNL     1      -8.110  17.453  66.613  0.00  0.00    +0.214 C 
ATOM     19  O5* UNL     1      -7.176  17.437  65.701  0.00  0.00    -0.218 OA
ENDBRANCH  16  18
ENDBRANCH   5  11
BRANCH   1  21
ATOM     20  C   UNL     1     -12.900  12.322  64.230  0.00  0.00    +0.254 C 
ATOM     21  O   UNL     1     -12.744  12.635  64.668  0.00  0.00    -0.455 OA
ENDBRANCH   1  21
TORSDOF 3
ENDMDL
MODEL 5
REMARK VINA RESULT:      -6.0      2.321      5.898
REMARK  Name = 
REMARK  3 active torsions:
REMARK  status: ('A' for Active; 'I' for Inactive)
REMARK    1  A    between atoms: O_2  and  C_3
REMARK    2  A    between atoms: N_12  and  C1*_13
REMARK    3  A    between atoms: C4*_15  and  C5*_16
REMARK                            x       y       z     vdW  Elec       q    Type
REMARK                         _______ _______ _______ _____ _____    ______ ____
ROOT
ATOM      1  C   UNL     1     -11.762  12.346  67.280  0.00  0.00    +0.249 A 
ATOM      2  C   UNL     1     -11.328  13.607  67.595  0.00  0.00    +0.170 A 
ATOM      3  N   UNL     1     -11.821  14.467  68.492  0.00  0.00    -0.217 NA
ATOM      4  C   UNL     1     -11.033  15.499  68.452  0.00  0.00    +0.182 A 
ATOM      5  N   UNL     1     -10.295  15.585  67.303  0.00  0.00    -0.269 N 
ATOM      6  C   UNL     1     -10.487  14.346  66.763  0.00  0.00    +0.172 A 
ATOM      7  N   UNL     1     -10.241  13.788  65.573  0.00  0.00    -0.192 NA
ATOM      8  C   UNL     1     -11.066  12.799  65.125  0.00  0.00    +0.261 A 
ATOM      9  N   UNL     1     -11.465  12.722  63.746  0.00  0.00    -0.086 NA
ATOM     10  N   UNL     1     -11.695  11.965  65.999  0.00  0.00    -0.175 NA
ENDROOT
BRANCH   5  11
ATOM     11  C1* UNL     1      -8.731  15.846  67.552  0.00  0.00    +0.241 C 
ATOM     12  C2* UNL     1      -8.416  16.757  66.144  0.00  0.00    +0.234 C 
ATOM     13  O2* UNL     1      -9.786  17.192  65.745  0.00  0.00    -0.216 OA
ATOM     14  C3* UNL     1      -7.856  18.144  66.919  0.00  0.00    +0.216 C 
ATOM     15  O3* UNL     1      -6.928  17.332  67.788  0.00  0.00    -0.218 OA
ATOM     16  C4* UNL     1      -8.996  18.263  68.181  0.00  0.00    +0.183 C 
ATOM     17  O4* UNL     1      -8.995  16.867  68.545  0.00  0.00    -0.331 OA
BRANCH  16  18
ATOM     18  C5* UNL     1     -10.375  18.246  67.296  0.00  0.00    +0.214 C 
ATOM     19  O5* UNL     1     -11.128  19.301  67.459  0.00  0.00    -0.218 OA
ENDBRANCH  16  18
ENDBRANCH   5  11
BRANCH   1  21
ATOM     20  C   UNL     1     -11.943  11.023  68.644  0.00  0.00    +0.254 C 
ATOM     21  O   UNL     1     -12.026  11.492  68.350  0.00  0.00    -0.455 OA
ENDBRANCH   1  21
TORSDOF 3
ENDMDL
MODEL 6
REMARK VINA RESULT:      -5.9      2.823      5.808
REMARK  Name = 
REMARK  3 active torsions:
REMARK  status: ('A' for Active; 'I' for Inactive)
REMARK    1  A    between atoms: O_2  and  C_3
REMARK    2  A    between atoms: N_12  and  C1*_13
REMARK    3  A    between atoms: C4*_15  and  C5*_16
REMARK                            x       y       z     vdW  Elec       q    Type
REMARK                         _______ _______ _______ _____ _____    ______ ____
ROOT
ATOM      1  C   UNL     1     -11.888  12.917  68.960  0.00  0.00    +0.249 A 
ATOM      2  C   UNL     1     -11.367  14.178  68.835  0.00  0.00    +0.170 A 
ATOM      3  N   UNL     1     -11.688  15.291  69.503  0.00  0.00    -0.217 NA
ATOM      4  C   UNL     1     -10.881  16.207  69.058  0.00  0.00    +0.182 A 
ATOM      5  N   UNL     1     -10.324  15.910  67.844  0.00  0.00    -0.269 N 
ATOM      6  C   UNL     1     -10.639  14.587  67.717  0.00  0.00    +0.172 A 
ATOM      7  N   UNL     1     -10.598  13.700  66.718  0.00  0.00    -0.192 NA
ATOM      8  C   UNL     1     -11.515  12.691  66.693  0.00  0.00    +0.261 A 
ATOM      9  N   UNL     1     -12.122  12.260  65.462  0.00  0.00    -0.086 NA
ATOM     10  N   UNL     1     -12.030  12.187  67.848  0.00  0.00    -0.175 NA
ENDROOT
BRANCH   5  11
ATOM     11  C1* UNL     1      -8.733  16.109  67.790  0.00  0.00    +0.241 C 
ATOM     12  C2* UNL     1      -8.605  16.545  66.146  0.00  0.00    +0.234 C 
ATOM     13  O2* UNL     1     -10.004  16.950  65.824  0.00  0.00    -0.216 OA
ATOM     14  C3* UNL     1      -7.886  18.050  66.388  0.00  0.00    +0.216 C 
ATOM     15  O3* UNL     1      -6.866  17.455  67.327  0.00  0.00    -0.218 OA
ATOM     16  C4* UNL     1      -8.817  18.618  67.699  0.00  0.00    +0.183 C 
ATOM     17  O4* UNL     1      -8.808  17.391  68.459  0.00  0.00    -0.331 OA
BRANCH  16  18
ATOM     18  C5* UNL     1     -10.313  18.452  67.054  0.00  0.00    +0.214 C 
ATOM     19  O5* UNL     1     -11.140  19.414  67.364  0.00  0.00    -0.218 OA
ENDBRANCH  16  18
ENDBRANCH   5  11
BRANCH   1  21
ATOM     20  C   UNL     1     -12.283  12.135  70.656  0.00  0.00    +0.254 C 
ATOM     21  O   UNL     1     -12.014  12.422  70.257  0.00  0.00    -0.455 OA
ENDBRANCH   1  21
TORSDOF 3
ENDMDL
MODEL 7
REMARK VINA RESULT:      -5.9      2.655      6.001
REMARK  Name = 
REMARK  3 active torsions:
REMARK  status: ('A' for Active; 'I' for Inactive)
REMARK    1  A    between atoms: O_2  and  C_3
REMARK    2  A    between atoms: N_12  and  C1*_13
REMARK    3  A    between atoms: C4*_15  and  C5*_16
REMARK                            x       y       z     vdW  Elec       q    Type
REMARK                         _______ _______ _______ _____ _____    ______ ____
ROOT
ATOM      1  C   UNL     1     -11.491  13.681  68.769  0.00  0.00    +0.249 A 
ATOM      2  C   UNL     1     -10.659  14.638  68.249  0.00  0.00    +0.170 A 
ATOM      3  N   UNL     1      -9.394  14.517  67.833  0.00  0.00    -0.217 NA
ATOM      4  C   UNL     1      -9.065  15.690  67.381  0.00  0.00    +0.182 A 
ATOM      5  N   UNL     1      -9.860  16.703  67.844  0.00  0.00    -0.269 N 
ATOM      6  C   UNL     1     -10.896  16.005  68.395  0.00  0.00    +0.172 A 
ATOM      7  N   UNL     1     -11.923  16.315  69.192  0.00  0.00    -0.192 NA
ATOM      8  C   UNL     1     -12.399  15.371  70.054  0.00  0.00    +0.261 A 
ATOM      9  N   UNL     1     -12.802  15.712  71.392  0.00  0.00    -0.086 NA
ATOM     10  N   UNL     1     -12.329  14.046  69.746  0.00  0.00    -0.175 NA
ENDROOT
BRANCH   5  11
ATOM     11  C1* UNL     1     -10.401  17.684  66.695  0.00  0.00    +0.241 C 
ATOM     12  C2* UNL     1     -10.503  19.108  67.627  0.00  0.00    +0.234 C 
ATOM     13  O2* UNL     1      -9.623  18.782  68.786  0.00  0.00    -0.216 OA
ATOM     14  C3* UNL     1      -9.461  20.043  66.690  0.00  0.00    +0.216 C 
ATOM     15  O3* UNL     1     -10.180  19.646  65.424  0.00  0.00    -0.218 OA
ATOM     16  C4* UNL     1      -8.227  18.904  66.390  0.00  0.00    +0.183 C 
ATOM     17  O4* UNL     1      -9.092  17.791  66.084  0.00  0.00    -0.331 OA
BRANCH  16  18
ATOM     18  C5* UNL     1      -7.879  18.478  67.933  0.00  0.00    +0.214 C 
ATOM     19  O5* UNL     1      -6.620  18.196  68.139  0.00  0.00    -0.218 OA
ENDBRANCH  16  18
ENDBRANCH   5  11
BRANCH   1  21
ATOM     20  C   UNL     1     -11.710  11.934  68.031  0.00  0.00    +0.254 C 
ATOM     21  O   UNL     1     -11.550  12.469  68.084  0.00  0.00    -0.455 OA
ENDBRANCH   1  21
TORSDOF 3
ENDMDL
MODEL 8
REMARK VINA RESULT:      -5.9      3.521      4.731
REMARK  Name = 
REMARK  3 active torsions:
REMARK  status: ('A' for Active; 'I' for Inactive)
REMARK    1  A    between atoms: O_2  and  C_3
REMARK    2  A    between atoms: N_12  and  C1*_13
REMARK    3  A    between atoms: C4*_15  and  C5*_16
REMARK                            x       y       z     vdW  Elec       q    Type
REMARK                         _______ _______ _______ _____ _____    ______ ____
ROOT
ATOM      1  C   UNL     1     -12.933  13.870  72.174  0.00  0.00    +0.249 A 
ATOM      2  C   UNL     1     -12.552  14.106  70.879  0.00  0.00    +0.170 A 
ATOM      3  N   UNL     1     -12.845  15.146  70.092  0.00  0.00    -0.217 NA
ATOM      4  C   UNL     1     -12.209  14.930  68.980  0.00  0.00    +0.182 A 
ATOM      5  N   UNL     1     -11.849  13.622  68.796  0.00  0.00    -0.269 N 
ATOM      6  C   UNL     1     -12.067  13.103  70.039  0.00  0.00    +0.172 A 
ATOM      7  N   UNL     1     -12.125  11.868  70.548  0.00  0.00    -0.192 NA
ATOM      8  C   UNL     1     -12.943  11.630  71.613  0.00  0.00    +0.261 A 
ATOM      9  N   UNL     1     -13.716  10.421  71.710  0.00  0.00    -0.086 NA
ATOM     10  N   UNL     1     -13.205  12.607  72.525  0.00  0.00    -0.175 NA
ENDROOT
BRANCH   5  11
ATOM     11  C1* UNL     1     -10.314  13.422  68.372  0.00  0.00    +0.241 C 
ATOM     12  C2* UNL     1     -10.502  11.983  67.476  0.00  0.00    +0.234 C 
ATOM     13  O2* UNL     1     -11.966  11.983  67.193  0.00  0.00    -0.216 OA
ATOM     14  C3* UNL     1      -9.895  12.569  66.017  0.00  0.00    +0.216 C 
ATOM     15  O3* UNL     1      -8.683  13.143  66.707  0.00  0.00    -0.218 OA
ATOM     16  C4* UNL     1     -10.645  14.100  65.977  0.00  0.00    +0.183 C 
ATOM     17  O4* UNL     1     -10.396  14.449  67.354  0.00  0.00    -0.331 OA
BRANCH  16  18
ATOM     18  C5* UNL     1     -12.206  13.637  66.158  0.00  0.00    +0.214 C 
ATOM     19  O5* UNL     1     -13.003  14.062  65.214  0.00  0.00    -0.218 OA
ENDBRANCH  16  18
ENDBRANCH   5  11
BRANCH   1  21
ATOM     20  C   UNL     1     -12.716  15.140  73.582  0.00  0.00    +0.254 C 
ATOM     21  O   UNL     1     -12.790  14.929  73.068  0.00  0.00    -0.455 OA
ENDBRANCH   1  21
TORSDOF 3
ENDMDL
MODEL 9
REMARK VINA RESULT:      -5.7      2.402      6.085
REMARK  Name = 
REMARK  3 active torsions:
REMARK  status: ('A' for Active; 'I' for Inactive)
REMARK    1  A    between atoms: O_2  and  C_3
REMARK    2  A    between atoms: N_12  and  C1*_13
REMARK    3  A    between atoms: C4*_15  and  C5*_16
REMARK                            x       y       z     vdW  Elec       q    Type
REMARK                         _______ _______ _______ _____ _____    ______ ____
ROOT
ATOM      1  C   UNL     1     -11.908  13.588  67.280  0.00  0.00    +0.249 A 
ATOM      2  C   UNL     1     -11.240  14.716  67.676  0.00  0.00    +0.170 A 
ATOM      3  N   UNL     1     -11.371  15.417  68.807  0.00  0.00    -0.217 NA
ATOM      4  C   UNL     1     -10.485  16.364  68.732  0.00  0.00    +0.182 A 
ATOM      5  N   UNL     1     -10.052  16.616  67.459  0.00  0.00    -0.269 N 
ATOM      6  C   UNL     1     -10.541  15.533  66.787  0.00  0.00    +0.172 A 
ATOM      7  N   UNL     1     -10.680  15.207  65.498  0.00  0.00    -0.192 NA
ATOM      8  C   UNL     1     -11.718  14.404  65.128  0.00  0.00    +0.261 A 
ATOM      9  N   UNL     1     -12.456  14.642  63.916  0.00  0.00    -0.086 NA
ATOM     10  N   UNL     1     -12.216  13.468  65.983  0.00  0.00    -0.175 NA
ENDROOT
BRANCH   5  11
ATOM     11  C1* UNL     1      -8.456  16.685  67.313  0.00  0.00    +0.241 C 
ATOM     12  C2* UNL     1      -8.384  17.778  66.006  0.00  0.00    +0.234 C 
ATOM     13  O2* UNL     1      -9.739  18.399  66.047  0.00  0.00    -0.216 OA
ATOM     14  C3* UNL     1      -7.468  18.962  66.779  0.00  0.00    +0.216 C 
ATOM     15  O3* UNL     1      -6.470  17.936  67.255  0.00  0.00    -0.218 OA
ATOM     16  C4* UNL     1      -8.232  18.982  68.304  0.00  0.00    +0.183 C 
ATOM     17  O4* UNL     1      -8.326  17.551  68.467  0.00  0.00    -0.331 OA
BRANCH  16  18
ATOM     18  C5* UNL     1      -9.777  19.238  67.824  0.00  0.00    +0.214 C 
ATOM     19  O5* UNL     1     -10.460  20.023  68.615  0.00  0.00    -0.218 OA
ENDBRANCH  16  18
ENDBRANCH   5  11
BRANCH   1  21
ATOM     20  C   UNL     1     -11.816  12.108  68.482  0.00  0.00    +0.254 C 
ATOM     21  O   UNL     1     -12.011  12.562  68.218  0.00  0.00    -0.455 OA
ENDBRANCH   1  21
TORSDOF 3
ENDMDL
