MODEL 1
REMARK VINA RESULT:      -6.9      0.000      0.000
REMARK  Name = 
REMARK  4 active torsions:
REMARK  status: ('A' for Active; 'I' for Inactive)
REMARK    1  A    between atoms: O_2  and  C_3
REMARK    2  A    between atoms: C_4  and  N_5
REMARK    3  A    between atoms: C_18  and  C_19
REMARK    4  A    between atoms: N_23  and  C_24
REMARK                            x       y       z     vdW  Elec       q    Type
REMARK                         _______ _______ _______ _____ _____    ______ ____
ROOT
ATOM      1  C   UNL     1     -11.258  12.503  68.914  0.00  0.00    +0.170 A 
ATOM      2  C   UNL     1     -11.784  13.250  69.952  0.00  0.00    +0.099 A 
ATOM      3  C   UNL     1     -12.536  12.628  70.943  0.00  0.00    +0.060 A 
ATOM      4  C   UNL     1     -13.174  13.383  71.892  0.00  0.00    +0.205 A 
ATOM      5  C   UNL     1     -12.788  14.712  71.991  0.00  0.00    +0.136 A 
ATOM      6  C   UNL     1     -11.938  15.273  71.047  0.00  0.00    +0.086 A 
ATOM      7  O   UNL     1     -14.057  12.866  72.606  0.00  0.00    -0.286 OA
ATOM      8  C   UNL     1     -12.662  11.249  70.939  0.00  0.00    +0.036 A 
ATOM      9  C   UNL     1     -11.911  10.507  70.042  0.00  0.00    +0.157 A 
ATOM     10  F   UNL     1     -11.521   9.265  70.440  0.00  0.00    -0.203 F 
ATOM     11  N   UNL     1     -11.601  14.588  69.932  0.00  0.00    -0.325 N 
ATOM     12  C   UNL     1     -11.235  11.119  68.997  0.00  0.00    +0.112 A 
ENDROOT
BRANCH  12  13
ATOM     13  N   UNL     1     -10.373  10.415  68.118  0.00  0.00    -0.300 N 
ATOM     14  C   UNL     1      -8.935  10.647  68.298  0.00  0.00    +0.108 C 
ATOM     15  C   UNL     1      -8.621   9.415  69.340  0.00  0.00    +0.093 C 
ATOM     16  C   UNL     1      -7.048   9.857  69.505  0.00  0.00    +0.021 C 
ATOM     17  N   UNL     1      -8.272   8.407  68.183  0.00  0.00    -0.216 NA
ATOM     18  C   UNL     1      -9.310   8.494  67.223  0.00  0.00    +0.110 C 
ATOM     19  C   UNL     1     -10.606   9.033  67.703  0.00  0.00    +0.110 C 
ENDBRANCH  12  13
BRANCH   5  20
ATOM     20  C   UNL     1     -13.644  15.552  72.839  0.00  0.00    +0.392 C 
ATOM     21  O   UNL     1     -14.754  16.109  72.219  0.00  0.00    -0.240 OA
ATOM     22  O   UNL     1     -13.057  16.280  73.694  0.00  0.00    -0.240 OA
ENDBRANCH   5  20
BRANCH  11  23
ATOM     23  C   UNL     1     -10.749  15.153  68.897  0.00  0.00    +0.086 C 
ATOM     24  C   UNL     1     -10.124  16.458  69.228  0.00  0.00    +0.024 C 
ATOM     25  C   UNL     1     -11.281  16.499  68.324  0.00  0.00    +0.024 C 
ENDBRANCH  11  23
BRANCH   1  27
ATOM     26  C   UNL     1     -11.633  12.936  67.099  0.00  0.00    +0.253 C 
ATOM     27  O   UNL     1     -11.263  13.095  67.644  0.00  0.00    -0.469 OA
ENDBRANCH   1  27
TORSDOF 4
ENDMDL
MODEL 2
REMARK VINA RESULT:      -6.6      4.348      7.904
REMARK  Name = 
REMARK  4 active torsions:
REMARK  status: ('A' for Active; 'I' for Inactive)
REMARK    1  A    between atoms: O_2  and  C_3
REMARK    2  A    between atoms: C_4  and  N_5
REMARK    3  A    between atoms: C_18  and  C_19
REMARK    4  A    between atoms: N_23  and  C_24
REMARK                            x       y       z     vdW  Elec       q    Type
REMARK                         _______ _______ _______ _____ _____    ______ ____
ROOT
ATOM      1  C   UNL     1      -9.186  15.893  67.660  0.00  0.00    +0.170 A 
ATOM      2  C   UNL     1      -9.830  15.170  66.672  0.00  0.00    +0.099 A 
ATOM      3  C   UNL     1     -10.568  15.833  65.698  0.00  0.00    +0.060 A 
ATOM      4  C   UNL     1     -11.320  15.117  64.804  0.00  0.00    +0.205 A 
ATOM      5  C   UNL     1     -11.066  13.755  64.730  0.00  0.00    +0.136 A 
ATOM      6  C   UNL     1     -10.228  13.142  65.652  0.00  0.00    +0.086 A 
ATOM      7  O   UNL     1     -12.184  15.697  64.115  0.00  0.00    -0.286 OA
ATOM      8  C   UNL     1     -10.563  17.218  65.663  0.00  0.00    +0.036 A 
ATOM      9  C   UNL     1      -9.702  17.910  66.500  0.00  0.00    +0.157 A 
ATOM     10  F   UNL     1      -9.217  19.096  66.044  0.00  0.00    -0.203 F 
ATOM     11  N   UNL     1      -9.774  13.822  66.727  0.00  0.00    -0.325 N 
ATOM     12  C   UNL     1      -9.036  17.265  67.531  0.00  0.00    +0.112 A 
ENDROOT
BRANCH  12  13
ATOM     13  N   UNL     1      -8.071  17.907  68.347  0.00  0.00    -0.300 N 
ATOM     14  C   UNL     1      -6.670  17.546  68.097  0.00  0.00    +0.108 C 
ATOM     15  C   UNL     1      -6.307  18.724  67.010  0.00  0.00    +0.093 C 
ATOM     16  C   UNL     1      -4.790  18.143  66.774  0.00  0.00    +0.021 C 
ATOM     17  N   UNL     1      -5.809  19.720  68.123  0.00  0.00    -0.216 NA
ATOM     18  C   UNL     1      -6.797  19.744  69.137  0.00  0.00    +0.110 C 
ATOM     19  C   UNL     1      -8.159  19.312  68.740  0.00  0.00    +0.110 C 
ENDBRANCH  12  13
BRANCH   5  20
ATOM     20  C   UNL     1     -12.038  12.978  63.950  0.00  0.00    +0.392 C 
ATOM     21  O   UNL     1     -13.187  12.589  64.625  0.00  0.00    -0.240 OA
ATOM     22  O   UNL     1     -11.565  12.141  63.124  0.00  0.00    -0.240 OA
ENDBRANCH   5  20
BRANCH  11  23
ATOM     23  C   UNL     1      -8.929  13.207  67.740  0.00  0.00    +0.086 C 
ATOM     24  C   UNL     1      -8.443  11.841  67.420  0.00  0.00    +0.024 C 
ATOM     25  C   UNL     1      -9.555  11.931  68.375  0.00  0.00    +0.024 C 
ENDBRANCH  11  23
BRANCH   1  27
ATOM     26  C   UNL     1      -9.521  15.540  69.501  0.00  0.00    +0.253 C 
ATOM     27  O   UNL     1      -9.185  15.339  68.948  0.00  0.00    -0.469 OA
ENDBRANCH   1  27
TORSDOF 4
ENDMDL
MODEL 3
REMARK VINA RESULT:      -6.5      3.094      6.533
REMARK  Name = 
REMARK  4 active torsions:
REMARK  status: ('A' for Active; 'I' for Inactive)
REMARK    1  A    between atoms: O_2  and  C_3
REMARK    2  A    between atoms: C_4  and  N_5
REMARK    3  A    between atoms: C_18  and  C_19
REMARK    4  A    between atoms: N_23  and  C_24
REMARK                            x       y       z     vdW  Elec       q    Type
REMARK                         _______ _______ _______ _____ _____    ______ ____
ROOT
ATOM      1  C   UNL     1     -11.155  14.377  68.903  0.00  0.00    +0.170 A 
ATOM      2  C   UNL     1     -11.090  13.515  67.825  0.00  0.00    +0.099 A 
ATOM      3  C   UNL     1     -11.283  12.150  68.015  0.00  0.00    +0.060 A 
ATOM      4  C   UNL     1     -11.080  11.279  66.978  0.00  0.00    +0.205 A 
ATOM      5  C   UNL     1     -10.986  11.836  65.710  0.00  0.00    +0.136 A 
ATOM      6  C   UNL     1     -10.914  13.213  65.547  0.00  0.00    +0.086 A 
ATOM      7  O   UNL     1     -10.984  10.056  67.203  0.00  0.00    -0.286 OA
ATOM      8  C   UNL     1     -11.645  11.681  69.268  0.00  0.00    +0.036 A 
ATOM      9  C   UNL     1     -11.958  12.592  70.263  0.00  0.00    +0.157 A 
ATOM     10  F   UNL     1     -12.890  12.212  71.179  0.00  0.00    -0.203 F 
ATOM     11  N   UNL     1     -10.771  14.026  66.616  0.00  0.00    -0.325 N 
ATOM     12  C   UNL     1     -11.681  13.942  70.111  0.00  0.00    +0.112 A 
ENDROOT
BRANCH  12  13
ATOM     13  N   UNL     1     -12.074  14.923  71.055  0.00  0.00    -0.300 N 
ATOM     14  C   UNL     1     -13.395  15.529  70.847  0.00  0.00    +0.108 C 
ATOM     15  C   UNL     1     -14.281  14.503  71.776  0.00  0.00    +0.093 C 
ATOM     16  C   UNL     1     -15.692  15.240  71.375  0.00  0.00    +0.021 C 
ATOM     17  N   UNL     1     -14.121  15.392  73.066  0.00  0.00    -0.216 NA
ATOM     18  C   UNL     1     -12.748  15.713  73.188  0.00  0.00    +0.110 C 
ATOM     19  C   UNL     1     -11.798  14.814  72.487  0.00  0.00    +0.110 C 
ENDBRANCH  12  13
BRANCH   5  20
ATOM     20  C   UNL     1     -10.533  10.919  64.655  0.00  0.00    +0.392 C 
ATOM     21  O   UNL     1      -9.185  10.587  64.677  0.00  0.00    -0.240 OA
ATOM     22  O   UNL     1     -11.054  11.070  63.510  0.00  0.00    -0.240 OA
ENDBRANCH   5  20
BRANCH  11  23
ATOM     23  C   UNL     1     -10.648  15.470  66.488  0.00  0.00    +0.086 C 
ATOM     24  C   UNL     1     -10.667  15.990  65.098  0.00  0.00    +0.024 C 
ATOM     25  C   UNL     1      -9.353  15.917  65.749  0.00  0.00    +0.024 C 
ENDBRANCH  11  23
BRANCH   1  27
ATOM     26  C   UNL     1      -9.737  15.565  69.353  0.00  0.00    +0.253 C 
ATOM     27  O   UNL     1     -10.241  15.440  68.918  0.00  0.00    -0.469 OA
ENDBRANCH   1  27
TORSDOF 4
ENDMDL
MODEL 4
REMARK VINA RESULT:      -6.5      2.604      5.585
REMARK  Name = 
REMARK  4 active torsions:
REMARK  status: ('A' for Active; 'I' for Inactive)
REMARK    1  A    between atoms: O_2  and  C_3
REMARK    2  A    between atoms: C_4  and  N_5
REMARK    3  A    between atoms: C_18  and  C_19
REMARK    4  A    between atoms: N_23  and  C_24
REMARK                            x       y       z     vdW  Elec       q    Type
REMARK                         _______ _______ _______ _____ _____    ______ ____
ROOT
ATOM      1  C   UNL     1     -10.370  11.934  68.581  0.00  0.00    +0.170 A 
ATOM      2  C   UNL     1     -11.163  11.222  69.462  0.00  0.00    +0.099 A 
ATOM      3  C   UNL     1     -12.045  11.896  70.301  0.00  0.00    +0.060 A 
ATOM      4  C   UNL     1     -12.728  11.208  71.269  0.00  0.00    +0.205 A 
ATOM      5  C   UNL     1     -12.730   9.825  71.163  0.00  0.00    +0.136 A 
ATOM      6  C   UNL     1     -11.923   9.186  70.231  0.00  0.00    +0.086 A 
ATOM      7  O   UNL     1     -13.301  11.831  72.186  0.00  0.00    -0.286 OA
ATOM      8  C   UNL     1     -12.197  13.267  70.170  0.00  0.00    +0.036 A 
ATOM      9  C   UNL     1     -11.587  13.914  69.108  0.00  0.00    +0.157 A 
ATOM     10  F   UNL     1     -12.219  15.008  68.605  0.00  0.00    -0.203 F 
ATOM     11  N   UNL     1     -11.006   9.882  69.525  0.00  0.00    -0.325 N 
ATOM     12  C   UNL     1     -10.638  13.270  68.328  0.00  0.00    +0.112 A 
ENDROOT
BRANCH  12  13
ATOM     13  N   UNL     1     -10.063  13.856  67.172  0.00  0.00    -0.300 N 
ATOM     14  C   UNL     1     -10.518  13.323  65.882  0.00  0.00    +0.108 C 
ATOM     15  C   UNL     1     -11.753  14.373  65.609  0.00  0.00    +0.093 C 
ATOM     16  C   UNL     1     -12.195  13.610  64.225  0.00  0.00    +0.021 C 
ATOM     17  N   UNL     1     -10.837  15.384  64.823  0.00  0.00    -0.216 NA
ATOM     18  C   UNL     1      -9.673  15.590  65.603  0.00  0.00    +0.110 C 
ATOM     19  C   UNL     1      -9.788  15.287  67.050  0.00  0.00    +0.110 C 
ENDBRANCH  12  13
BRANCH   5  20
ATOM     20  C   UNL     1     -13.259   9.108  72.332  0.00  0.00    +0.392 C 
ATOM     21  O   UNL     1     -12.400   8.188  72.919  0.00  0.00    -0.240 OA
ATOM     22  O   UNL     1     -14.483   8.785  72.294  0.00  0.00    -0.240 OA
ENDBRANCH   5  20
BRANCH  11  23
ATOM     23  C   UNL     1     -10.110   9.248  68.570  0.00  0.00    +0.086 C 
ATOM     24  C   UNL     1     -10.343   7.799  68.344  0.00  0.00    +0.024 C 
ATOM     25  C   UNL     1      -9.207   8.150  69.205  0.00  0.00    +0.024 C 
ENDBRANCH  11  23
BRANCH   1  27
ATOM     26  C   UNL     1      -8.472  11.780  68.527  0.00  0.00    +0.253 C 
ATOM     27  O   UNL     1      -9.060  11.470  68.396  0.00  0.00    -0.469 OA
ENDBRANCH   1  27
TORSDOF 4
ENDMDL
MODEL 5
REMARK VINA RESULT:      -6.3      4.394      7.000
REMARK  Name = 
REMARK  4 active torsions:
REMARK  status: ('A' for Active; 'I' for Inactive)
REMARK    1  A    between atoms: O_2  and  C_3
REMARK    2  A    between atoms: C_4  and  N_5
REMARK    3  A    between atoms: C_18  and  C_19
REMARK    4  A    between atoms: N_23  and  C_24
REMARK                            x       y       z     vdW  Elec       q    Type
REMARK                         _______ _______ _______ _____ _____    ______ ____
ROOT
ATOM      1  C   UNL     1      -9.595  16.125  67.748  0.00  0.00    +0.170 A 
ATOM      2  C   UNL     1      -8.591  16.878  67.166  0.00  0.00    +0.099 A 
ATOM      3  C   UNL     1      -7.334  16.319  66.964  0.00  0.00    +0.060 A 
ATOM      4  C   UNL     1      -6.301  17.101  66.518  0.00  0.00    +0.205 A 
ATOM      5  C   UNL     1      -6.642  18.344  66.004  0.00  0.00    +0.136 A 
ATOM      6  C   UNL     1      -7.939  18.824  66.118  0.00  0.00    +0.086 A 
ATOM      7  O   UNL     1      -5.128  16.683  66.594  0.00  0.00    -0.286 OA
ATOM      8  C   UNL     1      -7.129  14.979  67.250  0.00  0.00    +0.036 A 
ATOM      9  C   UNL     1      -8.216  14.188  67.584  0.00  0.00    +0.157 A 
ATOM     10  F   UNL     1      -8.162  12.878  67.221  0.00  0.00    -0.203 F 
ATOM     11  N   UNL     1      -8.852  18.169  66.868  0.00  0.00    -0.325 N 
ATOM     12  C   UNL     1      -9.448  14.752  67.876  0.00  0.00    +0.112 A 
ENDROOT
BRANCH  12  13
ATOM     13  N   UNL     1     -10.612  13.981  68.122  0.00  0.00    -0.300 N 
ATOM     14  C   UNL     1     -11.644  14.014  67.078  0.00  0.00    +0.108 C 
ATOM     15  C   UNL     1     -11.151  12.709  66.209  0.00  0.00    +0.093 C 
ATOM     16  C   UNL     1     -12.313  12.935  65.072  0.00  0.00    +0.021 C 
ATOM     17  N   UNL     1     -12.063  11.715  67.020  0.00  0.00    -0.216 NA
ATOM     18  C   UNL     1     -11.851  11.977  68.396  0.00  0.00    +0.110 C 
ATOM     19  C   UNL     1     -10.581  12.659  68.747  0.00  0.00    +0.110 C 
ENDBRANCH  12  13
BRANCH   5  20
ATOM     20  C   UNL     1      -5.513  19.251  65.758  0.00  0.00    +0.392 C 
ATOM     21  O   UNL     1      -5.258  20.186  66.753  0.00  0.00    -0.240 OA
ATOM     22  O   UNL     1      -5.350  19.645  64.565  0.00  0.00    -0.240 OA
ENDBRANCH   5  20
BRANCH  11  23
ATOM     23  C   UNL     1     -10.210  18.658  67.051  0.00  0.00    +0.086 C 
ATOM     24  C   UNL     1     -10.563  19.866  66.262  0.00  0.00    +0.024 C 
ATOM     25  C   UNL     1     -10.275  20.078  67.686  0.00  0.00    +0.024 C 
ENDBRANCH  11  23
BRANCH   1  27
ATOM     26  C   UNL     1     -10.540  16.685  69.303  0.00  0.00    +0.253 C 
ATOM     27  O   UNL     1     -10.446  16.791  68.641  0.00  0.00    -0.469 OA
ENDBRANCH   1  27
TORSDOF 4
ENDMDL
MODEL 6
REMARK VINA RESULT:      -6.0      4.579      7.514
REMARK  Name = 
REMARK  4 active torsions:
REMARK  status: ('A' for Active; 'I' for Inactive)
REMARK    1  A    between atoms: O_2  and  C_3
REMARK    2  A    between atoms: C_4  and  N_5
REMARK    3  A    between atoms: C_18  and  C_19
REMARK    4  A    between atoms: N_23  and  C_24
REMARK                            x       y       z     vdW  Elec       q    Type
REMARK                         _______ _______ _______ _____ _____    ______ ____
ROOT
ATOM      1  C   UNL     1      -9.133  17.346  68.286  0.00  0.00    +0.170 A 
ATOM      2  C   UNL     1      -9.797  16.249  67.768  0.00  0.00    +0.099 A 
ATOM      3  C   UNL     1      -9.439  15.747  66.521  0.00  0.00    +0.060 A 
ATOM      4  C   UNL     1     -10.185  14.753  65.945  0.00  0.00    +0.205 A 
ATOM      5  C   UNL     1     -11.082  14.091  66.771  0.00  0.00    +0.136 A 
ATOM      6  C   UNL     1     -11.330  14.552  68.057  0.00  0.00    +0.086 A 
ATOM      7  O   UNL     1     -10.040  14.490  64.734  0.00  0.00    -0.286 OA
ATOM      8  C   UNL     1      -8.348  16.283  65.857  0.00  0.00    +0.036 A 
ATOM      9  C   UNL     1      -7.545  17.201  66.514  0.00  0.00    +0.157 A 
ATOM     10  F   UNL     1      -6.224  17.211  66.189  0.00  0.00    -0.203 F 
ATOM     11  N   UNL     1     -10.830  15.737  68.471  0.00  0.00    -0.325 N 
ATOM     12  C   UNL     1      -7.944  17.773  67.712  0.00  0.00    +0.112 A 
ENDROOT
BRANCH  12  13
ATOM     13  N   UNL     1      -7.114  18.636  68.471  0.00  0.00    -0.300 N 
ATOM     14  C   UNL     1      -6.362  18.014  69.567  0.00  0.00    +0.108 C 
ATOM     15  C   UNL     1      -4.982  17.664  68.745  0.00  0.00    +0.093 C 
ATOM     16  C   UNL     1      -4.310  16.918  70.043  0.00  0.00    +0.021 C 
ATOM     17  N   UNL     1      -4.308  19.037  69.117  0.00  0.00    -0.216 NA
ATOM     18  C   UNL     1      -5.252  20.056  68.843  0.00  0.00    +0.110 C 
ATOM     19  C   UNL     1      -6.326  19.716  67.878  0.00  0.00    +0.110 C 
ENDBRANCH  12  13
BRANCH   5  20
ATOM     20  C   UNL     1     -12.031  13.205  66.084  0.00  0.00    +0.392 C 
ATOM     21  O   UNL     1     -13.162  13.815  65.559  0.00  0.00    -0.240 OA
ATOM     22  O   UNL     1     -12.200  12.054  66.588  0.00  0.00    -0.240 OA
ENDBRANCH   5  20
BRANCH  11  23
ATOM     23  C   UNL     1     -11.100  16.279  69.794  0.00  0.00    +0.086 C 
ATOM     24  C   UNL     1     -11.142  15.283  70.894  0.00  0.00    +0.024 C 
ATOM     25  C   UNL     1     -12.438  15.773  70.409  0.00  0.00    +0.024 C 
ENDBRANCH  11  23
BRANCH   1  27
ATOM     26  C   UNL     1      -9.984  18.943  68.878  0.00  0.00    +0.253 C 
ATOM     27  O   UNL     1      -9.907  18.279  68.989  0.00  0.00    -0.469 OA
ENDBRANCH   1  27
TORSDOF 4
ENDMDL
MODEL 7
REMARK VINA RESULT:      -6.0      3.663      5.058
REMARK  Name = 
REMARK  4 active torsions:
REMARK  status: ('A' for Active; 'I' for Inactive)
REMARK    1  A    between atoms: O_2  and  C_3
REMARK    2  A    between atoms: C_4  and  N_5
REMARK    3  A    between atoms: C_18  and  C_19
REMARK    4  A    between atoms: N_23  and  C_24
REMARK                            x       y       z     vdW  Elec       q    Type
REMARK                         _______ _______ _______ _____ _____    ______ ____
ROOT
ATOM      1  C   UNL     1      -9.262  12.037  67.766  0.00  0.00    +0.170 A 
ATOM      2  C   UNL     1      -9.945  12.900  66.928  0.00  0.00    +0.099 A 
ATOM      3  C   UNL     1     -10.449  12.437  65.718  0.00  0.00    +0.060 A 
ATOM      4  C   UNL     1     -11.001  13.318  64.825  0.00  0.00    +0.205 A 
ATOM      5  C   UNL     1     -11.300  14.584  65.307  0.00  0.00    +0.136 A 
ATOM      6  C   UNL     1     -10.881  14.976  66.571  0.00  0.00    +0.086 A 
ATOM      7  O   UNL     1     -11.203  12.963  63.646  0.00  0.00    -0.286 OA
ATOM      8  C   UNL     1     -10.357  11.089  65.411  0.00  0.00    +0.036 A 
ATOM      9  C   UNL     1      -9.904  10.208  66.380  0.00  0.00    +0.157 A 
ATOM     10  F   UNL     1     -10.412   8.946  66.353  0.00  0.00    -0.203 F 
ATOM     11  N   UNL     1     -10.042  14.198  67.290  0.00  0.00    -0.325 N 
ATOM     12  C   UNL     1      -9.316  10.669  67.547  0.00  0.00    +0.112 A 
ENDROOT
BRANCH  12  13
ATOM     13  N   UNL     1      -8.932   9.812  68.609  0.00  0.00    -0.300 N 
ATOM     14  C   UNL     1      -9.697   9.942  69.855  0.00  0.00    +0.108 C 
ATOM     15  C   UNL     1     -10.842   8.801  69.556  0.00  0.00    +0.093 C 
ATOM     16  C   UNL     1     -11.639   9.127  70.954  0.00  0.00    +0.021 C 
ATOM     17  N   UNL     1     -10.005   7.655  70.237  0.00  0.00    -0.216 NA
ATOM     18  C   UNL     1      -8.690   7.729  69.716  0.00  0.00    +0.110 C 
ATOM     19  C   UNL     1      -8.537   8.418  68.412  0.00  0.00    +0.110 C 
ENDBRANCH  12  13
BRANCH   5  20
ATOM     20  C   UNL     1     -11.662  15.575  64.284  0.00  0.00    +0.392 C 
ATOM     21  O   UNL     1     -11.064  16.822  64.407  0.00  0.00    -0.240 OA
ATOM     22  O   UNL     1     -12.866  15.569  63.889  0.00  0.00    -0.240 OA
ENDBRANCH   5  20
BRANCH  11  23
ATOM     23  C   UNL     1      -9.544  14.588  68.600  0.00  0.00    +0.086 C 
ATOM     24  C   UNL     1     -10.138  15.827  69.163  0.00  0.00    +0.024 C 
ATOM     25  C   UNL     1      -8.790  15.951  68.593  0.00  0.00    +0.024 C 
ENDBRANCH  11  23
BRANCH   1  27
ATOM     26  C   UNL     1      -7.493  12.449  68.337  0.00  0.00    +0.253 C 
ATOM     27  O   UNL     1      -8.153  12.562  68.443  0.00  0.00    -0.469 OA
ENDBRANCH   1  27
TORSDOF 4
ENDMDL
MODEL 8
REMARK VINA RESULT:      -5.9      4.026      6.081
REMARK  Name = 
REMARK  4 active torsions:
REMARK  status: ('A' for Active; 'I' for Inactive)
REMARK    1  A    between atoms: O_2  and  C_3
REMARK    2  A    between atoms: C_4  and  N_5
REMARK    3  A    between atoms: C_18  and  C_19
REMARK    4  A    between atoms: N_23  and  C_24
REMARK                            x       y       z     vdW  Elec       q    Type
REMARK                         _______ _______ _______ _____ _____    ______ ____
ROOT
ATOM      1  C   UNL     1      -9.937  16.036  68.347  0.00  0.00    +0.170 A 
ATOM      2  C   UNL     1      -8.895  16.937  68.465  0.00  0.00    +0.099 A 
ATOM      3  C   UNL     1      -7.659  16.510  68.940  0.00  0.00    +0.060 A 
ATOM      4  C   UNL     1      -6.670  17.424  69.190  0.00  0.00    +0.205 A 
ATOM      5  C   UNL     1      -6.855  18.697  68.669  0.00  0.00    +0.136 A 
ATOM      6  C   UNL     1      -8.066  19.056  68.093  0.00  0.00    +0.086 A 
ATOM      7  O   UNL     1      -5.672  17.091  69.861  0.00  0.00    -0.286 OA
ATOM      8  C   UNL     1      -7.453  15.163  69.189  0.00  0.00    +0.036 A 
ATOM      9  C   UNL     1      -8.427  14.252  68.815  0.00  0.00    +0.157 A 
ATOM     10  F   UNL     1      -8.006  13.014  68.442  0.00  0.00    -0.203 F 
ATOM     11  N   UNL     1      -9.135  18.233  68.173  0.00  0.00    -0.325 N 
ATOM     12  C   UNL     1      -9.691  14.674  68.430  0.00  0.00    +0.112 A 
ENDROOT
BRANCH  12  13
ATOM     13  N   UNL     1     -10.685  13.789  67.942  0.00  0.00    -0.300 N 
ATOM     14  C   UNL     1     -11.001  13.895  66.513  0.00  0.00    +0.108 C 
ATOM     15  C   UNL     1      -9.944  12.770  65.947  0.00  0.00    +0.093 C 
ATOM     16  C   UNL     1     -10.347  13.069  64.384  0.00  0.00    +0.021 C 
ATOM     17  N   UNL     1     -10.994  11.602  66.052  0.00  0.00    -0.216 NA
ATOM     18  C   UNL     1     -11.581  11.678  67.338  0.00  0.00    +0.110 C 
ATOM     19  C   UNL     1     -10.802  12.397  68.375  0.00  0.00    +0.110 C 
ENDBRANCH  12  13
BRANCH   5  20
ATOM     20  C   UNL     1      -5.908  19.713  69.148  0.00  0.00    +0.392 C 
ATOM     21  O   UNL     1      -6.283  20.398  70.297  0.00  0.00    -0.240 OA
ATOM     22  O   UNL     1      -5.308  20.393  68.263  0.00  0.00    -0.240 OA
ENDBRANCH   5  20
BRANCH  11  23
ATOM     23  C   UNL     1     -10.435  18.587  67.622  0.00  0.00    +0.086 C 
ATOM     24  C   UNL     1     -10.448  18.895  66.170  0.00  0.00    +0.024 C 
ATOM     25  C   UNL     1     -10.500  20.045  67.080  0.00  0.00    +0.024 C 
ENDBRANCH  11  23
BRANCH   1  27
ATOM     26  C   UNL     1     -11.635  16.296  69.169  0.00  0.00    +0.253 C 
ATOM     27  O   UNL     1     -11.216  16.504  68.679  0.00  0.00    -0.469 OA
ENDBRANCH   1  27
TORSDOF 4
ENDMDL
MODEL 9
REMARK VINA RESULT:      -5.9      3.369      6.458
REMARK  Name = 
REMARK  4 active torsions:
REMARK  status: ('A' for Active; 'I' for Inactive)
REMARK    1  A    between atoms: O_2  and  C_3
REMARK    2  A    between atoms: C_4  and  N_5
REMARK    3  A    between atoms: C_18  and  C_19
REMARK    4  A    between atoms: N_23  and  C_24
REMARK                            x       y       z     vdW  Elec       q    Type
REMARK                         _______ _______ _______ _____ _____    ______ ____
ROOT
ATOM      1  C   UNL     1      -9.916  11.136  67.355  0.00  0.00    +0.170 A 
ATOM      2  C   UNL     1     -10.211  10.124  68.250  0.00  0.00    +0.099 A 
ATOM      3  C   UNL     1     -10.980  10.397  69.377  0.00  0.00    +0.060 A 
ATOM      4  C   UNL     1     -11.156   9.433  70.334  0.00  0.00    +0.205 A 
ATOM      5  C   UNL     1     -10.807   8.137  69.982  0.00  0.00    +0.136 A 
ATOM      6  C   UNL     1     -10.143   7.884  68.790  0.00  0.00    +0.086 A 
ATOM      7  O   UNL     1     -11.604   9.747  71.456  0.00  0.00    -0.286 OA
ATOM      8  C   UNL     1     -11.532  11.658  69.536  0.00  0.00    +0.036 A 
ATOM      9  C   UNL     1     -11.437  12.571  68.499  0.00  0.00    +0.157 A 
ATOM     10  F   UNL     1     -12.458  13.459  68.362  0.00  0.00    -0.203 F 
ATOM     11  N   UNL     1      -9.681   8.902  68.030  0.00  0.00    -0.325 N 
ATOM     12  C   UNL     1     -10.600  12.341  67.418  0.00  0.00    +0.112 A 
ENDROOT
BRANCH  12  13
ATOM     13  N   UNL     1     -10.546  13.194  66.288  0.00  0.00    -0.300 N 
ATOM     14  C   UNL     1     -10.890  12.583  64.998  0.00  0.00    +0.108 C 
ATOM     15  C   UNL     1     -12.497  12.928  64.988  0.00  0.00    +0.093 C 
ATOM     16  C   UNL     1     -12.736  12.125  63.576  0.00  0.00    +0.021 C 
ATOM     17  N   UNL     1     -12.288  14.296  64.238  0.00  0.00    -0.216 NA
ATOM     18  C   UNL     1     -11.252  14.989  64.908  0.00  0.00    +0.110 C 
ATOM     19  C   UNL     1     -10.992  14.587  66.312  0.00  0.00    +0.110 C 
ENDBRANCH  12  13
BRANCH   5  20
ATOM     20  C   UNL     1     -10.778   7.173  71.090  0.00  0.00    +0.392 C 
ATOM     21  O   UNL     1      -9.522   6.872  71.600  0.00  0.00    -0.240 OA
ATOM     22  O   UNL     1     -11.602   6.212  71.028  0.00  0.00    -0.240 OA
ENDBRANCH   5  20
BRANCH  11  23
ATOM     23  C   UNL     1      -8.942   8.682  66.796  0.00  0.00    +0.086 C 
ATOM     24  C   UNL     1      -8.881   7.273  66.333  0.00  0.00    +0.024 C 
ATOM     25  C   UNL     1      -7.674   7.798  66.984  0.00  0.00    +0.024 C 
ENDBRANCH  11  23
BRANCH   1  27
ATOM     26  C   UNL     1      -8.109  11.541  66.911  0.00  0.00    +0.253 C 
ATOM     27  O   UNL     1      -8.632  11.126  66.793  0.00  0.00    -0.469 OA
ENDBRANCH   1  27
TORSDOF 4
ENDMDL
