MODEL 1
REMARK VINA RESULT:      -5.7      0.000      0.000
REMARK  Name = 
REMARK  6 active torsions:
REMARK  status: ('A' for Active; 'I' for Inactive)
REMARK    1  A    between atoms: C_2  and  O_3
REMARK    2  A    between atoms: O_3  and  C_4
REMARK    3  A    between atoms: C_4  and  C_6
REMARK    4  A    between atoms: C_12  and  C_13
REMARK    5  A    between atoms: C_13  and  O_15
REMARK    6  A    between atoms: C_17  and  C_18
REMARK                            x       y       z     vdW  Elec       q    Type
REMARK                         _______ _______ _______ _____ _____    ______ ____
ROOT
ATOM      1  C   UNL     1      -9.675  11.530  67.381  0.00  0.00    +0.073 C 
ATOM      2  C   UNL     1     -11.255  11.900  67.198  0.00  0.00    +0.082 C 
ATOM      3  C   UNL     1     -10.992  13.006  66.032  0.00  0.00    +0.073 C 
ATOM      4  C   UNL     1     -10.131  13.919  66.203  0.00  0.00    +0.051 C 
ATOM      5  C   UNL     1     -10.172  15.076  65.252  0.00  0.00    +0.049 C 
ATOM      6  N   UNL     1      -9.034  13.708  67.038  0.00  0.00    -0.221 NA
ATOM      7  C   UNL     1      -8.868  12.485  67.700  0.00  0.00    +0.051 C 
ATOM      8  C   UNL     1      -7.471  12.082  68.067  0.00  0.00    +0.049 C 
ENDROOT
BRANCH   2   9
ATOM      9  C   UNL     1     -11.300  12.955  68.450  0.00  0.00    -0.002 A 
ATOM     10  C   UNL     1     -11.872  12.310  69.548  0.00  0.00    +0.065 A 
ATOM     11 CL   UNL     1     -12.585  10.700  69.485  0.00  0.00    -0.082 Cl
ATOM     12  C   UNL     1     -12.354  13.092  70.594  0.00  0.00    +0.068 A 
ATOM     13 CL   UNL     1     -12.967  12.340  72.062  0.00  0.00    -0.081 Cl
ATOM     14  C   UNL     1     -12.313  14.475  70.461  0.00  0.00    +0.012 A 
ATOM     15  C   UNL     1     -11.933  15.040  69.250  0.00  0.00    +0.001 A 
ATOM     16  C   UNL     1     -11.944  14.160  68.170  0.00  0.00    -0.003 A 
ENDBRANCH   2   9
BRANCH   1  17
ATOM     17  C   UNL     1      -9.480  10.249  68.088  0.00  0.00    +0.339 C 
ATOM     18  O   UNL     1     -10.045   9.190  67.674  0.00  0.00    -0.245 OA
BRANCH  17  19
ATOM     19  O   UNL     1      -9.293  10.293  69.473  0.00  0.00    -0.446 OA
BRANCH  19  21
ATOM     20  C   UNL     1      -9.739   9.096  71.170  0.00  0.00    +0.051 C 
ATOM     21  C   UNL     1      -9.393   9.137  70.291  0.00  0.00    +0.209 C 
ENDBRANCH  19  21
ENDBRANCH  17  19
ENDBRANCH   1  17
BRANCH   3  22
ATOM     22  C   UNL     1     -11.835  12.781  64.873  0.00  0.00    +0.339 C 
ATOM     23  O   UNL     1     -13.061  13.036  64.854  0.00  0.00    -0.245 OA
BRANCH  22  24
ATOM     24  O   UNL     1     -11.266  12.348  63.695  0.00  0.00    -0.442 OA
ATOM     25  C   UNL     1     -10.519  11.134  63.647  0.00  0.00    +0.256 C 
ENDBRANCH  22  24
ENDBRANCH   3  22
TORSDOF 6
ENDMDL
MODEL 2
REMARK VINA RESULT:      -5.6      3.952      5.979
REMARK  Name = 
REMARK  6 active torsions:
REMARK  status: ('A' for Active; 'I' for Inactive)
REMARK    1  A    between atoms: C_2  and  O_3
REMARK    2  A    between atoms: O_3  and  C_4
REMARK    3  A    between atoms: C_4  and  C_6
REMARK    4  A    between atoms: C_12  and  C_13
REMARK    5  A    between atoms: C_13  and  O_15
REMARK    6  A    between atoms: C_17  and  C_18
REMARK                            x       y       z     vdW  Elec       q    Type
REMARK                         _______ _______ _______ _____ _____    ______ ____
ROOT
ATOM      1  C   UNL     1     -10.797  16.154  67.790  0.00  0.00    +0.073 C 
ATOM      2  C   UNL     1     -10.056  15.488  66.496  0.00  0.00    +0.082 C 
ATOM      3  C   UNL     1     -10.980  14.146  66.496  0.00  0.00    +0.073 C 
ATOM      4  C   UNL     1     -11.136  13.482  67.563  0.00  0.00    +0.051 C 
ATOM      5  C   UNL     1     -11.713  12.106  67.424  0.00  0.00    +0.049 C 
ATOM      6  N   UNL     1     -11.055  14.110  68.805  0.00  0.00    -0.221 NA
ATOM      7  C   UNL     1     -10.797  15.484  68.893  0.00  0.00    +0.051 C 
ATOM      8  C   UNL     1     -11.294  16.204  70.110  0.00  0.00    +0.049 C 
ENDROOT
BRANCH   2   9
ATOM      9  C   UNL     1      -8.811  14.858  67.355  0.00  0.00    -0.002 A 
ATOM     10  C   UNL     1      -7.700  15.687  67.191  0.00  0.00    +0.065 A 
ATOM     11 CL   UNL     1      -7.645  17.055  66.083  0.00  0.00    -0.082 Cl
ATOM     12  C   UNL     1      -6.444  15.176  67.508  0.00  0.00    +0.068 A 
ATOM     13 CL   UNL     1      -5.019  16.206  67.448  0.00  0.00    -0.081 Cl
ATOM     14  C   UNL     1      -6.349  13.845  67.897  0.00  0.00    +0.012 A 
ATOM     15  C   UNL     1      -7.468  13.024  67.824  0.00  0.00    +0.001 A 
ATOM     16  C   UNL     1      -8.511  13.530  67.051  0.00  0.00    -0.003 A 
ENDBRANCH   2   9
BRANCH   1  17
ATOM     17  C   UNL     1     -10.527  17.600  67.906  0.00  0.00    +0.339 C 
ATOM     18  O   UNL     1     -10.699  18.371  66.912  0.00  0.00    -0.245 OA
BRANCH  17  19
ATOM     19  O   UNL     1      -9.506  18.003  68.772  0.00  0.00    -0.446 OA
BRANCH  19  21
ATOM     20  C   UNL     1      -7.894  19.386  68.758  0.00  0.00    +0.051 C 
ATOM     21  C   UNL     1      -8.816  19.233  68.614  0.00  0.00    +0.209 C 
ENDBRANCH  19  21
ENDBRANCH  17  19
ENDBRANCH   1  17
BRANCH   3  22
ATOM     22  C   UNL     1     -11.538  13.876  65.185  0.00  0.00    +0.339 C 
ATOM     23  O   UNL     1     -12.684  14.239  64.837  0.00  0.00    -0.245 OA
BRANCH  22  24
ATOM     24  O   UNL     1     -10.755  13.267  64.228  0.00  0.00    -0.442 OA
ATOM     25  C   UNL     1     -11.227  12.123  63.518  0.00  0.00    +0.256 C 
ENDBRANCH  22  24
ENDBRANCH   3  22
TORSDOF 6
ENDMDL
MODEL 3
REMARK VINA RESULT:      -5.5      3.123      4.778
REMARK  Name = 
REMARK  6 active torsions:
REMARK  status: ('A' for Active; 'I' for Inactive)
REMARK    1  A    between atoms: C_2  and  O_3
REMARK    2  A    between atoms: O_3  and  C_4
REMARK    3  A    between atoms: C_4  and  C_6
REMARK    4  A    between atoms: C_12  and  C_13
REMARK    5  A    between atoms: C_13  and  O_15
REMARK    6  A    between atoms: C_17  and  C_18
REMARK                            x       y       z     vdW  Elec       q    Type
REMARK                         _______ _______ _______ _____ _____    ______ ____
ROOT
ATOM      1  C   UNL     1     -12.082  13.955  69.108  0.00  0.00    +0.073 C 
ATOM      2  C   UNL     1     -11.345  14.701  67.856  0.00  0.00    +0.082 C 
ATOM      3  C   UNL     1     -11.697  13.526  66.783  0.00  0.00    +0.073 C 
ATOM      4  C   UNL     1     -11.439  12.317  67.057  0.00  0.00    +0.051 C 
ATOM      5  C   UNL     1     -11.481  11.342  65.919  0.00  0.00    +0.049 C 
ATOM      6  N   UNL     1     -11.415  11.882  68.381  0.00  0.00    -0.221 NA
ATOM      7  C   UNL     1     -11.672  12.774  69.430  0.00  0.00    +0.051 C 
ATOM      8  C   UNL     1     -12.217  12.204  70.705  0.00  0.00    +0.049 C 
ENDROOT
BRANCH   2   9
ATOM      9  C   UNL     1      -9.844  14.164  68.235  0.00  0.00    -0.002 A 
ATOM     10  C   UNL     1      -9.137  15.214  68.822  0.00  0.00    +0.065 A 
ATOM     11 CL   UNL     1      -9.737  16.867  68.932  0.00  0.00    -0.082 Cl
ATOM     12  C   UNL     1      -7.749  15.120  68.885  0.00  0.00    +0.068 A 
ATOM     13 CL   UNL     1      -6.808  16.346  69.726  0.00  0.00    -0.081 Cl
ATOM     14  C   UNL     1      -7.132  14.024  68.294  0.00  0.00    +0.012 A 
ATOM     15  C   UNL     1      -7.885  13.134  67.537  0.00  0.00    +0.001 A 
ATOM     16  C   UNL     1      -9.142  13.605  67.167  0.00  0.00    -0.003 A 
ENDBRANCH   2   9
BRANCH   1  17
ATOM     17  C   UNL     1     -12.351  14.878  70.227  0.00  0.00    +0.339 C 
ATOM     18  O   UNL     1     -12.902  16.003  70.019  0.00  0.00    -0.245 OA
BRANCH  17  19
ATOM     19  O   UNL     1     -11.461  14.869  71.306  0.00  0.00    -0.446 OA
BRANCH  19  21
ATOM     20  C   UNL     1     -12.357  15.084  73.220  0.00  0.00    +0.051 C 
ATOM     21  C   UNL     1     -11.782  15.447  72.562  0.00  0.00    +0.209 C 
ENDBRANCH  19  21
ENDBRANCH  17  19
ENDBRANCH   1  17
BRANCH   3  22
ATOM     22  C   UNL     1     -12.302  14.060  65.577  0.00  0.00    +0.339 C 
ATOM     23  O   UNL     1     -13.540  14.117  65.395  0.00  0.00    -0.245 OA
BRANCH  22  24
ATOM     24  O   UNL     1     -11.499  14.619  64.608  0.00  0.00    -0.442 OA
ATOM     25  C   UNL     1     -11.147  16.002  64.658  0.00  0.00    +0.256 C 
ENDBRANCH  22  24
ENDBRANCH   3  22
TORSDOF 6
ENDMDL
MODEL 4
REMARK VINA RESULT:      -5.4      5.418      7.361
REMARK  Name = 
REMARK  6 active torsions:
REMARK  status: ('A' for Active; 'I' for Inactive)
REMARK    1  A    between atoms: C_2  and  O_3
REMARK    2  A    between atoms: O_3  and  C_4
REMARK    3  A    between atoms: C_4  and  C_6
REMARK    4  A    between atoms: C_12  and  C_13
REMARK    5  A    between atoms: C_13  and  O_15
REMARK    6  A    between atoms: C_17  and  C_18
REMARK                            x       y       z     vdW  Elec       q    Type
REMARK                         _______ _______ _______ _____ _____    ______ ____
ROOT
ATOM      1  C   UNL     1      -9.196  18.530  66.957  0.00  0.00    +0.073 C 
ATOM      2  C   UNL     1      -8.595  17.113  66.408  0.00  0.00    +0.082 C 
ATOM      3  C   UNL     1      -9.991  16.297  66.607  0.00  0.00    +0.073 C 
ATOM      4  C   UNL     1     -10.609  16.352  67.711  0.00  0.00    +0.051 C 
ATOM      5  C   UNL     1     -11.687  15.336  67.934  0.00  0.00    +0.049 C 
ATOM      6  N   UNL     1     -10.489  17.472  68.533  0.00  0.00    -0.221 NA
ATOM      7  C   UNL     1      -9.683  18.553  68.152  0.00  0.00    +0.051 C 
ATOM      8  C   UNL     1     -10.031  19.902  68.703  0.00  0.00    +0.049 C 
ENDROOT
BRANCH   2   9
ATOM      9  C   UNL     1      -7.922  16.682  67.838  0.00  0.00    -0.002 A 
ATOM     10  C   UNL     1      -6.559  16.981  67.790  0.00  0.00    +0.065 A 
ATOM     11 CL   UNL     1      -5.723  17.542  66.344  0.00  0.00    -0.082 Cl
ATOM     12  C   UNL     1      -5.718  16.375  68.720  0.00  0.00    +0.068 A 
ATOM     13 CL   UNL     1      -4.014  16.805  68.798  0.00  0.00    -0.081 Cl
ATOM     14  C   UNL     1      -6.263  15.446  69.599  0.00  0.00    +0.012 A 
ATOM     15  C   UNL     1      -7.582  15.038  69.441  0.00  0.00    +0.001 A 
ATOM     16  C   UNL     1      -8.145  15.355  68.207  0.00  0.00    -0.003 A 
ENDBRANCH   2   9
BRANCH   1  17
ATOM     17  C   UNL     1      -8.354  19.679  66.574  0.00  0.00    +0.339 C 
ATOM     18  O   UNL     1      -7.926  19.799  65.385  0.00  0.00    -0.245 OA
BRANCH  17  19
ATOM     19  O   UNL     1      -7.499  20.210  67.545  0.00  0.00    -0.446 OA
BRANCH  19  21
ATOM     20  C   UNL     1      -5.589  21.124  67.708  0.00  0.00    +0.051 C 
ATOM     21  C   UNL     1      -6.390  21.032  67.215  0.00  0.00    +0.209 C 
ENDBRANCH  19  21
ENDBRANCH  17  19
ENDBRANCH   1  17
BRANCH   3  22
ATOM     22  C   UNL     1     -10.366  15.569  65.409  0.00  0.00    +0.339 C 
ATOM     23  O   UNL     1     -11.031  16.075  64.476  0.00  0.00    -0.245 OA
BRANCH  22  24
ATOM     24  O   UNL     1      -9.903  14.285  65.225  0.00  0.00    -0.442 OA
ATOM     25  C   UNL     1     -10.694  13.314  64.540  0.00  0.00    +0.256 C 
ENDBRANCH  22  24
ENDBRANCH   3  22
TORSDOF 6
ENDMDL
MODEL 5
REMARK VINA RESULT:      -5.3      2.689      5.458
REMARK  Name = 
REMARK  6 active torsions:
REMARK  status: ('A' for Active; 'I' for Inactive)
REMARK    1  A    between atoms: C_2  and  O_3
REMARK    2  A    between atoms: O_3  and  C_4
REMARK    3  A    between atoms: C_4  and  C_6
REMARK    4  A    between atoms: C_12  and  C_13
REMARK    5  A    between atoms: C_13  and  O_15
REMARK    6  A    between atoms: C_17  and  C_18
REMARK                            x       y       z     vdW  Elec       q    Type
REMARK                         _______ _______ _______ _____ _____    ______ ____
ROOT
ATOM      1  C   UNL     1     -11.746  14.296  66.236  0.00  0.00    +0.073 C 
ATOM      2  C   UNL     1     -11.407  13.345  67.521  0.00  0.00    +0.082 C 
ATOM      3  C   UNL     1     -11.419  14.571  68.593  0.00  0.00    +0.073 C 
ATOM      4  C   UNL     1     -10.743  15.618  68.370  0.00  0.00    +0.051 C 
ATOM      5  C   UNL     1     -10.537  16.549  69.526  0.00  0.00    +0.049 C 
ATOM      6  N   UNL     1     -10.469  16.016  67.062  0.00  0.00    -0.221 NA
ATOM      7  C   UNL     1     -10.933  15.264  65.976  0.00  0.00    +0.051 C 
ATOM      8  C   UNL     1     -11.150  15.984  64.679  0.00  0.00    +0.049 C 
ENDROOT
BRANCH   2   9
ATOM      9  C   UNL     1      -9.789  13.334  67.266  0.00  0.00    -0.002 A 
ATOM     10  C   UNL     1      -9.437  12.096  66.727  0.00  0.00    +0.065 A 
ATOM     11 CL   UNL     1     -10.551  10.742  66.554  0.00  0.00    -0.082 Cl
ATOM     12  C   UNL     1      -8.099  11.713  66.775  0.00  0.00    +0.068 A 
ATOM     13 CL   UNL     1      -7.567  10.225  66.000  0.00  0.00    -0.081 Cl
ATOM     14  C   UNL     1      -7.194  12.545  67.423  0.00  0.00    +0.012 A 
ATOM     15  C   UNL     1      -7.656  13.652  68.126  0.00  0.00    +0.001 A 
ATOM     16  C   UNL     1      -9.024  13.641  68.392  0.00  0.00    -0.003 A 
ENDBRANCH   2   9
BRANCH   1  17
ATOM     17  C   UNL     1     -12.226  13.519  65.078  0.00  0.00    +0.339 C 
ATOM     18  O   UNL     1     -13.145  12.654  65.216  0.00  0.00    -0.245 OA
BRANCH  17  19
ATOM     19  O   UNL     1     -11.305  13.217  64.070  0.00  0.00    -0.446 OA
BRANCH  19  21
ATOM     20  C   UNL     1     -10.460  11.501  63.147  0.00  0.00    +0.051 C 
ATOM     21  C   UNL     1     -11.238  11.938  63.457  0.00  0.00    +0.209 C 
ENDBRANCH  19  21
ENDBRANCH  17  19
ENDBRANCH   1  17
BRANCH   3  22
ATOM     22  C   UNL     1     -12.262  14.278  69.738  0.00  0.00    +0.339 C 
ATOM     23  O   UNL     1     -12.162  13.231  70.416  0.00  0.00    -0.245 OA
BRANCH  22  24
ATOM     24  O   UNL     1     -13.164  15.224  70.173  0.00  0.00    -0.442 OA
ATOM     25  C   UNL     1     -13.847  15.065  71.416  0.00  0.00    +0.256 C 
ENDBRANCH  22  24
ENDBRANCH   3  22
TORSDOF 6
ENDMDL
MODEL 6
REMARK VINA RESULT:      -5.3      1.781      2.214
REMARK  Name = 
REMARK  6 active torsions:
REMARK  status: ('A' for Active; 'I' for Inactive)
REMARK    1  A    between atoms: C_2  and  O_3
REMARK    2  A    between atoms: O_3  and  C_4
REMARK    3  A    between atoms: C_4  and  C_6
REMARK    4  A    between atoms: C_12  and  C_13
REMARK    5  A    between atoms: C_13  and  O_15
REMARK    6  A    between atoms: C_17  and  C_18
REMARK                            x       y       z     vdW  Elec       q    Type
REMARK                         _______ _______ _______ _____ _____    ______ ____
ROOT
ATOM      1  C   UNL     1     -10.686  12.023  68.252  0.00  0.00    +0.073 C 
ATOM      2  C   UNL     1     -11.893  13.095  68.001  0.00  0.00    +0.082 C 
ATOM      3  C   UNL     1     -11.476  13.396  66.456  0.00  0.00    +0.073 C 
ATOM      4  C   UNL     1     -10.279  13.693  66.166  0.00  0.00    +0.051 C 
ATOM      5  C   UNL     1     -10.035  14.271  64.805  0.00  0.00    +0.049 C 
ATOM      6  N   UNL     1      -9.226  13.229  66.954  0.00  0.00    -0.221 NA
ATOM      7  C   UNL     1      -9.475  12.431  68.078  0.00  0.00    +0.051 C 
ATOM      8  C   UNL     1      -8.387  11.497  68.517  0.00  0.00    +0.049 C 
ENDROOT
BRANCH   2   9
ATOM      9  C   UNL     1     -11.095  14.364  68.661  0.00  0.00    -0.002 A 
ATOM     10  C   UNL     1     -11.603  14.583  69.943  0.00  0.00    +0.065 A 
ATOM     11 CL   UNL     1     -12.996  13.736  70.611  0.00  0.00    -0.082 Cl
ATOM     12  C   UNL     1     -11.356  15.812  70.548  0.00  0.00    +0.068 A 
ATOM     13 CL   UNL     1     -11.854  16.106  72.210  0.00  0.00    -0.081 Cl
ATOM     14  C   UNL     1     -10.685  16.787  69.819  0.00  0.00    +0.012 A 
ATOM     15  C   UNL     1     -10.406  16.572  68.475  0.00  0.00    +0.001 A 
ATOM     16  C   UNL     1     -11.121  15.527  67.893  0.00  0.00    -0.003 A 
ENDBRANCH   2   9
BRANCH   1  17
ATOM     17  C   UNL     1     -10.926  11.181  69.440  0.00  0.00    +0.339 C 
ATOM     18  O   UNL     1     -10.110  10.262  69.756  0.00  0.00    -0.245 OA
BRANCH  17  19
ATOM     19  O   UNL     1     -12.253  10.911  69.788  0.00  0.00    -0.446 OA
BRANCH  19  21
ATOM     20  C   UNL     1     -13.211   9.708  71.254  0.00  0.00    +0.051 C 
ATOM     21  C   UNL     1     -12.620  10.423  71.070  0.00  0.00    +0.209 C 
ENDBRANCH  19  21
ENDBRANCH  17  19
ENDBRANCH   1  17
BRANCH   3  22
ATOM     22  C   UNL     1     -12.608  13.275  65.557  0.00  0.00    +0.339 C 
ATOM     23  O   UNL     1     -13.395  14.217  65.311  0.00  0.00    -0.245 OA
BRANCH  22  24
ATOM     24  O   UNL     1     -12.797  12.102  64.860  0.00  0.00    -0.442 OA
ATOM     25  C   UNL     1     -12.478  12.017  63.471  0.00  0.00    +0.256 C 
ENDBRANCH  22  24
ENDBRANCH   3  22
TORSDOF 6
ENDMDL
MODEL 7
REMARK VINA RESULT:      -5.2      1.930      2.640
REMARK  Name = 
REMARK  6 active torsions:
REMARK  status: ('A' for Active; 'I' for Inactive)
REMARK    1  A    between atoms: C_2  and  O_3
REMARK    2  A    between atoms: O_3  and  C_4
REMARK    3  A    between atoms: C_4  and  C_6
REMARK    4  A    between atoms: C_12  and  C_13
REMARK    5  A    between atoms: C_13  and  O_15
REMARK    6  A    between atoms: C_17  and  C_18
REMARK                            x       y       z     vdW  Elec       q    Type
REMARK                         _______ _______ _______ _____ _____    ______ ____
ROOT
ATOM      1  C   UNL     1      -9.330  13.364  66.669  0.00  0.00    +0.073 C 
ATOM      2  C   UNL     1     -10.942  13.614  66.587  0.00  0.00    +0.082 C 
ATOM      3  C   UNL     1     -10.807  15.111  65.958  0.00  0.00    +0.073 C 
ATOM      4  C   UNL     1     -10.048  15.965  66.506  0.00  0.00    +0.051 C 
ATOM      5  C   UNL     1     -10.220  17.392  66.082  0.00  0.00    +0.049 C 
ATOM      6  N   UNL     1      -8.930  15.555  67.230  0.00  0.00    -0.221 NA
ATOM      7  C   UNL     1      -8.628  14.194  67.366  0.00  0.00    +0.051 C 
ATOM      8  C   UNL     1      -7.194  13.823  67.596  0.00  0.00    +0.049 C 
ENDROOT
BRANCH   2   9
ATOM      9  C   UNL     1     -11.092  14.081  68.150  0.00  0.00    -0.002 A 
ATOM     10  C   UNL     1     -11.525  12.984  68.897  0.00  0.00    +0.065 A 
ATOM     11 CL   UNL     1     -12.002  11.439  68.195  0.00  0.00    -0.082 Cl
ATOM     12  C   UNL     1     -12.077  13.218  70.153  0.00  0.00    +0.068 A 
ATOM     13 CL   UNL     1     -12.522  11.874  71.198  0.00  0.00    -0.081 Cl
ATOM     14  C   UNL     1     -12.239  14.533  70.571  0.00  0.00    +0.012 A 
ATOM     15  C   UNL     1     -11.989  15.574  69.684  0.00  0.00    +0.001 A 
ATOM     16  C   UNL     1     -11.912  15.192  68.347  0.00  0.00    -0.003 A 
ENDBRANCH   2   9
BRANCH   1  17
ATOM     17  C   UNL     1      -8.993  11.936  66.823  0.00  0.00    +0.339 C 
ATOM     18  O   UNL     1      -8.586  11.485  67.938  0.00  0.00    -0.245 OA
BRANCH  17  19
ATOM     19  O   UNL     1      -8.473  11.267  65.711  0.00  0.00    -0.446 OA
BRANCH  19  21
ATOM     20  C   UNL     1     -10.095  10.370  64.674  0.00  0.00    +0.051 C 
ATOM     21  C   UNL     1      -9.212  10.285  65.000  0.00  0.00    +0.209 C 
ENDBRANCH  19  21
ENDBRANCH  17  19
ENDBRANCH   1  17
BRANCH   3  22
ATOM     22  C   UNL     1     -11.629  15.275  64.774  0.00  0.00    +0.339 C 
ATOM     23  O   UNL     1     -11.521  16.246  63.991  0.00  0.00    -0.245 OA
BRANCH  22  24
ATOM     24  O   UNL     1     -12.517  14.282  64.424  0.00  0.00    -0.442 OA
ATOM     25  C   UNL     1     -12.163  13.289  63.463  0.00  0.00    +0.256 C 
ENDBRANCH  22  24
ENDBRANCH   3  22
TORSDOF 6
ENDMDL
MODEL 8
REMARK VINA RESULT:      -5.2      2.663      4.635
REMARK  Name = 
REMARK  6 active torsions:
REMARK  status: ('A' for Active; 'I' for Inactive)
REMARK    1  A    between atoms: C_2  and  O_3
REMARK    2  A    between atoms: O_3  and  C_4
REMARK    3  A    between atoms: C_4  and  C_6
REMARK    4  A    between atoms: C_12  and  C_13
REMARK    5  A    between atoms: C_13  and  O_15
REMARK    6  A    between atoms: C_17  and  C_18
REMARK                            x       y       z     vdW  Elec       q    Type
REMARK                         _______ _______ _______ _____ _____    ______ ____
ROOT
ATOM      1  C   UNL     1     -10.530  12.613  68.845  0.00  0.00    +0.073 C 
ATOM      2  C   UNL     1      -9.501  12.767  67.586  0.00  0.00    +0.082 C 
ATOM      3  C   UNL     1      -8.775  14.099  68.177  0.00  0.00    +0.073 C 
ATOM      4  C   UNL     1      -9.470  15.084  68.566  0.00  0.00    +0.051 C 
ATOM      5  C   UNL     1      -8.748  16.379  68.783  0.00  0.00    +0.049 C 
ATOM      6  N   UNL     1     -10.765  14.889  69.045  0.00  0.00    -0.221 NA
ATOM      7  C   UNL     1     -11.318  13.603  69.102  0.00  0.00    +0.051 C 
ATOM      8  C   UNL     1     -12.389  13.355  70.121  0.00  0.00    +0.049 C 
ENDROOT
BRANCH   2   9
ATOM      9  C   UNL     1     -10.572  13.549  66.623  0.00  0.00    -0.002 A 
ATOM     10  C   UNL     1     -11.123  12.623  65.736  0.00  0.00    +0.065 A 
ATOM     11 CL   UNL     1     -10.580  10.953  65.590  0.00  0.00    -0.082 Cl
ATOM     12  C   UNL     1     -11.763  13.102  64.596  0.00  0.00    +0.068 A 
ATOM     13 CL   UNL     1     -12.591  11.998  63.505  0.00  0.00    -0.081 Cl
ATOM     14  C   UNL     1     -11.755  14.472  64.358  0.00  0.00    +0.012 A 
ATOM     15  C   UNL     1     -10.997  15.308  65.170  0.00  0.00    +0.001 A 
ATOM     16  C   UNL     1     -10.048  14.654  65.953  0.00  0.00    -0.003 A 
ENDBRANCH   2   9
BRANCH   1  17
ATOM     17  C   UNL     1     -11.131  11.267  68.914  0.00  0.00    +0.339 C 
ATOM     18  O   UNL     1     -12.321  11.070  68.519  0.00  0.00    -0.245 OA
BRANCH  17  19
ATOM     19  O   UNL     1     -10.729  10.429  69.958  0.00  0.00    -0.446 OA
BRANCH  19  21
ATOM     20  C   UNL     1     -11.572   9.108  71.392  0.00  0.00    +0.051 C 
ATOM     21  C   UNL     1     -11.639   9.927  70.925  0.00  0.00    +0.209 C 
ENDBRANCH  19  21
ENDBRANCH  17  19
ENDBRANCH   1  17
BRANCH   3  22
ATOM     22  C   UNL     1      -7.330  13.970  68.180  0.00  0.00    +0.339 C 
ATOM     23  O   UNL     1      -6.604  14.340  67.230  0.00  0.00    -0.245 OA
BRANCH  22  24
ATOM     24  O   UNL     1      -6.694  13.501  69.309  0.00  0.00    -0.442 OA
ATOM     25  C   UNL     1      -5.860  14.358  70.088  0.00  0.00    +0.256 C 
ENDBRANCH  22  24
ENDBRANCH   3  22
TORSDOF 6
ENDMDL
MODEL 9
REMARK VINA RESULT:      -5.1      2.676      5.174
REMARK  Name = 
REMARK  6 active torsions:
REMARK  status: ('A' for Active; 'I' for Inactive)
REMARK    1  A    between atoms: C_2  and  O_3
REMARK    2  A    between atoms: O_3  and  C_4
REMARK    3  A    between atoms: C_4  and  C_6
REMARK    4  A    between atoms: C_12  and  C_13
REMARK    5  A    between atoms: C_13  and  O_15
REMARK    6  A    between atoms: C_17  and  C_18
REMARK                            x       y       z     vdW  Elec       q    Type
REMARK                         _______ _______ _______ _____ _____    ______ ____
ROOT
ATOM      1  C   UNL     1      -9.768  14.271  66.100  0.00  0.00    +0.073 C 
ATOM      2  C   UNL     1      -9.127  13.658  67.472  0.00  0.00    +0.082 C 
ATOM      3  C   UNL     1      -9.197  12.112  66.965  0.00  0.00    +0.073 C 
ATOM      4  C   UNL     1     -10.275  11.645  66.492  0.00  0.00    +0.051 C 
ATOM      5  C   UNL     1     -10.366  10.156  66.356  0.00  0.00    +0.049 C 
ATOM      6  N   UNL     1     -11.193  12.486  65.864  0.00  0.00    -0.221 NA
ATOM      7  C   UNL     1     -10.939  13.859  65.748  0.00  0.00    +0.051 C 
ATOM      8  C   UNL     1     -11.588  14.588  64.610  0.00  0.00    +0.049 C 
ENDROOT
BRANCH   2   9
ATOM      9  C   UNL     1     -10.542  13.649  68.297  0.00  0.00    -0.002 A 
ATOM     10  C   UNL     1     -10.567  14.761  69.140  0.00  0.00    +0.065 A 
ATOM     11 CL   UNL     1      -9.201  15.848  69.379  0.00  0.00    -0.082 Cl
ATOM     12  C   UNL     1     -11.476  14.770  70.194  0.00  0.00    +0.068 A 
ATOM     13 CL   UNL     1     -11.650  16.193  71.214  0.00  0.00    -0.081 Cl
ATOM     14  C   UNL     1     -12.260  13.640  70.402  0.00  0.00    +0.012 A 
ATOM     15  C   UNL     1     -12.022  12.490  69.659  0.00  0.00    +0.001 A 
ATOM     16  C   UNL     1     -10.797  12.469  68.997  0.00  0.00    -0.003 A 
ENDBRANCH   2   9
BRANCH   1  17
ATOM     17  C   UNL     1      -9.520  15.719  65.967  0.00  0.00    +0.339 C 
ATOM     18  O   UNL     1      -8.337  16.179  66.009  0.00  0.00    -0.245 OA
BRANCH  17  19
ATOM     19  O   UNL     1     -10.491  16.594  66.465  0.00  0.00    -0.446 OA
BRANCH  19  21
ATOM     20  C   UNL     1     -10.590  18.555  67.275  0.00  0.00    +0.051 C 
ATOM     21  C   UNL     1     -10.265  17.990  66.590  0.00  0.00    +0.209 C 
ENDBRANCH  19  21
ENDBRANCH  17  19
ENDBRANCH   1  17
BRANCH   3  22
ATOM     22  C   UNL     1      -7.927  11.430  67.134  0.00  0.00    +0.339 C 
ATOM     23  O   UNL     1      -7.076  11.325  66.221  0.00  0.00    -0.245 OA
BRANCH  22  24
ATOM     24  O   UNL     1      -7.580  10.944  68.375  0.00  0.00    -0.442 OA
ATOM     25  C   UNL     1      -6.478  11.495  69.094  0.00  0.00    +0.256 C 
ENDBRANCH  22  24
ENDBRANCH   3  22
TORSDOF 6
ENDMDL
