MODEL 1
REMARK VINA RESULT:      -6.3      0.000      0.000
REMARK  Name = 
REMARK  2 active torsions:
REMARK  status: ('A' for Active; 'I' for Inactive)
REMARK    1  A    between atoms: N_5  and  C_6
REMARK    2  A    between atoms: C_8  and  C_9
REMARK                            x       y       z     vdW  Elec       q    Type
REMARK                         _______ _______ _______ _____ _____    ______ ____
ROOT
ATOM      1  C   UNL     1      -9.470  16.328  65.850  0.00  0.00    +0.274 C 
ATOM      2  C   UNL     1      -9.847  17.698  66.678  0.00  0.00    +0.338 C 
ATOM      3  F   UNL     1     -10.919  18.281  66.269  0.00  0.00    -0.197 F 
ATOM      4  F   UNL     1      -8.741  18.477  66.563  0.00  0.00    -0.197 F 
ATOM      5  C   UNL     1      -9.931  17.111  68.174  0.00  0.00    +0.247 C 
ATOM      6  O   UNL     1      -9.368  18.351  68.832  0.00  0.00    -0.214 OA
ATOM      7  C   UNL     1      -8.356  16.497  67.859  0.00  0.00    +0.186 C 
ATOM      8  O   UNL     1      -9.077  15.476  67.046  0.00  0.00    -0.328 OA
ENDROOT
BRANCH   1  14
ATOM      9  N   UNL     1     -13.021  12.410  64.645  0.00  0.00    -0.107 NA
ATOM     10  C   UNL     1     -12.661  13.673  65.102  0.00  0.00    +0.176 A 
ATOM     11  N   UNL     1     -12.503  14.770  64.350  0.00  0.00    -0.174 NA
ATOM     12  C   UNL     1     -11.472  15.625  64.600  0.00  0.00    +0.353 A 
ATOM     13  O   UNL     1     -11.385  16.689  63.914  0.00  0.00    -0.244 OA
ATOM     14  N   UNL     1     -10.912  15.658  65.843  0.00  0.00    -0.251 N 
ATOM     15  C   UNL     1     -11.213  14.679  66.624  0.00  0.00    +0.085 A 
ATOM     16  C   UNL     1     -12.212  13.780  66.412  0.00  0.00    +0.057 A 
ENDBRANCH   1  14
BRANCH   7  17
ATOM     17  C   UNL     1      -8.432  15.565  69.205  0.00  0.00    +0.214 C 
ATOM     18  O   UNL     1      -7.114  15.393  69.636  0.00  0.00    -0.218 OA
ENDBRANCH   7  17
TORSDOF 2
ENDMDL
MODEL 2
REMARK VINA RESULT:      -6.1      3.075      4.842
REMARK  Name = 
REMARK  2 active torsions:
REMARK  status: ('A' for Active; 'I' for Inactive)
REMARK    1  A    between atoms: N_5  and  C_6
REMARK    2  A    between atoms: C_8  and  C_9
REMARK                            x       y       z     vdW  Elec       q    Type
REMARK                         _______ _______ _______ _____ _____    ______ ____
ROOT
ATOM      1  C   UNL     1     -11.906  14.438  65.555  0.00  0.00    +0.274 C 
ATOM      2  C   UNL     1     -10.819  13.334  65.005  0.00  0.00    +0.338 C 
ATOM      3  F   UNL     1      -9.917  13.825  64.229  0.00  0.00    -0.197 F 
ATOM      4  F   UNL     1     -11.579  12.385  64.402  0.00  0.00    -0.197 F 
ATOM      5  C   UNL     1     -10.262  12.762  66.402  0.00  0.00    +0.247 C 
ATOM      6  O   UNL     1     -10.087  11.345  65.902  0.00  0.00    -0.214 OA
ATOM      7  C   UNL     1     -11.919  12.484  66.773  0.00  0.00    +0.186 C 
ATOM      8  O   UNL     1     -11.964  13.957  66.996  0.00  0.00    -0.328 OA
ENDROOT
BRANCH   1  14
ATOM      9  N   UNL     1     -10.537  19.160  67.847  0.00  0.00    -0.107 NA
ATOM     10  C   UNL     1     -10.296  18.031  67.071  0.00  0.00    +0.176 A 
ATOM     11  N   UNL     1     -10.550  17.902  65.762  0.00  0.00    -0.174 NA
ATOM     12  C   UNL     1     -11.067  16.738  65.280  0.00  0.00    +0.353 A 
ATOM     13  O   UNL     1     -11.237  16.621  64.027  0.00  0.00    -0.244 OA
ATOM     14  N   UNL     1     -10.882  15.580  65.977  0.00  0.00    -0.251 N 
ATOM     15  C   UNL     1     -10.466  15.711  67.188  0.00  0.00    +0.085 A 
ATOM     16  C   UNL     1      -9.967  16.854  67.732  0.00  0.00    +0.057 A 
ENDBRANCH   1  14
BRANCH   7  17
ATOM     17  C   UNL     1     -11.536  12.198  68.341  0.00  0.00    +0.214 C 
ATOM     18  O   UNL     1     -12.194  11.017  68.694  0.00  0.00    -0.218 OA
ENDBRANCH   7  17
TORSDOF 2
ENDMDL
MODEL 3
REMARK VINA RESULT:      -5.8      2.428      3.488
REMARK  Name = 
REMARK  2 active torsions:
REMARK  status: ('A' for Active; 'I' for Inactive)
REMARK    1  A    between atoms: N_5  and  C_6
REMARK    2  A    between atoms: C_8  and  C_9
REMARK                            x       y       z     vdW  Elec       q    Type
REMARK                         _______ _______ _______ _____ _____    ______ ____
ROOT
ATOM      1  C   UNL     1     -11.396  14.829  68.372  0.00  0.00    +0.274 C 
ATOM      2  C   UNL     1      -9.827  14.917  68.854  0.00  0.00    +0.338 C 
ATOM      3  F   UNL     1      -9.203  13.792  68.822  0.00  0.00    -0.197 F 
ATOM      4  F   UNL     1      -9.886  15.457  70.098  0.00  0.00    -0.197 F 
ATOM      5  C   UNL     1      -9.274  16.020  67.821  0.00  0.00    +0.247 C 
ATOM      6  O   UNL     1      -8.319  16.655  68.807  0.00  0.00    -0.214 OA
ATOM      7  C   UNL     1     -10.582  16.983  68.386  0.00  0.00    +0.186 C 
ATOM      8  O   UNL     1     -11.415  16.093  67.527  0.00  0.00    -0.328 OA
ENDROOT
BRANCH   1  14
ATOM      9  N   UNL     1     -13.049  12.401  63.812  0.00  0.00    -0.107 NA
ATOM     10  C   UNL     1     -12.132  12.672  64.822  0.00  0.00    +0.176 A 
ATOM     11  N   UNL     1     -12.036  12.033  65.995  0.00  0.00    -0.174 NA
ATOM     12  C   UNL     1     -11.795  12.735  67.136  0.00  0.00    +0.353 A 
ATOM     13  O   UNL     1     -11.645  12.097  68.224  0.00  0.00    -0.244 OA
ATOM     14  N   UNL     1     -11.186  13.954  67.061  0.00  0.00    -0.251 N 
ATOM     15  C   UNL     1     -11.129  14.483  65.889  0.00  0.00    +0.085 A 
ATOM     16  C   UNL     1     -11.386  13.839  64.718  0.00  0.00    +0.057 A 
ENDBRANCH   1  14
BRANCH   7  17
ATOM     17  C   UNL     1     -10.349  18.046  67.160  0.00  0.00    +0.214 C 
ATOM     18  O   UNL     1     -11.061  19.199  67.503  0.00  0.00    -0.218 OA
ENDBRANCH   7  17
TORSDOF 2
ENDMDL
MODEL 4
REMARK VINA RESULT:      -5.8      3.945      6.218
REMARK  Name = 
REMARK  2 active torsions:
REMARK  status: ('A' for Active; 'I' for Inactive)
REMARK    1  A    between atoms: N_5  and  C_6
REMARK    2  A    between atoms: C_8  and  C_9
REMARK                            x       y       z     vdW  Elec       q    Type
REMARK                         _______ _______ _______ _____ _____    ______ ____
ROOT
ATOM      1  C   UNL     1      -8.955  19.677  67.962  0.00  0.00    +0.274 C 
ATOM      2  C   UNL     1      -9.123  19.226  66.390  0.00  0.00    +0.338 C 
ATOM      3  F   UNL     1      -8.131  19.555  65.640  0.00  0.00    -0.197 F 
ATOM      4  F   UNL     1     -10.294  19.791  66.001  0.00  0.00    -0.197 F 
ATOM      5  C   UNL     1      -9.331  17.640  66.570  0.00  0.00    +0.247 C 
ATOM      6  O   UNL     1     -10.307  17.506  65.422  0.00  0.00    -0.214 OA
ATOM      7  C   UNL     1     -10.589  18.083  67.658  0.00  0.00    +0.186 C 
ATOM      8  O   UNL     1      -9.470  18.393  68.593  0.00  0.00    -0.328 OA
ENDROOT
BRANCH   1  14
ATOM      9  N   UNL     1      -4.515  18.752  70.938  0.00  0.00    -0.107 NA
ATOM     10  C   UNL     1      -5.221  18.847  69.744  0.00  0.00    +0.176 A 
ATOM     11  N   UNL     1      -5.391  19.956  69.012  0.00  0.00    -0.174 NA
ATOM     12  C   UNL     1      -6.598  20.216  68.437  0.00  0.00    +0.353 A 
ATOM     13  O   UNL     1      -6.711  21.240  67.696  0.00  0.00    -0.244 OA
ATOM     14  N   UNL     1      -7.458  19.187  68.184  0.00  0.00    -0.251 N 
ATOM     15  C   UNL     1      -7.183  18.069  68.759  0.00  0.00    +0.085 A 
ATOM     16  C   UNL     1      -6.008  17.764  69.373  0.00  0.00    +0.057 A 
ENDBRANCH   1  14
BRANCH   7  17
ATOM     17  C   UNL     1     -10.689  16.538  68.196  0.00  0.00    +0.214 C 
ATOM     18  O   UNL     1     -11.842  16.473  68.983  0.00  0.00    -0.218 OA
ENDBRANCH   7  17
TORSDOF 2
ENDMDL
MODEL 5
REMARK VINA RESULT:      -5.7      3.298      5.093
REMARK  Name = 
REMARK  2 active torsions:
REMARK  status: ('A' for Active; 'I' for Inactive)
REMARK    1  A    between atoms: N_5  and  C_6
REMARK    2  A    between atoms: C_8  and  C_9
REMARK                            x       y       z     vdW  Elec       q    Type
REMARK                         _______ _______ _______ _____ _____    ______ ____
ROOT
ATOM      1  C   UNL     1     -10.891  15.556  67.050  0.00  0.00    +0.274 C 
ATOM      2  C   UNL     1      -9.588  14.581  66.812  0.00  0.00    +0.338 C 
ATOM      3  F   UNL     1      -8.687  14.676  67.726  0.00  0.00    -0.197 F 
ATOM      4  F   UNL     1      -9.133  14.921  65.580  0.00  0.00    -0.197 F 
ATOM      5  C   UNL     1     -10.316  13.148  66.735  0.00  0.00    +0.247 C 
ATOM      6  O   UNL     1      -9.372  12.578  65.699  0.00  0.00    -0.214 OA
ATOM      7  C   UNL     1     -11.291  13.879  65.522  0.00  0.00    +0.186 C 
ATOM      8  O   UNL     1     -11.964  14.546  66.673  0.00  0.00    -0.328 OA
ENDROOT
BRANCH   1  14
ATOM      9  N   UNL     1     -13.755  15.668  71.654  0.00  0.00    -0.107 NA
ATOM     10  C   UNL     1     -12.609  15.436  70.901  0.00  0.00    +0.176 A 
ATOM     11  N   UNL     1     -11.658  16.335  70.610  0.00  0.00    -0.174 NA
ATOM     12  C   UNL     1     -11.106  16.365  69.367  0.00  0.00    +0.353 A 
ATOM     13  O   UNL     1     -10.162  17.183  69.139  0.00  0.00    -0.244 OA
ATOM     14  N   UNL     1     -11.135  15.244  68.590  0.00  0.00    -0.251 N 
ATOM     15  C   UNL     1     -11.930  14.309  68.980  0.00  0.00    +0.085 A 
ATOM     16  C   UNL     1     -12.532  14.241  70.198  0.00  0.00    +0.057 A 
ENDBRANCH   1  14
BRANCH   7  17
ATOM     17  C   UNL     1     -12.331  12.613  65.571  0.00  0.00    +0.214 C 
ATOM     18  O   UNL     1     -12.984  12.596  64.337  0.00  0.00    -0.218 OA
ENDBRANCH   7  17
TORSDOF 2
ENDMDL
MODEL 6
REMARK VINA RESULT:      -5.7      2.522      2.813
REMARK  Name = 
REMARK  2 active torsions:
REMARK  status: ('A' for Active; 'I' for Inactive)
REMARK    1  A    between atoms: N_5  and  C_6
REMARK    2  A    between atoms: C_8  and  C_9
REMARK                            x       y       z     vdW  Elec       q    Type
REMARK                         _______ _______ _______ _____ _____    ______ ____
ROOT
ATOM      1  C   UNL     1     -10.147  15.063  67.882  0.00  0.00    +0.274 C 
ATOM      2  C   UNL     1     -10.758  16.345  68.711  0.00  0.00    +0.338 C 
ATOM      3  F   UNL     1     -11.041  17.361  67.974  0.00  0.00    -0.197 F 
ATOM      4  F   UNL     1      -9.820  16.616  69.653  0.00  0.00    -0.197 F 
ATOM      5  C   UNL     1     -12.030  15.650  69.411  0.00  0.00    +0.247 C 
ATOM      6  O   UNL     1     -11.932  16.456  70.688  0.00  0.00    -0.214 OA
ATOM      7  C   UNL     1     -10.890  14.498  69.988  0.00  0.00    +0.186 C 
ATOM      8  O   UNL     1     -10.935  13.974  68.593  0.00  0.00    -0.328 OA
ENDROOT
BRANCH   1  14
ATOM      9  N   UNL     1     -12.323  13.045  63.342  0.00  0.00    -0.107 NA
ATOM     10  C   UNL     1     -12.166  14.010  64.331  0.00  0.00    +0.176 A 
ATOM     11  N   UNL     1     -11.269  15.005  64.331  0.00  0.00    -0.174 NA
ATOM     12  C   UNL     1     -10.623  15.341  65.482  0.00  0.00    +0.353 A 
ATOM     13  O   UNL     1      -9.826  16.329  65.466  0.00  0.00    -0.244 OA
ATOM     14  N   UNL     1     -11.193  15.042  66.685  0.00  0.00    -0.251 N 
ATOM     15  C   UNL     1     -12.176  14.212  66.651  0.00  0.00    +0.085 A 
ATOM     16  C   UNL     1     -12.840  13.818  65.531  0.00  0.00    +0.057 A 
ENDBRANCH   1  14
BRANCH   7  17
ATOM     17  C   UNL     1     -12.107  13.507  70.462  0.00  0.00    +0.214 C 
ATOM     18  O   UNL     1     -11.863  12.272  69.858  0.00  0.00    -0.218 OA
ENDBRANCH   7  17
TORSDOF 2
ENDMDL
MODEL 7
REMARK VINA RESULT:      -5.6      2.800      5.343
REMARK  Name = 
REMARK  2 active torsions:
REMARK  status: ('A' for Active; 'I' for Inactive)
REMARK    1  A    between atoms: N_5  and  C_6
REMARK    2  A    between atoms: C_8  and  C_9
REMARK                            x       y       z     vdW  Elec       q    Type
REMARK                         _______ _______ _______ _____ _____    ______ ____
ROOT
ATOM      1  C   UNL     1      -8.999  15.568  66.281  0.00  0.00    +0.274 C 
ATOM      2  C   UNL     1      -9.801  14.382  67.088  0.00  0.00    +0.338 C 
ATOM      3  F   UNL     1      -9.647  14.419  68.365  0.00  0.00    -0.197 F 
ATOM      4  F   UNL     1      -9.350  13.230  66.532  0.00  0.00    -0.197 F 
ATOM      5  C   UNL     1     -11.304  14.663  66.585  0.00  0.00    +0.247 C 
ATOM      6  O   UNL     1     -11.707  13.205  66.559  0.00  0.00    -0.214 OA
ATOM      7  C   UNL     1     -10.632  14.562  65.006  0.00  0.00    +0.186 C 
ATOM      8  O   UNL     1     -10.106  15.925  65.302  0.00  0.00    -0.328 OA
ENDROOT
BRANCH   1  14
ATOM      9  N   UNL     1      -9.327  20.836  67.529  0.00  0.00    -0.107 NA
ATOM     10  C   UNL     1      -9.445  19.478  67.802  0.00  0.00    +0.176 A 
ATOM     11  N   UNL     1      -8.476  18.677  68.265  0.00  0.00    -0.174 NA
ATOM     12  C   UNL     1      -8.340  17.415  67.772  0.00  0.00    +0.353 A 
ATOM     13  O   UNL     1      -7.454  16.657  68.274  0.00  0.00    -0.244 OA
ATOM     14  N   UNL     1      -9.414  16.796  67.202  0.00  0.00    -0.251 N 
ATOM     15  C   UNL     1     -10.416  17.554  66.919  0.00  0.00    +0.085 A 
ATOM     16  C   UNL     1     -10.591  18.829  67.359  0.00  0.00    +0.057 A 
ENDBRANCH   1  14
BRANCH   7  17
ATOM     17  C   UNL     1     -12.012  15.169  64.362  0.00  0.00    +0.214 C 
ATOM     18  O   UNL     1     -11.682  16.424  63.845  0.00  0.00    -0.218 OA
ENDBRANCH   7  17
TORSDOF 2
ENDMDL
MODEL 8
REMARK VINA RESULT:      -5.5      3.337      4.625
REMARK  Name = 
REMARK  2 active torsions:
REMARK  status: ('A' for Active; 'I' for Inactive)
REMARK    1  A    between atoms: N_5  and  C_6
REMARK    2  A    between atoms: C_8  and  C_9
REMARK                            x       y       z     vdW  Elec       q    Type
REMARK                         _______ _______ _______ _____ _____    ______ ____
ROOT
ATOM      1  C   UNL     1     -10.239  14.069  67.446  0.00  0.00    +0.274 C 
ATOM      2  C   UNL     1     -11.097  14.476  66.103  0.00  0.00    +0.338 C 
ATOM      3  F   UNL     1     -12.317  14.070  66.116  0.00  0.00    -0.197 F 
ATOM      4  F   UNL     1     -10.376  13.963  65.074  0.00  0.00    -0.197 F 
ATOM      5  C   UNL     1     -10.922  16.076  66.129  0.00  0.00    +0.247 C 
ATOM      6  O   UNL     1     -10.864  16.225  64.625  0.00  0.00    -0.214 OA
ATOM      7  C   UNL     1      -9.238  15.738  66.214  0.00  0.00    +0.186 C 
ATOM      8  O   UNL     1      -9.528  15.400  67.637  0.00  0.00    -0.328 OA
ENDROOT
BRANCH   1  14
ATOM      9  N   UNL     1     -11.917  15.038  72.512  0.00  0.00    -0.107 NA
ATOM     10  C   UNL     1     -12.106  14.855  71.147  0.00  0.00    +0.176 A 
ATOM     11  N   UNL     1     -12.300  13.684  70.525  0.00  0.00    -0.174 NA
ATOM     12  C   UNL     1     -11.697  13.439  69.329  0.00  0.00    +0.353 A 
ATOM     13  O   UNL     1     -11.951  12.348  68.732  0.00  0.00    -0.244 OA
ATOM     14  N   UNL     1     -11.315  14.485  68.542  0.00  0.00    -0.251 N 
ATOM     15  C   UNL     1     -11.300  15.641  69.108  0.00  0.00    +0.085 A 
ATOM     16  C   UNL     1     -11.860  15.938  70.312  0.00  0.00    +0.057 A 
ENDBRANCH   1  14
BRANCH   7  17
ATOM     17  C   UNL     1      -8.926  17.303  66.588  0.00  0.00    +0.214 C 
ATOM     18  O   UNL     1      -7.884  17.705  65.750  0.00  0.00    -0.218 OA
ENDBRANCH   7  17
TORSDOF 2
ENDMDL
MODEL 9
REMARK VINA RESULT:      -5.5      4.078      5.846
REMARK  Name = 
REMARK  2 active torsions:
REMARK  status: ('A' for Active; 'I' for Inactive)
REMARK    1  A    between atoms: N_5  and  C_6
REMARK    2  A    between atoms: C_8  and  C_9
REMARK                            x       y       z     vdW  Elec       q    Type
REMARK                         _______ _______ _______ _____ _____    ______ ____
ROOT
ATOM      1  C   UNL     1     -11.804  12.474  67.203  0.00  0.00    +0.274 C 
ATOM      2  C   UNL     1     -10.668  13.630  66.924  0.00  0.00    +0.338 C 
ATOM      3  F   UNL     1      -9.623  13.531  67.668  0.00  0.00    -0.197 F 
ATOM      4  F   UNL     1     -11.332  14.802  67.094  0.00  0.00    -0.197 F 
ATOM      5  C   UNL     1     -10.400  13.393  65.355  0.00  0.00    +0.247 C 
ATOM      6  O   UNL     1     -10.179  14.855  65.038  0.00  0.00    -0.214 OA
ATOM      7  C   UNL     1     -12.104  13.560  65.194  0.00  0.00    +0.186 C 
ATOM      8  O   UNL     1     -12.145  12.178  65.751  0.00  0.00    -0.328 OA
ENDROOT
BRANCH   1  14
ATOM      9  N   UNL     1     -10.722   7.163  67.015  0.00  0.00    -0.107 NA
ATOM     10  C   UNL     1     -10.397   8.497  67.233  0.00  0.00    +0.176 A 
ATOM     11  N   UNL     1     -10.548   9.171  68.381  0.00  0.00    -0.174 NA
ATOM     12  C   UNL     1     -10.999  10.455  68.363  0.00  0.00    +0.353 A 
ATOM     13  O   UNL     1     -11.071  11.090  69.460  0.00  0.00    -0.244 OA
ATOM     14  N   UNL     1     -10.841  11.209  67.237  0.00  0.00    -0.251 N 
ATOM     15  C   UNL     1     -10.521  10.565  66.168  0.00  0.00    +0.085 A 
ATOM     16  C   UNL     1     -10.092   9.275  66.123  0.00  0.00    +0.057 A 
ENDBRANCH   1  14
BRANCH   7  17
ATOM     17  C   UNL     1     -12.030  13.002  63.654  0.00  0.00    +0.214 C 
ATOM     18  O   UNL     1     -13.085  12.097  63.516  0.00  0.00    -0.218 OA
ENDBRANCH   7  17
TORSDOF 2
ENDMDL
