MODEL 1
REMARK VINA RESULT:      -3.3      0.000      0.000
REMARK  Name = 
REMARK  2 active torsions:
REMARK  status: ('A' for Active; 'I' for Inactive)
REMARK    1  A    between atoms: C_2  and  C_3
REMARK    2  A    between atoms: C_3  and  C_5
REMARK                            x       y       z     vdW  Elec       q    Type
REMARK                         _______ _______ _______ _____ _____    ______ ____
ROOT
ATOM      1  C   UNL     1     -13.289  15.732  72.944  0.00  0.00    +0.102 C 
ATOM      2  S   UNL     1     -13.565  13.938  72.373  0.00  0.00    -0.079 S 
ENDROOT
BRANCH   1   4
ATOM      3  O   UNL     1     -12.467  16.337  75.096  0.00  0.00    -0.219 OA
ATOM      4  C   UNL     1     -12.425  15.324  74.215  0.00  0.00    +0.195 C 
ENDBRANCH   1   4
BRANCH   1   5
ATOM      5  C   UNL     1     -12.040  16.091  72.039  0.00  0.00    +0.083 C 
ATOM      6  S   UNL     1     -12.207  15.600  70.362  0.00  0.00    -0.081 S 
ENDBRANCH   1   5
TORSDOF 2
ENDMDL
MODEL 2
REMARK VINA RESULT:      -3.0      2.462      2.886
REMARK  Name = 
REMARK  2 active torsions:
REMARK  status: ('A' for Active; 'I' for Inactive)
REMARK    1  A    between atoms: C_2  and  C_3
REMARK    2  A    between atoms: C_3  and  C_5
REMARK                            x       y       z     vdW  Elec       q    Type
REMARK                         _______ _______ _______ _____ _____    ______ ____
ROOT
ATOM      1  C   UNL     1     -12.970  15.578  71.054  0.00  0.00    +0.102 C 
ATOM      2  S   UNL     1     -12.370  13.788  70.819  0.00  0.00    -0.079 S 
ENDROOT
BRANCH   1   4
ATOM      3  O   UNL     1     -15.325  15.555  71.409  0.00  0.00    -0.219 OA
ATOM      4  C   UNL     1     -14.182  15.177  72.003  0.00  0.00    +0.195 C 
ENDBRANCH   1   4
BRANCH   1   5
ATOM      5  C   UNL     1     -12.008  16.011  72.234  0.00  0.00    +0.083 C 
ATOM      6  S   UNL     1     -12.488  15.399  73.809  0.00  0.00    -0.081 S 
ENDBRANCH   1   5
TORSDOF 2
ENDMDL
MODEL 3
REMARK VINA RESULT:      -3.0      7.912      8.509
REMARK  Name = 
REMARK  2 active torsions:
REMARK  status: ('A' for Active; 'I' for Inactive)
REMARK    1  A    between atoms: C_2  and  C_3
REMARK    2  A    between atoms: C_3  and  C_5
REMARK                            x       y       z     vdW  Elec       q    Type
REMARK                         _______ _______ _______ _____ _____    ______ ____
ROOT
ATOM      1  C   UNL     1     -11.932  14.512  64.909  0.00  0.00    +0.102 C 
ATOM      2  S   UNL     1     -11.926  14.231  66.791  0.00  0.00    -0.079 S 
ENDROOT
BRANCH   1   4
ATOM      3  O   UNL     1     -11.341  16.711  64.211  0.00  0.00    -0.219 OA
ATOM      4  C   UNL     1     -10.874  15.699  64.960  0.00  0.00    +0.195 C 
ENDBRANCH   1   4
BRANCH   1   5
ATOM      5  C   UNL     1     -10.878  13.408  64.489  0.00  0.00    +0.083 C 
ATOM      6  S   UNL     1     -11.563  12.078  63.570  0.00  0.00    -0.081 S 
ENDBRANCH   1   5
TORSDOF 2
ENDMDL
MODEL 4
REMARK VINA RESULT:      -3.0      1.248      2.045
REMARK  Name = 
REMARK  2 active torsions:
REMARK  status: ('A' for Active; 'I' for Inactive)
REMARK    1  A    between atoms: C_2  and  C_3
REMARK    2  A    between atoms: C_3  and  C_5
REMARK                            x       y       z     vdW  Elec       q    Type
REMARK                         _______ _______ _______ _____ _____    ______ ____
ROOT
ATOM      1  C   UNL     1     -12.095  14.908  72.965  0.00  0.00    +0.102 C 
ATOM      2  S   UNL     1     -11.838  15.853  71.335  0.00  0.00    -0.079 S 
ENDROOT
BRANCH   1   4
ATOM      3  O   UNL     1     -12.501  16.199  74.924  0.00  0.00    -0.219 OA
ATOM      4  C   UNL     1     -12.923  16.077  73.655  0.00  0.00    +0.195 C 
ENDBRANCH   1   4
BRANCH   1   5
ATOM      5  C   UNL     1     -13.369  14.058  72.562  0.00  0.00    +0.083 C 
ATOM      6  S   UNL     1     -14.598  14.973  71.706  0.00  0.00    -0.081 S 
ENDBRANCH   1   5
TORSDOF 2
ENDMDL
MODEL 5
REMARK VINA RESULT:      -2.9      2.031      2.181
REMARK  Name = 
REMARK  2 active torsions:
REMARK  status: ('A' for Active; 'I' for Inactive)
REMARK    1  A    between atoms: C_2  and  C_3
REMARK    2  A    between atoms: C_3  and  C_5
REMARK                            x       y       z     vdW  Elec       q    Type
REMARK                         _______ _______ _______ _____ _____    ______ ____
ROOT
ATOM      1  C   UNL     1     -12.470  14.719  72.002  0.00  0.00    +0.102 C 
ATOM      2  S   UNL     1     -12.515  15.430  73.766  0.00  0.00    -0.079 S 
ENDROOT
BRANCH   1   4
ATOM      3  O   UNL     1     -14.364  16.049  72.563  0.00  0.00    -0.219 OA
ATOM      4  C   UNL     1     -13.968  15.131  71.666  0.00  0.00    +0.195 C 
ENDBRANCH   1   4
BRANCH   1   5
ATOM      5  C   UNL     1     -11.817  15.951  71.253  0.00  0.00    +0.083 C 
ATOM      6  S   UNL     1     -11.718  15.759  69.511  0.00  0.00    -0.081 S 
ENDBRANCH   1   5
TORSDOF 2
ENDMDL
MODEL 6
REMARK VINA RESULT:      -2.8      2.697      3.255
REMARK  Name = 
REMARK  2 active torsions:
REMARK  status: ('A' for Active; 'I' for Inactive)
REMARK    1  A    between atoms: C_2  and  C_3
REMARK    2  A    between atoms: C_3  and  C_5
REMARK                            x       y       z     vdW  Elec       q    Type
REMARK                         _______ _______ _______ _____ _____    ______ ____
ROOT
ATOM      1  C   UNL     1     -11.986  14.755  71.565  0.00  0.00    +0.102 C 
ATOM      2  S   UNL     1     -13.491  13.829  72.269  0.00  0.00    -0.079 S 
ENDROOT
BRANCH   1   4
ATOM      3  O   UNL     1     -11.968  16.228  69.694  0.00  0.00    -0.219 OA
ATOM      4  C   UNL     1     -12.797  15.411  70.364  0.00  0.00    +0.195 C 
ENDBRANCH   1   4
BRANCH   1   5
ATOM      5  C   UNL     1     -12.034  16.044  72.483  0.00  0.00    +0.083 C 
ATOM      6  S   UNL     1     -12.514  15.723  74.141  0.00  0.00    -0.081 S 
ENDBRANCH   1   5
TORSDOF 2
ENDMDL
MODEL 7
REMARK VINA RESULT:      -2.8      7.526      8.041
REMARK  Name = 
REMARK  2 active torsions:
REMARK  status: ('A' for Active; 'I' for Inactive)
REMARK    1  A    between atoms: C_2  and  C_3
REMARK    2  A    between atoms: C_3  and  C_5
REMARK                            x       y       z     vdW  Elec       q    Type
REMARK                         _______ _______ _______ _____ _____    ______ ____
ROOT
ATOM      1  C   UNL     1     -10.645  14.500  64.870  0.00  0.00    +0.102 C 
ATOM      2  S   UNL     1     -12.404  13.990  65.384  0.00  0.00    -0.079 S 
ENDROOT
BRANCH   1   4
ATOM      3  O   UNL     1     -11.570  16.489  63.943  0.00  0.00    -0.219 OA
ATOM      4  C   UNL     1     -10.916  16.058  65.034  0.00  0.00    +0.195 C 
ENDBRANCH   1   4
BRANCH   1   5
ATOM      5  C   UNL     1      -9.921  14.339  66.269  0.00  0.00    +0.083 C 
ATOM      6  S   UNL     1     -10.550  15.392  67.526  0.00  0.00    -0.081 S 
ENDBRANCH   1   5
TORSDOF 2
ENDMDL
MODEL 8
REMARK VINA RESULT:      -2.7      6.970      7.817
REMARK  Name = 
REMARK  2 active torsions:
REMARK  status: ('A' for Active; 'I' for Inactive)
REMARK    1  A    between atoms: C_2  and  C_3
REMARK    2  A    between atoms: C_3  and  C_5
REMARK                            x       y       z     vdW  Elec       q    Type
REMARK                         _______ _______ _______ _____ _____    ______ ____
ROOT
ATOM      1  C   UNL     1     -10.493  16.377  66.488  0.00  0.00    +0.102 C 
ATOM      2  S   UNL     1      -8.607  16.241  66.281  0.00  0.00    -0.079 S 
ENDROOT
BRANCH   1   4
ATOM      3  O   UNL     1     -11.259  16.855  64.284  0.00  0.00    -0.219 OA
ATOM      4  C   UNL     1     -10.816  15.830  65.030  0.00  0.00    +0.195 C 
ENDBRANCH   1   4
BRANCH   1   5
ATOM      5  C   UNL     1     -10.764  14.997  67.215  0.00  0.00    +0.083 C 
ATOM      6  S   UNL     1     -12.012  14.022  66.458  0.00  0.00    -0.081 S 
ENDBRANCH   1   5
TORSDOF 2
ENDMDL
MODEL 9
REMARK VINA RESULT:      -2.7      8.369      9.002
REMARK  Name = 
REMARK  2 active torsions:
REMARK  status: ('A' for Active; 'I' for Inactive)
REMARK    1  A    between atoms: C_2  and  C_3
REMARK    2  A    between atoms: C_3  and  C_5
REMARK                            x       y       z     vdW  Elec       q    Type
REMARK                         _______ _______ _______ _____ _____    ______ ____
ROOT
ATOM      1  C   UNL     1     -12.134  12.534  65.208  0.00  0.00    +0.102 C 
ATOM      2  S   UNL     1     -10.441  12.915  65.988  0.00  0.00    -0.079 S 
ENDROOT
BRANCH   1   4
ATOM      3  O   UNL     1     -12.623  14.471  63.912  0.00  0.00    -0.219 OA
ATOM      4  C   UNL     1     -12.604  14.053  65.188  0.00  0.00    +0.195 C 
ENDBRANCH   1   4
BRANCH   1   5
ATOM      5  C   UNL     1     -11.705  12.504  63.684  0.00  0.00    +0.083 C 
ATOM      6  S   UNL     1     -10.227  11.608  63.374  0.00  0.00    -0.081 S 
ENDBRANCH   1   5
TORSDOF 2
ENDMDL
