MODEL 1
REMARK VINA RESULT:      -5.8      0.000      0.000
REMARK  Name = 
REMARK  5 active torsions:
REMARK  status: ('A' for Active; 'I' for Inactive)
REMARK    1  A    between atoms: N_2  and  C_4
REMARK    2  A    between atoms: C_4  and  C_5
REMARK    3  A    between atoms: C_5  and  C_6
REMARK    4  A    between atoms: C_6  and  C_7
REMARK    5  A    between atoms: C_6  and  C_14
REMARK                            x       y       z     vdW  Elec       q    Type
REMARK                         _______ _______ _______ _____ _____    ______ ____
ROOT
ATOM      1  C   UNL     1     -11.992  15.793  69.172  0.00  0.00    +0.064 C 
ENDROOT
BRANCH   1   2
ATOM      2  C   UNL     1     -11.925  14.216  68.771  0.00  0.00    -0.017 A 
ATOM      3  C   UNL     1     -11.969  13.958  67.427  0.00  0.00    -0.003 A 
ATOM      4  C   UNL     1     -11.780  12.629  67.061  0.00  0.00    +0.011 A 
ATOM      5  C   UNL     1     -11.572  11.658  68.034  0.00  0.00    +0.058 A 
ATOM      6 CL   UNL     1     -10.961  10.058  67.619  0.00  0.00    -0.082 Cl
ATOM      7  C   UNL     1     -11.709  11.983  69.378  0.00  0.00    +0.011 A 
ATOM      8  C   UNL     1     -11.771  13.318  69.762  0.00  0.00    -0.003 A 
ENDBRANCH   1   2
BRANCH   1   9
ATOM      9  C   UNL     1     -12.452  15.461  70.708  0.00  0.00    +0.063 A 
ATOM     10  N   UNL     1     -13.782  15.511  70.882  0.00  0.00    -0.248 NA
ATOM     11  C   UNL     1     -14.215  15.294  72.149  0.00  0.00    +0.098 A 
ATOM     12  C   UNL     1     -13.301  15.261  73.196  0.00  0.00    +0.021 A 
ATOM     13  C   UNL     1     -12.102  15.927  72.973  0.00  0.00    +0.003 A 
ATOM     14  C   UNL     1     -11.678  16.088  71.658  0.00  0.00    +0.015 A 
ENDBRANCH   1   9
BRANCH   1  15
ATOM     15  C   UNL     1     -10.383  15.835  69.612  0.00  0.00    +0.028 C 
BRANCH  15  16
ATOM     16  C   UNL     1      -9.792  16.928  68.763  0.00  0.00    +0.073 C 
BRANCH  16  18
ATOM     17  C   UNL     1      -8.616  15.585  67.292  0.00  0.00    +0.090 C 
ATOM     18  N   UNL     1      -9.432  16.459  67.455  0.00  0.00    -0.270 NA
ATOM     19  C   UNL     1      -9.933  17.259  66.378  0.00  0.00    +0.090 C 
ENDBRANCH  16  18
ENDBRANCH  15  16
ENDBRANCH   1  15
TORSDOF 5
ENDMDL
MODEL 2
REMARK VINA RESULT:      -5.7      1.650      4.770
REMARK  Name = 
REMARK  5 active torsions:
REMARK  status: ('A' for Active; 'I' for Inactive)
REMARK    1  A    between atoms: N_2  and  C_4
REMARK    2  A    between atoms: C_4  and  C_5
REMARK    3  A    between atoms: C_5  and  C_6
REMARK    4  A    between atoms: C_6  and  C_7
REMARK    5  A    between atoms: C_6  and  C_14
REMARK                            x       y       z     vdW  Elec       q    Type
REMARK                         _______ _______ _______ _____ _____    ______ ____
ROOT
ATOM      1  C   UNL     1     -10.554  14.477  68.607  0.00  0.00    +0.064 C 
ENDROOT
BRANCH   1   2
ATOM      2  C   UNL     1     -11.194  13.684  67.335  0.00  0.00    -0.017 A 
ATOM      3  C   UNL     1     -12.178  14.361  66.668  0.00  0.00    -0.003 A 
ATOM      4  C   UNL     1     -12.642  13.757  65.503  0.00  0.00    +0.011 A 
ATOM      5  C   UNL     1     -12.115  12.539  65.088  0.00  0.00    +0.058 A 
ATOM      6 CL   UNL     1     -12.387  11.929  63.457  0.00  0.00    -0.082 Cl
ATOM      7  C   UNL     1     -11.239  11.846  65.915  0.00  0.00    +0.011 A 
ATOM      8  C   UNL     1     -10.672  12.487  67.011  0.00  0.00    -0.003 A 
ENDBRANCH   1   2
BRANCH   1   9
ATOM      9  C   UNL     1     -10.225  15.806  67.710  0.00  0.00    +0.063 A 
ATOM     10  N   UNL     1      -9.018  15.760  67.124  0.00  0.00    -0.248 NA
ATOM     11  C   UNL     1      -8.673  16.860  66.410  0.00  0.00    +0.098 A 
ATOM     12  C   UNL     1      -9.441  18.014  66.501  0.00  0.00    +0.021 A 
ATOM     13  C   UNL     1     -10.201  18.144  67.658  0.00  0.00    +0.003 A 
ATOM     14  C   UNL     1     -10.568  16.985  68.333  0.00  0.00    +0.015 A 
ENDBRANCH   1   9
BRANCH   1  15
ATOM     15  C   UNL     1     -12.034  15.097  69.070  0.00  0.00    +0.028 C 
BRANCH  15  16
ATOM     16  C   UNL     1     -12.331  14.416  70.379  0.00  0.00    +0.073 C 
BRANCH  16  18
ATOM     17  C   UNL     1     -11.995  16.081  71.950  0.00  0.00    +0.090 C 
ATOM     18  N   UNL     1     -12.766  15.345  71.383  0.00  0.00    -0.270 NA
ATOM     19  C   UNL     1     -14.119  15.164  71.814  0.00  0.00    +0.090 C 
ENDBRANCH  16  18
ENDBRANCH  15  16
ENDBRANCH   1  15
TORSDOF 5
ENDMDL
MODEL 3
REMARK VINA RESULT:      -5.7      2.557      5.535
REMARK  Name = 
REMARK  5 active torsions:
REMARK  status: ('A' for Active; 'I' for Inactive)
REMARK    1  A    between atoms: N_2  and  C_4
REMARK    2  A    between atoms: C_4  and  C_5
REMARK    3  A    between atoms: C_5  and  C_6
REMARK    4  A    between atoms: C_6  and  C_7
REMARK    5  A    between atoms: C_6  and  C_14
REMARK                            x       y       z     vdW  Elec       q    Type
REMARK                         _______ _______ _______ _____ _____    ______ ____
ROOT
ATOM      1  C   UNL     1     -11.863  15.733  69.352  0.00  0.00    +0.064 C 
ENDROOT
BRANCH   1   2
ATOM      2  C   UNL     1     -10.389  16.319  68.979  0.00  0.00    -0.017 A 
ATOM      3  C   UNL     1     -10.389  17.557  68.395  0.00  0.00    -0.003 A 
ATOM      4  C   UNL     1      -9.137  18.128  68.192  0.00  0.00    +0.011 A 
ATOM      5  C   UNL     1      -7.986  17.443  68.566  0.00  0.00    +0.058 A 
ATOM      6 CL   UNL     1      -6.428  18.260  68.680  0.00  0.00    -0.082 Cl
ATOM      7  C   UNL     1      -8.073  16.125  68.998  0.00  0.00    +0.011 A 
ATOM      8  C   UNL     1      -9.313  15.587  69.326  0.00  0.00    -0.003 A 
ENDBRANCH   1   2
BRANCH   1   9
ATOM      9  C   UNL     1     -11.566  14.304  68.609  0.00  0.00    +0.063 A 
ATOM     10  N   UNL     1     -12.000  14.270  67.339  0.00  0.00    -0.248 NA
ATOM     11  C   UNL     1     -11.826  13.092  66.693  0.00  0.00    +0.098 A 
ATOM     12  C   UNL     1     -11.438  11.962  67.404  0.00  0.00    +0.021 A 
ATOM     13  C   UNL     1     -11.727  11.976  68.764  0.00  0.00    +0.003 A 
ATOM     14  C   UNL     1     -11.855  13.210  69.393  0.00  0.00    +0.015 A 
ENDBRANCH   1   9
BRANCH   1  15
ATOM     15  C   UNL     1     -11.344  15.132  70.820  0.00  0.00    +0.028 C 
BRANCH  15  16
ATOM     16  C   UNL     1     -12.099  15.938  71.842  0.00  0.00    +0.073 C 
BRANCH  16  18
ATOM     17  C   UNL     1     -13.426  14.205  72.605  0.00  0.00    +0.090 C 
ATOM     18  N   UNL     1     -12.673  15.111  72.864  0.00  0.00    -0.270 NA
ATOM     19  C   UNL     1     -12.469  15.589  74.199  0.00  0.00    +0.090 C 
ENDBRANCH  16  18
ENDBRANCH  15  16
ENDBRANCH   1  15
TORSDOF 5
ENDMDL
MODEL 4
REMARK VINA RESULT:      -5.5      2.597      4.855
REMARK  Name = 
REMARK  5 active torsions:
REMARK  status: ('A' for Active; 'I' for Inactive)
REMARK    1  A    between atoms: N_2  and  C_4
REMARK    2  A    between atoms: C_4  and  C_5
REMARK    3  A    between atoms: C_5  and  C_6
REMARK    4  A    between atoms: C_6  and  C_7
REMARK    5  A    between atoms: C_6  and  C_14
REMARK                            x       y       z     vdW  Elec       q    Type
REMARK                         _______ _______ _______ _____ _____    ______ ____
ROOT
ATOM      1  C   UNL     1     -10.000  14.595  67.878  0.00  0.00    +0.064 C 
ENDROOT
BRANCH   1   2
ATOM      2  C   UNL     1     -11.116  14.561  69.064  0.00  0.00    -0.017 A 
ATOM      3  C   UNL     1     -11.479  13.309  69.481  0.00  0.00    -0.003 A 
ATOM      4  C   UNL     1     -12.330  13.262  70.580  0.00  0.00    +0.011 A 
ATOM      5  C   UNL     1     -12.765  14.439  71.179  0.00  0.00    +0.058 A 
ATOM      6 CL   UNL     1     -13.520  14.434  72.772  0.00  0.00    -0.082 Cl
ATOM      7  C   UNL     1     -12.480  15.664  70.588  0.00  0.00    +0.011 A 
ATOM      8  C   UNL     1     -11.534  15.736  69.572  0.00  0.00    -0.003 A 
ENDBRANCH   1   2
BRANCH   1   9
ATOM      9  C   UNL     1     -10.938  13.715  66.866  0.00  0.00    +0.063 A 
ATOM     10  N   UNL     1     -10.234  12.875  66.091  0.00  0.00    -0.248 NA
ATOM     11  C   UNL     1     -10.958  12.158  65.196  0.00  0.00    +0.098 A 
ATOM     12  C   UNL     1     -12.293  12.475  64.974  0.00  0.00    +0.021 A 
ATOM     13  C   UNL     1     -12.666  13.776  65.290  0.00  0.00    +0.003 A 
ATOM     14  C   UNL     1     -11.919  14.456  66.246  0.00  0.00    +0.015 A 
ENDBRANCH   1   9
BRANCH   1  15
ATOM     15  C   UNL     1     -10.587  16.028  67.254  0.00  0.00    +0.028 C 
BRANCH  15  16
ATOM     16  C   UNL     1      -9.354  16.837  66.954  0.00  0.00    +0.073 C 
BRANCH  16  18
ATOM     17  C   UNL     1      -8.601  18.460  68.419  0.00  0.00    +0.090 C 
ATOM     18  N   UNL     1      -9.395  18.131  67.572  0.00  0.00    -0.270 NA
ATOM     19  C   UNL     1     -10.571  18.894  67.277  0.00  0.00    +0.090 C 
ENDBRANCH  16  18
ENDBRANCH  15  16
ENDBRANCH   1  15
TORSDOF 5
ENDMDL
MODEL 5
REMARK VINA RESULT:      -5.4      2.714      4.283
REMARK  Name = 
REMARK  5 active torsions:
REMARK  status: ('A' for Active; 'I' for Inactive)
REMARK    1  A    between atoms: N_2  and  C_4
REMARK    2  A    between atoms: C_4  and  C_5
REMARK    3  A    between atoms: C_5  and  C_6
REMARK    4  A    between atoms: C_6  and  C_7
REMARK    5  A    between atoms: C_6  and  C_14
REMARK                            x       y       z     vdW  Elec       q    Type
REMARK                         _______ _______ _______ _____ _____    ______ ____
ROOT
ATOM      1  C   UNL     1     -10.898  14.216  69.544  0.00  0.00    +0.064 C 
ENDROOT
BRANCH   1   2
ATOM      2  C   UNL     1     -10.128  15.608  69.191  0.00  0.00    -0.017 A 
ATOM      3  C   UNL     1      -8.761  15.537  69.226  0.00  0.00    -0.003 A 
ATOM      4  C   UNL     1      -8.088  16.678  68.799  0.00  0.00    +0.011 A 
ATOM      5  C   UNL     1      -8.800  17.796  68.381  0.00  0.00    +0.058 A 
ATOM      6 CL   UNL     1      -8.020  19.102  67.491  0.00  0.00    -0.082 Cl
ATOM      7  C   UNL     1     -10.180  17.837  68.537  0.00  0.00    +0.011 A 
ATOM      8  C   UNL     1     -10.875  16.670  68.838  0.00  0.00    -0.003 A 
ENDBRANCH   1   2
BRANCH   1   9
ATOM      9  C   UNL     1     -11.876  14.945  70.635  0.00  0.00    +0.063 A 
ATOM     10  N   UNL     1     -11.271  15.182  71.810  0.00  0.00    -0.248 NA
ATOM     11  C   UNL     1     -12.052  15.738  72.768  0.00  0.00    +0.098 A 
ATOM     12  C   UNL     1     -13.426  15.823  72.579  0.00  0.00    +0.021 A 
ATOM     13  C   UNL     1     -13.969  14.914  71.678  0.00  0.00    +0.003 A 
ATOM     14  C   UNL     1     -13.140  14.402  70.686  0.00  0.00    +0.015 A 
ENDBRANCH   1   9
BRANCH   1  15
ATOM     15  C   UNL     1     -12.018  14.430  68.324  0.00  0.00    +0.028 C 
BRANCH  15  16
ATOM     16  C   UNL     1     -11.771  13.281  67.384  0.00  0.00    +0.073 C 
BRANCH  16  18
ATOM     17  C   UNL     1     -11.289  14.772  65.683  0.00  0.00    +0.090 C 
ATOM     18  N   UNL     1     -11.742  13.703  66.013  0.00  0.00    -0.270 NA
ATOM     19  C   UNL     1     -12.492  12.873  65.119  0.00  0.00    +0.090 C 
ENDBRANCH  16  18
ENDBRANCH  15  16
ENDBRANCH   1  15
TORSDOF 5
ENDMDL
MODEL 6
REMARK VINA RESULT:      -5.3      2.596      5.271
REMARK  Name = 
REMARK  5 active torsions:
REMARK  status: ('A' for Active; 'I' for Inactive)
REMARK    1  A    between atoms: N_2  and  C_4
REMARK    2  A    between atoms: C_4  and  C_5
REMARK    3  A    between atoms: C_5  and  C_6
REMARK    4  A    between atoms: C_6  and  C_7
REMARK    5  A    between atoms: C_6  and  C_14
REMARK                            x       y       z     vdW  Elec       q    Type
REMARK                         _______ _______ _______ _____ _____    ______ ____
ROOT
ATOM      1  C   UNL     1     -11.585  14.643  67.010  0.00  0.00    +0.064 C 
ENDROOT
BRANCH   1   2
ATOM      2  C   UNL     1     -11.786  14.576  68.626  0.00  0.00    -0.017 A 
ATOM      3  C   UNL     1     -11.797  15.790  69.259  0.00  0.00    -0.003 A 
ATOM      4  C   UNL     1     -12.098  15.759  70.616  0.00  0.00    +0.011 A 
ATOM      5  C   UNL     1     -12.358  14.549  71.249  0.00  0.00    +0.058 A 
ATOM      6 CL   UNL     1     -13.103  14.488  72.845  0.00  0.00    -0.082 Cl
ATOM      7  C   UNL     1     -12.162  13.354  70.567  0.00  0.00    +0.011 A 
ATOM      8  C   UNL     1     -11.986  13.369  69.187  0.00  0.00    -0.003 A 
ENDBRANCH   1   2
BRANCH   1   9
ATOM      9  C   UNL     1     -10.029  15.133  67.148  0.00  0.00    +0.063 A 
ATOM     10  N   UNL     1      -9.683  16.053  66.233  0.00  0.00    -0.248 NA
ATOM     11  C   UNL     1      -8.390  16.456  66.269  0.00  0.00    +0.098 A 
ATOM     12  C   UNL     1      -7.472  15.770  67.056  0.00  0.00    +0.021 A 
ATOM     13  C   UNL     1      -7.801  14.454  67.360  0.00  0.00    +0.003 A 
ATOM     14  C   UNL     1      -9.146  14.098  67.352  0.00  0.00    +0.015 A 
ENDBRANCH   1   9
BRANCH   1  15
ATOM     15  C   UNL     1     -11.123  13.042  66.918  0.00  0.00    +0.028 C 
BRANCH  15  16
ATOM     16  C   UNL     1     -12.005  12.459  65.847  0.00  0.00    +0.073 C 
BRANCH  16  18
ATOM     17  C   UNL     1     -10.131  11.741  64.698  0.00  0.00    +0.090 C 
ATOM     18  N   UNL     1     -11.270  12.140  64.658  0.00  0.00    -0.270 NA
ATOM     19  C   UNL     1     -11.902  12.550  63.440  0.00  0.00    +0.090 C 
ENDBRANCH  16  18
ENDBRANCH  15  16
ENDBRANCH   1  15
TORSDOF 5
ENDMDL
MODEL 7
REMARK VINA RESULT:      -5.2      2.573      4.980
REMARK  Name = 
REMARK  5 active torsions:
REMARK  status: ('A' for Active; 'I' for Inactive)
REMARK    1  A    between atoms: N_2  and  C_4
REMARK    2  A    between atoms: C_4  and  C_5
REMARK    3  A    between atoms: C_5  and  C_6
REMARK    4  A    between atoms: C_6  and  C_7
REMARK    5  A    between atoms: C_6  and  C_14
REMARK                            x       y       z     vdW  Elec       q    Type
REMARK                         _______ _______ _______ _____ _____    ______ ____
ROOT
ATOM      1  C   UNL     1     -12.098  15.007  68.922  0.00  0.00    +0.064 C 
ENDROOT
BRANCH   1   2
ATOM      2  C   UNL     1     -12.362  15.226  70.515  0.00  0.00    -0.017 A 
ATOM      3  C   UNL     1     -13.200  14.312  71.094  0.00  0.00    -0.003 A 
ATOM      4  C   UNL     1     -13.332  14.405  72.476  0.00  0.00    +0.011 A 
ATOM      5  C   UNL     1     -12.642  15.385  73.180  0.00  0.00    +0.058 A 
ATOM      6 CL   UNL     1     -12.476  15.310  74.933  0.00  0.00    -0.082 Cl
ATOM      7  C   UNL     1     -11.946  16.372  72.493  0.00  0.00    +0.011 A 
ATOM      8  C   UNL     1     -11.700  16.223  71.133  0.00  0.00    -0.003 A 
ENDBRANCH   1   2
BRANCH   1   9
ATOM      9  C   UNL     1     -10.833  16.046  68.911  0.00  0.00    +0.063 A 
ATOM     10  N   UNL     1     -11.061  17.147  68.178  0.00  0.00    -0.248 NA
ATOM     11  C   UNL     1     -10.026  18.018  68.092  0.00  0.00    +0.098 A 
ATOM     12  C   UNL     1      -8.768  17.645  68.550  0.00  0.00    +0.021 A 
ATOM     13  C   UNL     1      -8.526  16.277  68.605  0.00  0.00    +0.003 A 
ATOM     14  C   UNL     1      -9.617  15.425  68.736  0.00  0.00    +0.015 A 
ENDBRANCH   1   9
BRANCH   1  15
ATOM     15  C   UNL     1     -11.088  13.704  69.184  0.00  0.00    +0.028 C 
BRANCH  15  16
ATOM     16  C   UNL     1     -11.700  12.589  68.379  0.00  0.00    +0.073 C 
BRANCH  16  18
ATOM     17  C   UNL     1     -11.856  12.583  66.072  0.00  0.00    +0.090 C 
ATOM     18  N   UNL     1     -11.157  12.521  67.053  0.00  0.00    -0.270 NA
ATOM     19  C   UNL     1      -9.776  12.143  66.995  0.00  0.00    +0.090 C 
ENDBRANCH  16  18
ENDBRANCH  15  16
ENDBRANCH   1  15
TORSDOF 5
ENDMDL
MODEL 8
REMARK VINA RESULT:      -5.2      2.569      5.193
REMARK  Name = 
REMARK  5 active torsions:
REMARK  status: ('A' for Active; 'I' for Inactive)
REMARK    1  A    between atoms: N_2  and  C_4
REMARK    2  A    between atoms: C_4  and  C_5
REMARK    3  A    between atoms: C_5  and  C_6
REMARK    4  A    between atoms: C_6  and  C_7
REMARK    5  A    between atoms: C_6  and  C_14
REMARK                            x       y       z     vdW  Elec       q    Type
REMARK                         _______ _______ _______ _____ _____    ______ ____
ROOT
ATOM      1  C   UNL     1      -9.916  13.260  67.025  0.00  0.00    +0.064 C 
ENDROOT
BRANCH   1   2
ATOM      2  C   UNL     1     -10.743  12.393  68.129  0.00  0.00    -0.017 A 
ATOM      3  C   UNL     1     -10.661  11.035  67.978  0.00  0.00    -0.003 A 
ATOM      4  C   UNL     1     -11.250  10.280  68.987  0.00  0.00    +0.011 A 
ATOM      5  C   UNL     1     -11.880  10.908  70.056  0.00  0.00    +0.058 A 
ATOM      6 CL   UNL     1     -12.300  10.025  71.521  0.00  0.00    -0.082 Cl
ATOM      7  C   UNL     1     -12.060  12.286  70.041  0.00  0.00    +0.011 A 
ATOM      8  C   UNL     1     -11.372  13.062  69.114  0.00  0.00    -0.003 A 
ENDBRANCH   1   2
BRANCH   1   9
ATOM      9  C   UNL     1     -10.808  12.673  65.784  0.00  0.00    +0.063 A 
ATOM     10  N   UNL     1     -10.129  12.618  64.627  0.00  0.00    -0.248 NA
ATOM     11  C   UNL     1     -10.837  12.188  63.554  0.00  0.00    +0.098 A 
ATOM     12  C   UNL     1     -12.217  12.049  63.644  0.00  0.00    +0.021 A 
ATOM     13  C   UNL     1     -12.837  12.810  64.629  0.00  0.00    +0.003 A 
ATOM     14  C   UNL     1     -12.081  13.192  65.732  0.00  0.00    +0.015 A 
ENDBRANCH   1   9
BRANCH   1  15
ATOM     15  C   UNL     1     -10.923  14.582  67.186  0.00  0.00    +0.028 C 
BRANCH  15  16
ATOM     16  C   UNL     1     -10.002  15.767  67.086  0.00  0.00    +0.073 C 
BRANCH  16  18
ATOM     17  C   UNL     1     -10.501  18.006  67.379  0.00  0.00    +0.090 C 
ATOM     18  N   UNL     1     -10.485  16.890  67.838  0.00  0.00    -0.270 NA
ATOM     19  C   UNL     1     -10.719  16.621  69.225  0.00  0.00    +0.090 C 
ENDBRANCH  16  18
ENDBRANCH  15  16
ENDBRANCH   1  15
TORSDOF 5
ENDMDL
MODEL 9
REMARK VINA RESULT:      -5.2      2.514      4.678
REMARK  Name = 
REMARK  5 active torsions:
REMARK  status: ('A' for Active; 'I' for Inactive)
REMARK    1  A    between atoms: N_2  and  C_4
REMARK    2  A    between atoms: C_4  and  C_5
REMARK    3  A    between atoms: C_5  and  C_6
REMARK    4  A    between atoms: C_6  and  C_7
REMARK    5  A    between atoms: C_6  and  C_14
REMARK                            x       y       z     vdW  Elec       q    Type
REMARK                         _______ _______ _______ _____ _____    ______ ____
ROOT
ATOM      1  C   UNL     1     -11.161  15.742  67.641  0.00  0.00    +0.064 C 
ENDROOT
BRANCH   1   2
ATOM      2  C   UNL     1     -11.508  15.296  69.169  0.00  0.00    -0.017 A 
ATOM      3  C   UNL     1     -11.347  16.279  70.109  0.00  0.00    -0.003 A 
ATOM      4  C   UNL     1     -11.764  15.956  71.396  0.00  0.00    +0.011 A 
ATOM      5  C   UNL     1     -12.297  14.700  71.666  0.00  0.00    +0.058 A 
ATOM      6 CL   UNL     1     -13.174  14.377  73.160  0.00  0.00    -0.082 Cl
ATOM      7  C   UNL     1     -12.269  13.712  70.690  0.00  0.00    +0.011 A 
ATOM      8  C   UNL     1     -11.977  14.051  69.373  0.00  0.00    -0.003 A 
ENDBRANCH   1   2
BRANCH   1   9
ATOM      9  C   UNL     1     -10.320  17.057  68.134  0.00  0.00    +0.063 A 
ATOM     10  N   UNL     1     -10.810  18.208  67.648  0.00  0.00    -0.248 NA
ATOM     11  C   UNL     1     -10.119  19.325  67.984  0.00  0.00    +0.098 A 
ATOM     12  C   UNL     1      -8.874  19.214  68.591  0.00  0.00    +0.021 A 
ATOM     13  C   UNL     1      -8.201  18.017  68.373  0.00  0.00    +0.003 A 
ATOM     14  C   UNL     1      -8.956  16.887  68.073  0.00  0.00    +0.015 A 
ENDBRANCH   1   9
BRANCH   1  15
ATOM     15  C   UNL     1      -9.775  14.812  67.597  0.00  0.00    +0.028 C 
BRANCH  15  16
ATOM     16  C   UNL     1      -9.884  14.040  66.310  0.00  0.00    +0.073 C 
BRANCH  16  18
ATOM     17  C   UNL     1      -9.952  11.859  67.077  0.00  0.00    +0.090 C 
ATOM     18  N   UNL     1     -10.507  12.762  66.499  0.00  0.00    -0.270 NA
ATOM     19  C   UNL     1     -11.718  12.574  65.758  0.00  0.00    +0.090 C 
ENDBRANCH  16  18
ENDBRANCH  15  16
ENDBRANCH   1  15
TORSDOF 5
ENDMDL
