MODEL 1
REMARK VINA RESULT:      -6.5      0.000      0.000
REMARK  Name = 
REMARK  9 active torsions:
REMARK  status: ('A' for Active; 'I' for Inactive)
REMARK    1  A    between atoms: C_2  and  C_4
REMARK    2  A    between atoms: C_4  and  O_6
REMARK    3  A    between atoms: O_6  and  C_7
REMARK    4  A    between atoms: C_7  and  O_9
REMARK    5  A    between atoms: O_9  and  C_10
REMARK    6  A    between atoms: N_12  and  C_13
REMARK    7  A    between atoms: C_13  and  C_14
REMARK    8  A    between atoms: C_14  and  C_15
REMARK    9  A    between atoms: C_15  and  C_16
REMARK                            x       y       z     vdW  Elec       q    Type
REMARK                         _______ _______ _______ _____ _____    ______ ____
ROOT
ATOM      1  C   UNL     1     -11.265  13.343  68.725  0.00  0.00    +0.424 C 
ATOM      2  N   UNL     1     -12.020  13.423  67.514  0.00  0.00    -0.169 NA
ATOM      3  O   UNL     1     -10.702  12.231  68.955  0.00  0.00    -0.224 OA
ENDROOT
BRANCH   1   4
ATOM      4  O   UNL     1     -10.593  14.446  69.155  0.00  0.00    -0.398 OA
BRANCH   4   5
ATOM      5  C   UNL     1     -11.355  15.782  69.282  0.00  0.00    +0.346 C 
ATOM      6  C   UNL     1      -9.989  16.700  69.082  0.00  0.00    +0.100 C 
BRANCH   5   7
ATOM      7  O   UNL     1     -11.206  15.806  70.825  0.00  0.00    -0.414 OA
BRANCH   7   8
ATOM      8  C   UNL     1     -12.443  15.639  71.455  0.00  0.00    +0.319 C 
ATOM      9  O   UNL     1     -13.536  15.866  70.857  0.00  0.00    -0.250 OA
BRANCH   8  11
ATOM     10  C   UNL     1     -12.796  15.587  73.584  0.00  0.00    +0.012 C 
ATOM     11  C   UNL     1     -12.576  14.926  72.763  0.00  0.00    +0.099 C 
ATOM     12  C   UNL     1     -13.461  13.732  72.539  0.00  0.00    +0.012 C 
ENDBRANCH   8  11
ENDBRANCH   7   8
ENDBRANCH   5   7
ENDBRANCH   4   5
ENDBRANCH   1   4
BRANCH   2  13
ATOM     13  C   UNL     1     -11.766  12.567  66.359  0.00  0.00    +0.119 C 
BRANCH  13  14
ATOM     14  C   UNL     1     -11.508  13.520  65.205  0.00  0.00    +0.031 C 
ATOM     15  C   UNL     1     -12.503  13.365  64.093  0.00  0.00    +0.002 C 
ATOM     16  C   UNL     1     -12.358  12.062  63.350  0.00  0.00    +0.000 C 
ATOM     17  C   UNL     1     -11.186  11.247  63.807  0.00  0.00    +0.000 C 
ATOM     18  C   UNL     1      -9.948  12.100  63.830  0.00  0.00    +0.000 C 
ATOM     19  C   UNL     1     -10.082  13.305  64.713  0.00  0.00    +0.002 C 
BRANCH  14  20
ATOM     20  C   UNL     1     -11.571  14.909  65.769  0.00  0.00    +0.116 C 
BRANCH  20  21
ATOM     21  C   UNL     1     -10.921  15.924  64.889  0.00  0.00    +0.365 C 
ATOM     22  O   UNL     1     -11.622  16.596  63.882  0.00  0.00    -0.246 OA
ATOM     23  O   UNL     1      -9.994  16.591  65.439  0.00  0.00    -0.246 OA
ENDBRANCH  20  21
ENDBRANCH  14  20
ENDBRANCH  13  14
ENDBRANCH   2  13
TORSDOF 9
ENDMDL
MODEL 2
REMARK VINA RESULT:      -6.4      3.399      5.763
REMARK  Name = 
REMARK  9 active torsions:
REMARK  status: ('A' for Active; 'I' for Inactive)
REMARK    1  A    between atoms: C_2  and  C_4
REMARK    2  A    between atoms: C_4  and  O_6
REMARK    3  A    between atoms: O_6  and  C_7
REMARK    4  A    between atoms: C_7  and  O_9
REMARK    5  A    between atoms: O_9  and  C_10
REMARK    6  A    between atoms: N_12  and  C_13
REMARK    7  A    between atoms: C_13  and  C_14
REMARK    8  A    between atoms: C_14  and  C_15
REMARK    9  A    between atoms: C_15  and  C_16
REMARK                            x       y       z     vdW  Elec       q    Type
REMARK                         _______ _______ _______ _____ _____    ______ ____
ROOT
ATOM      1  C   UNL     1     -10.724  16.736  64.961  0.00  0.00    +0.424 C 
ATOM      2  N   UNL     1     -10.514  15.648  65.864  0.00  0.00    -0.169 NA
ATOM      3  O   UNL     1     -11.599  16.550  64.063  0.00  0.00    -0.224 OA
ENDROOT
BRANCH   1   4
ATOM      4  O   UNL     1     -10.620  18.010  65.431  0.00  0.00    -0.398 OA
BRANCH   4   5
ATOM      5  C   UNL     1      -9.712  18.284  66.649  0.00  0.00    +0.346 C 
ATOM      6  C   UNL     1     -10.679  19.499  67.228  0.00  0.00    +0.100 C 
BRANCH   5   7
ATOM      7  O   UNL     1      -8.833  19.289  65.862  0.00  0.00    -0.414 OA
BRANCH   7   8
ATOM      8  C   UNL     1      -7.473  19.019  66.041  0.00  0.00    +0.319 C 
ATOM      9  O   UNL     1      -6.820  18.297  65.230  0.00  0.00    -0.250 OA
BRANCH   8  11
ATOM     10  C   UNL     1      -6.937  20.802  67.133  0.00  0.00    +0.012 C 
ATOM     11  C   UNL     1      -6.638  19.773  67.027  0.00  0.00    +0.099 C 
ATOM     12  C   UNL     1      -6.519  18.925  68.262  0.00  0.00    +0.012 C 
ENDBRANCH   8  11
ENDBRANCH   7   8
ENDBRANCH   5   7
ENDBRANCH   4   5
ENDBRANCH   1   4
BRANCH   2  13
ATOM     13  C   UNL     1     -11.527  14.633  66.137  0.00  0.00    +0.119 C 
BRANCH  13  14
ATOM     14  C   UNL     1     -10.808  13.302  65.995  0.00  0.00    +0.031 C 
ATOM     15  C   UNL     1     -11.596  12.157  66.558  0.00  0.00    +0.002 C 
ATOM     16  C   UNL     1     -11.705  12.199  68.061  0.00  0.00    +0.000 C 
ATOM     17  C   UNL     1     -10.916  13.311  68.681  0.00  0.00    +0.000 C 
ATOM     18  C   UNL     1      -9.509  13.297  68.152  0.00  0.00    +0.000 C 
ATOM     19  C   UNL     1      -9.442  13.420  66.658  0.00  0.00    +0.002 C 
BRANCH  14  20
ATOM     20  C   UNL     1     -10.566  13.096  64.530  0.00  0.00    +0.116 C 
BRANCH  20  21
ATOM     21  C   UNL     1     -11.788  12.660  63.793  0.00  0.00    +0.365 C 
ATOM     22  O   UNL     1     -12.632  13.569  63.145  0.00  0.00    -0.246 OA
ATOM     23  O   UNL     1     -11.706  11.519  63.249  0.00  0.00    -0.246 OA
ENDBRANCH  20  21
ENDBRANCH  14  20
ENDBRANCH  13  14
ENDBRANCH   2  13
TORSDOF 9
ENDMDL
MODEL 3
REMARK VINA RESULT:      -6.3      3.393      5.250
REMARK  Name = 
REMARK  9 active torsions:
REMARK  status: ('A' for Active; 'I' for Inactive)
REMARK    1  A    between atoms: C_2  and  C_4
REMARK    2  A    between atoms: C_4  and  O_6
REMARK    3  A    between atoms: O_6  and  C_7
REMARK    4  A    between atoms: C_7  and  O_9
REMARK    5  A    between atoms: O_9  and  C_10
REMARK    6  A    between atoms: N_12  and  C_13
REMARK    7  A    between atoms: C_13  and  C_14
REMARK    8  A    between atoms: C_14  and  C_15
REMARK    9  A    between atoms: C_15  and  C_16
REMARK                            x       y       z     vdW  Elec       q    Type
REMARK                         _______ _______ _______ _____ _____    ______ ____
ROOT
ATOM      1  C   UNL     1     -11.017  16.525  64.651  0.00  0.00    +0.424 C 
ATOM      2  N   UNL     1     -10.624  15.525  65.592  0.00  0.00    -0.169 NA
ATOM      3  O   UNL     1     -12.013  16.239  63.921  0.00  0.00    -0.224 OA
ENDROOT
BRANCH   1   4
ATOM      4  O   UNL     1     -10.895  17.837  64.996  0.00  0.00    -0.398 OA
BRANCH   4   5
ATOM      5  C   UNL     1     -10.301  18.193  66.376  0.00  0.00    +0.346 C 
ATOM      6  C   UNL     1     -10.511  19.823  66.162  0.00  0.00    +0.100 C 
BRANCH   5   7
ATOM      7  O   UNL     1      -8.855  18.256  65.821  0.00  0.00    -0.414 OA
BRANCH   7   8
ATOM      8  C   UNL     1      -7.917  17.980  66.821  0.00  0.00    +0.319 C 
ATOM      9  O   UNL     1      -7.348  18.901  67.479  0.00  0.00    -0.250 OA
BRANCH   8  11
ATOM     10  C   UNL     1      -6.818  16.134  67.029  0.00  0.00    +0.012 C 
ATOM     11  C   UNL     1      -7.726  16.602  67.370  0.00  0.00    +0.099 C 
ATOM     12  C   UNL     1      -7.996  16.662  68.847  0.00  0.00    +0.012 C 
ENDBRANCH   8  11
ENDBRANCH   7   8
ENDBRANCH   5   7
ENDBRANCH   4   5
ENDBRANCH   1   4
BRANCH   2  13
ATOM     13  C   UNL     1     -11.538  14.508  66.103  0.00  0.00    +0.119 C 
BRANCH  13  14
ATOM     14  C   UNL     1     -10.760  13.204  66.041  0.00  0.00    +0.031 C 
ATOM     15  C   UNL     1     -11.532  12.044  66.598  0.00  0.00    +0.002 C 
ATOM     16  C   UNL     1     -11.723  12.126  68.090  0.00  0.00    +0.000 C 
ATOM     17  C   UNL     1     -11.012  13.287  68.716  0.00  0.00    +0.000 C 
ATOM     18  C   UNL     1      -9.579  13.315  68.262  0.00  0.00    +0.000 C 
ATOM     19  C   UNL     1      -9.438  13.397  66.771  0.00  0.00    +0.002 C 
BRANCH  14  20
ATOM     20  C   UNL     1     -10.432  12.965  64.597  0.00  0.00    +0.116 C 
BRANCH  20  21
ATOM     21  C   UNL     1     -11.536  12.291  63.853  0.00  0.00    +0.365 C 
ATOM     22  O   UNL     1     -12.562  13.009  63.231  0.00  0.00    -0.246 OA
ATOM     23  O   UNL     1     -11.210  11.208  63.281  0.00  0.00    -0.246 OA
ENDBRANCH  20  21
ENDBRANCH  14  20
ENDBRANCH  13  14
ENDBRANCH   2  13
TORSDOF 9
ENDMDL
MODEL 4
REMARK VINA RESULT:      -6.1      2.622      4.716
REMARK  Name = 
REMARK  9 active torsions:
REMARK  status: ('A' for Active; 'I' for Inactive)
REMARK    1  A    between atoms: C_2  and  C_4
REMARK    2  A    between atoms: C_4  and  O_6
REMARK    3  A    between atoms: O_6  and  C_7
REMARK    4  A    between atoms: C_7  and  O_9
REMARK    5  A    between atoms: O_9  and  C_10
REMARK    6  A    between atoms: N_12  and  C_13
REMARK    7  A    between atoms: C_13  and  C_14
REMARK    8  A    between atoms: C_14  and  C_15
REMARK    9  A    between atoms: C_15  and  C_16
REMARK                            x       y       z     vdW  Elec       q    Type
REMARK                         _______ _______ _______ _____ _____    ______ ____
ROOT
ATOM      1  C   UNL     1     -11.314  16.382  68.835  0.00  0.00    +0.424 C 
ATOM      2  N   UNL     1     -11.523  15.443  67.778  0.00  0.00    -0.169 NA
ATOM      3  O   UNL     1     -11.872  16.108  69.939  0.00  0.00    -0.224 OA
ENDROOT
BRANCH   1   4
ATOM      4  O   UNL     1     -10.112  17.017  68.922  0.00  0.00    -0.398 OA
BRANCH   4   5
ATOM      5  C   UNL     1      -9.006  16.663  67.905  0.00  0.00    +0.346 C 
ATOM      6  C   UNL     1      -7.966  16.109  69.070  0.00  0.00    +0.100 C 
BRANCH   5   7
ATOM      7  O   UNL     1      -8.393  18.085  67.962  0.00  0.00    -0.414 OA
BRANCH   7   8
ATOM      8  C   UNL     1      -8.576  18.764  66.753  0.00  0.00    +0.319 C 
ATOM      9  O   UNL     1      -7.980  18.415  65.691  0.00  0.00    -0.250 OA
BRANCH   8  11
ATOM     10  C   UNL     1     -10.475  19.386  65.937  0.00  0.00    +0.012 C 
ATOM     11  C   UNL     1      -9.679  19.756  66.561  0.00  0.00    +0.099 C 
ATOM     12  C   UNL     1     -10.022  20.319  67.911  0.00  0.00    +0.012 C 
ENDBRANCH   8  11
ENDBRANCH   7   8
ENDBRANCH   5   7
ENDBRANCH   4   5
ENDBRANCH   1   4
BRANCH   2  13
ATOM     13  C   UNL     1     -11.856  14.042  68.013  0.00  0.00    +0.119 C 
BRANCH  13  14
ATOM     14  C   UNL     1     -11.669  13.356  66.670  0.00  0.00    +0.031 C 
ATOM     15  C   UNL     1     -11.711  11.860  66.774  0.00  0.00    +0.002 C 
ATOM     16  C   UNL     1     -10.519  11.285  67.492  0.00  0.00    +0.000 C 
ATOM     17  C   UNL     1      -9.492  12.315  67.856  0.00  0.00    +0.000 C 
ATOM     18  C   UNL     1      -9.159  13.151  66.651  0.00  0.00    +0.000 C 
ATOM     19  C   UNL     1     -10.357  13.837  66.063  0.00  0.00    +0.002 C 
BRANCH  14  20
ATOM     20  C   UNL     1     -12.769  13.847  65.777  0.00  0.00    +0.116 C 
BRANCH  20  21
ATOM     21  C   UNL     1     -12.332  14.032  64.363  0.00  0.00    +0.365 C 
ATOM     22  O   UNL     1     -12.369  12.991  63.429  0.00  0.00    -0.246 OA
ATOM     23  O   UNL     1     -12.533  15.190  63.889  0.00  0.00    -0.246 OA
ENDBRANCH  20  21
ENDBRANCH  14  20
ENDBRANCH  13  14
ENDBRANCH   2  13
TORSDOF 9
ENDMDL
MODEL 5
REMARK VINA RESULT:      -6.1      2.246      3.780
REMARK  Name = 
REMARK  9 active torsions:
REMARK  status: ('A' for Active; 'I' for Inactive)
REMARK    1  A    between atoms: C_2  and  C_4
REMARK    2  A    between atoms: C_4  and  O_6
REMARK    3  A    between atoms: O_6  and  C_7
REMARK    4  A    between atoms: C_7  and  O_9
REMARK    5  A    between atoms: O_9  and  C_10
REMARK    6  A    between atoms: N_12  and  C_13
REMARK    7  A    between atoms: C_13  and  C_14
REMARK    8  A    between atoms: C_14  and  C_15
REMARK    9  A    between atoms: C_15  and  C_16
REMARK                            x       y       z     vdW  Elec       q    Type
REMARK                         _______ _______ _______ _____ _____    ______ ____
ROOT
ATOM      1  C   UNL     1     -11.758  10.715  68.525  0.00  0.00    +0.424 C 
ATOM      2  N   UNL     1     -11.766  11.851  67.657  0.00  0.00    -0.169 NA
ATOM      3  O   UNL     1     -10.625  10.194  68.745  0.00  0.00    -0.224 OA
ENDROOT
BRANCH   1   4
ATOM      4  O   UNL     1     -12.639  10.675  69.563  0.00  0.00    -0.398 OA
BRANCH   4   5
ATOM      5  C   UNL     1     -12.124  10.962  70.990  0.00  0.00    +0.346 C 
ATOM      6  C   UNL     1     -12.907   9.658  71.647  0.00  0.00    +0.100 C 
BRANCH   5   7
ATOM      7  O   UNL     1     -13.314  11.902  71.311  0.00  0.00    -0.414 OA
BRANCH   7   8
ATOM      8  C   UNL     1     -12.880  13.216  71.514  0.00  0.00    +0.319 C 
ATOM      9  O   UNL     1     -12.018  13.761  70.762  0.00  0.00    -0.250 OA
BRANCH   8  11
ATOM     10  C   UNL     1     -12.922  14.683  73.097  0.00  0.00    +0.012 C 
ATOM     11  C   UNL     1     -13.590  14.151  72.440  0.00  0.00    +0.099 C 
ATOM     12  C   UNL     1     -14.575  14.938  71.622  0.00  0.00    +0.012 C 
ENDBRANCH   8  11
ENDBRANCH   7   8
ENDBRANCH   5   7
ENDBRANCH   4   5
ENDBRANCH   1   4
BRANCH   2  13
ATOM     13  C   UNL     1     -10.601  12.707  67.456  0.00  0.00    +0.119 C 
BRANCH  13  14
ATOM     14  C   UNL     1     -11.081  13.829  66.551  0.00  0.00    +0.031 C 
ATOM     15  C   UNL     1      -9.987  14.386  65.690  0.00  0.00    +0.002 C 
ATOM     16  C   UNL     1      -8.952  15.152  66.473  0.00  0.00    +0.000 C 
ATOM     17  C   UNL     1      -9.291  15.287  67.927  0.00  0.00    +0.000 C 
ATOM     18  C   UNL     1     -10.699  15.793  68.079  0.00  0.00    +0.000 C 
ATOM     19  C   UNL     1     -11.715  14.910  67.418  0.00  0.00    +0.002 C 
BRANCH  14  20
ATOM     20  C   UNL     1     -12.175  13.258  65.698  0.00  0.00    +0.116 C 
BRANCH  20  21
ATOM     21  C   UNL     1     -12.066  13.662  64.265  0.00  0.00    +0.365 C 
ATOM     22  O   UNL     1     -11.929  12.725  63.235  0.00  0.00    -0.246 OA
ATOM     23  O   UNL     1     -12.704  14.713  63.958  0.00  0.00    -0.246 OA
ENDBRANCH  20  21
ENDBRANCH  14  20
ENDBRANCH  13  14
ENDBRANCH   2  13
TORSDOF 9
ENDMDL
MODEL 6
REMARK VINA RESULT:      -6.0      2.962      4.644
REMARK  Name = 
REMARK  9 active torsions:
REMARK  status: ('A' for Active; 'I' for Inactive)
REMARK    1  A    between atoms: C_2  and  C_4
REMARK    2  A    between atoms: C_4  and  O_6
REMARK    3  A    between atoms: O_6  and  C_7
REMARK    4  A    between atoms: C_7  and  O_9
REMARK    5  A    between atoms: O_9  and  C_10
REMARK    6  A    between atoms: N_12  and  C_13
REMARK    7  A    between atoms: C_13  and  C_14
REMARK    8  A    between atoms: C_14  and  C_15
REMARK    9  A    between atoms: C_15  and  C_16
REMARK                            x       y       z     vdW  Elec       q    Type
REMARK                         _______ _______ _______ _____ _____    ______ ____
ROOT
ATOM      1  C   UNL     1     -11.264  11.445  66.931  0.00  0.00    +0.424 C 
ATOM      2  N   UNL     1     -11.027  12.841  67.127  0.00  0.00    -0.169 NA
ATOM      3  O   UNL     1     -10.412  10.833  66.219  0.00  0.00    -0.224 OA
ENDROOT
BRANCH   1   4
ATOM      4  O   UNL     1     -11.815  10.722  67.945  0.00  0.00    -0.398 OA
BRANCH   4   5
ATOM      5  C   UNL     1     -11.683  11.246  69.392  0.00  0.00    +0.346 C 
ATOM      6  C   UNL     1     -10.348  10.318  69.717  0.00  0.00    +0.100 C 
BRANCH   5   7
ATOM      7  O   UNL     1     -12.637  10.161  69.952  0.00  0.00    -0.414 OA
BRANCH   7   8
ATOM      8  C   UNL     1     -12.878  10.354  71.315  0.00  0.00    +0.319 C 
ATOM      9  O   UNL     1     -13.112  11.501  71.799  0.00  0.00    -0.250 OA
BRANCH   8  11
ATOM     10  C   UNL     1     -14.103   8.742  72.064  0.00  0.00    +0.012 C 
ATOM     11  C   UNL     1     -13.150   9.212  72.241  0.00  0.00    +0.099 C 
ATOM     12  C   UNL     1     -11.917   8.352  72.274  0.00  0.00    +0.012 C 
ENDBRANCH   8  11
ENDBRANCH   7   8
ENDBRANCH   5   7
ENDBRANCH   4   5
ENDBRANCH   1   4
BRANCH   2  13
ATOM     13  C   UNL     1      -9.703  13.446  67.027  0.00  0.00    +0.119 C 
BRANCH  13  14
ATOM     14  C   UNL     1      -9.933  14.810  66.398  0.00  0.00    +0.031 C 
ATOM     15  C   UNL     1      -8.688  15.644  66.355  0.00  0.00    +0.002 C 
ATOM     16  C   UNL     1      -8.233  16.095  67.719  0.00  0.00    +0.000 C 
ATOM     17  C   UNL     1      -9.177  15.707  68.816  0.00  0.00    +0.000 C 
ATOM     18  C   UNL     1     -10.578  16.114  68.453  0.00  0.00    +0.000 C 
ATOM     19  C   UNL     1     -11.049  15.510  67.163  0.00  0.00    +0.002 C 
BRANCH  14  20
ATOM     20  C   UNL     1     -10.443  14.565  65.009  0.00  0.00    +0.116 C 
BRANCH  20  21
ATOM     21  C   UNL     1     -11.540  15.497  64.619  0.00  0.00    +0.365 C 
ATOM     22  O   UNL     1     -11.290  16.808  64.199  0.00  0.00    -0.246 OA
ATOM     23  O   UNL     1     -12.548  14.943  64.086  0.00  0.00    -0.246 OA
ENDBRANCH  20  21
ENDBRANCH  14  20
ENDBRANCH  13  14
ENDBRANCH   2  13
TORSDOF 9
ENDMDL
MODEL 7
REMARK VINA RESULT:      -6.0      2.913      5.157
REMARK  Name = 
REMARK  9 active torsions:
REMARK  status: ('A' for Active; 'I' for Inactive)
REMARK    1  A    between atoms: C_2  and  C_4
REMARK    2  A    between atoms: C_4  and  O_6
REMARK    3  A    between atoms: O_6  and  C_7
REMARK    4  A    between atoms: C_7  and  O_9
REMARK    5  A    between atoms: O_9  and  C_10
REMARK    6  A    between atoms: N_12  and  C_13
REMARK    7  A    between atoms: C_13  and  C_14
REMARK    8  A    between atoms: C_14  and  C_15
REMARK    9  A    between atoms: C_15  and  C_16
REMARK                            x       y       z     vdW  Elec       q    Type
REMARK                         _______ _______ _______ _____ _____    ______ ____
ROOT
ATOM      1  C   UNL     1      -8.423  16.206  68.029  0.00  0.00    +0.424 C 
ATOM      2  N   UNL     1      -8.780  15.406  66.900  0.00  0.00    -0.169 NA
ATOM      3  O   UNL     1      -8.918  15.850  69.140  0.00  0.00    -0.224 OA
ENDROOT
BRANCH   1   4
ATOM      4  O   UNL     1      -7.173  16.743  68.084  0.00  0.00    -0.398 OA
BRANCH   4   5
ATOM      5  C   UNL     1      -6.744  17.748  66.994  0.00  0.00    +0.346 C 
ATOM      6  C   UNL     1      -5.376  18.208  67.808  0.00  0.00    +0.100 C 
BRANCH   5   7
ATOM      7  O   UNL     1      -7.567  18.900  67.625  0.00  0.00    -0.414 OA
BRANCH   7   8
ATOM      8  C   UNL     1      -8.315  19.576  66.656  0.00  0.00    +0.319 C 
ATOM      9  O   UNL     1      -7.915  19.693  65.460  0.00  0.00    -0.250 OA
BRANCH   8  11
ATOM     10  C   UNL     1     -10.403  19.614  66.108  0.00  0.00    +0.012 C 
ATOM     11  C   UNL     1      -9.742  19.963  66.884  0.00  0.00    +0.099 C 
ATOM     12  C   UNL     1     -10.075  19.642  68.314  0.00  0.00    +0.012 C 
ENDBRANCH   8  11
ENDBRANCH   7   8
ENDBRANCH   5   7
ENDBRANCH   4   5
ENDBRANCH   1   4
BRANCH   2  13
ATOM     13  C   UNL     1      -9.202  14.013  67.013  0.00  0.00    +0.119 C 
BRANCH  13  14
ATOM     14  C   UNL     1     -10.582  13.960  66.379  0.00  0.00    +0.031 C 
ATOM     15  C   UNL     1     -11.598  14.757  67.141  0.00  0.00    +0.002 C 
ATOM     16  C   UNL     1     -11.938  14.154  68.479  0.00  0.00    +0.000 C 
ATOM     17  C   UNL     1     -11.273  12.834  68.720  0.00  0.00    +0.000 C 
ATOM     18  C   UNL     1     -11.499  11.925  67.544  0.00  0.00    +0.000 C 
ATOM     19  C   UNL     1     -10.997  12.500  66.252  0.00  0.00    +0.002 C 
BRANCH  14  20
ATOM     20  C   UNL     1     -10.438  14.495  64.986  0.00  0.00    +0.116 C 
BRANCH  20  21
ATOM     21  C   UNL     1     -11.573  15.375  64.580  0.00  0.00    +0.365 C 
ATOM     22  O   UNL     1     -11.386  16.712  64.215  0.00  0.00    -0.246 OA
ATOM     23  O   UNL     1     -12.522  14.781  63.987  0.00  0.00    -0.246 OA
ENDBRANCH  20  21
ENDBRANCH  14  20
ENDBRANCH  13  14
ENDBRANCH   2  13
TORSDOF 9
ENDMDL
MODEL 8
REMARK VINA RESULT:      -6.0      1.430      1.872
REMARK  Name = 
REMARK  9 active torsions:
REMARK  status: ('A' for Active; 'I' for Inactive)
REMARK    1  A    between atoms: C_2  and  C_4
REMARK    2  A    between atoms: C_4  and  O_6
REMARK    3  A    between atoms: O_6  and  C_7
REMARK    4  A    between atoms: C_7  and  O_9
REMARK    5  A    between atoms: O_9  and  C_10
REMARK    6  A    between atoms: N_12  and  C_13
REMARK    7  A    between atoms: C_13  and  C_14
REMARK    8  A    between atoms: C_14  and  C_15
REMARK    9  A    between atoms: C_15  and  C_16
REMARK                            x       y       z     vdW  Elec       q    Type
REMARK                         _______ _______ _______ _____ _____    ______ ____
ROOT
ATOM      1  C   UNL     1      -8.959  14.635  68.811  0.00  0.00    +0.424 C 
ATOM      2  N   UNL     1      -9.767  13.851  67.931  0.00  0.00    -0.169 NA
ATOM      3  O   UNL     1      -7.744  14.770  68.476  0.00  0.00    -0.224 OA
ENDROOT
BRANCH   1   4
ATOM      4  O   UNL     1      -9.520  15.703  69.442  0.00  0.00    -0.398 OA
BRANCH   4   5
ATOM      5  C   UNL     1     -10.830  16.298  68.880  0.00  0.00    +0.346 C 
ATOM      6  C   UNL     1     -10.213  17.834  68.784  0.00  0.00    +0.100 C 
BRANCH   5   7
ATOM      7  O   UNL     1     -11.404  16.563  70.295  0.00  0.00    -0.414 OA
BRANCH   7   8
ATOM      8  C   UNL     1     -12.390  15.627  70.624  0.00  0.00    +0.319 C 
ATOM      9  O   UNL     1     -12.541  14.554  69.969  0.00  0.00    -0.250 OA
BRANCH   8  11
ATOM     10  C   UNL     1     -14.000  15.039  71.936  0.00  0.00    +0.012 C 
ATOM     11  C   UNL     1     -13.140  15.687  71.916  0.00  0.00    +0.099 C 
ATOM     12  C   UNL     1     -12.135  15.586  73.029  0.00  0.00    +0.012 C 
ENDBRANCH   8  11
ENDBRANCH   7   8
ENDBRANCH   5   7
ENDBRANCH   4   5
ENDBRANCH   1   4
BRANCH   2  13
ATOM     13  C   UNL     1      -9.453  13.663  66.518  0.00  0.00    +0.119 C 
BRANCH  13  14
ATOM     14  C   UNL     1     -10.797  13.486  65.830  0.00  0.00    +0.031 C 
ATOM     15  C   UNL     1     -11.651  12.445  66.490  0.00  0.00    +0.002 C 
ATOM     16  C   UNL     1     -11.119  11.047  66.313  0.00  0.00    +0.000 C 
ATOM     17  C   UNL     1      -9.911  10.980  65.428  0.00  0.00    +0.000 C 
ATOM     18  C   UNL     1     -10.176  11.720  64.146  0.00  0.00    +0.000 C 
ATOM     19  C   UNL     1     -10.547  13.157  64.364  0.00  0.00    +0.002 C 
BRANCH  14  20
ATOM     20  C   UNL     1     -11.480  14.821  65.868  0.00  0.00    +0.116 C 
BRANCH  20  21
ATOM     21  C   UNL     1     -10.869  15.814  64.937  0.00  0.00    +0.365 C 
ATOM     22  O   UNL     1     -11.609  16.446  63.932  0.00  0.00    -0.246 OA
ATOM     23  O   UNL     1      -9.933  16.508  65.435  0.00  0.00    -0.246 OA
ENDBRANCH  20  21
ENDBRANCH  14  20
ENDBRANCH  13  14
ENDBRANCH   2  13
TORSDOF 9
ENDMDL
MODEL 9
REMARK VINA RESULT:      -6.0      2.923      5.656
REMARK  Name = 
REMARK  9 active torsions:
REMARK  status: ('A' for Active; 'I' for Inactive)
REMARK    1  A    between atoms: C_2  and  C_4
REMARK    2  A    between atoms: C_4  and  O_6
REMARK    3  A    between atoms: O_6  and  C_7
REMARK    4  A    between atoms: C_7  and  O_9
REMARK    5  A    between atoms: O_9  and  C_10
REMARK    6  A    between atoms: N_12  and  C_13
REMARK    7  A    between atoms: C_13  and  C_14
REMARK    8  A    between atoms: C_14  and  C_15
REMARK    9  A    between atoms: C_15  and  C_16
REMARK                            x       y       z     vdW  Elec       q    Type
REMARK                         _______ _______ _______ _____ _____    ______ ____
ROOT
ATOM      1  C   UNL     1     -11.314  15.790  64.969  0.00  0.00    +0.424 C 
ATOM      2  N   UNL     1     -10.378  15.793  66.050  0.00  0.00    -0.169 NA
ATOM      3  O   UNL     1     -11.252  16.780  64.180  0.00  0.00    -0.224 OA
ENDROOT
BRANCH   1   4
ATOM      4  O   UNL     1     -11.659  14.602  64.402  0.00  0.00    -0.398 OA
BRANCH   4   5
ATOM      5  C   UNL     1     -10.971  13.311  64.896  0.00  0.00    +0.346 C 
ATOM      6  C   UNL     1     -11.573  12.391  63.656  0.00  0.00    +0.100 C 
BRANCH   5   7
ATOM      7  O   UNL     1     -12.161  12.940  65.817  0.00  0.00    -0.414 OA
BRANCH   7   8
ATOM      8  C   UNL     1     -11.720  12.323  66.991  0.00  0.00    +0.319 C 
ATOM      9  O   UNL     1     -11.767  11.066  67.147  0.00  0.00    -0.250 OA
BRANCH   8  11
ATOM     10  C   UNL     1     -11.492  13.343  68.880  0.00  0.00    +0.012 C 
ATOM     11  C   UNL     1     -10.915  13.056  68.017  0.00  0.00    +0.099 C 
ATOM     12  C   UNL     1      -9.640  12.288  68.225  0.00  0.00    +0.012 C 
ENDBRANCH   8  11
ENDBRANCH   7   8
ENDBRANCH   5   7
ENDBRANCH   4   5
ENDBRANCH   1   4
BRANCH   2  13
ATOM     13  C   UNL     1      -9.110  16.515  66.004  0.00  0.00    +0.119 C 
BRANCH  13  14
ATOM     14  C   UNL     1      -8.965  17.155  67.374  0.00  0.00    +0.031 C 
ATOM     15  C   UNL     1      -7.768  18.054  67.467  0.00  0.00    +0.002 C 
ATOM     16  C   UNL     1      -6.462  17.303  67.426  0.00  0.00    +0.000 C 
ATOM     17  C   UNL     1      -6.635  15.815  67.410  0.00  0.00    +0.000 C 
ATOM     18  C   UNL     1      -7.568  15.397  68.512  0.00  0.00    +0.000 C 
ATOM     19  C   UNL     1      -8.916  16.049  68.419  0.00  0.00    +0.002 C 
BRANCH  14  20
ATOM     20  C   UNL     1     -10.221  17.935  67.621  0.00  0.00    +0.116 C 
BRANCH  20  21
ATOM     21  C   UNL     1     -10.152  19.332  67.101  0.00  0.00    +0.365 C 
ATOM     22  O   UNL     1     -10.627  19.679  65.832  0.00  0.00    -0.246 OA
ATOM     23  O   UNL     1     -10.257  20.236  67.983  0.00  0.00    -0.246 OA
ENDBRANCH  20  21
ENDBRANCH  14  20
ENDBRANCH  13  14
ENDBRANCH   2  13
TORSDOF 9
ENDMDL
