MODEL 1
REMARK VINA RESULT:      -6.6      0.000      0.000
REMARK  Name = 
REMARK  5 active torsions:
REMARK  status: ('A' for Active; 'I' for Inactive)
REMARK    1  A    between atoms: C_6  and  O_7
REMARK    2  A    between atoms: O_7  and  C_8
REMARK    3  A    between atoms: C_8  and  C_10
REMARK    4  A    between atoms: C_10  and  C_12
REMARK    5  A    between atoms: C_10  and  C_17
REMARK                            x       y       z     vdW  Elec       q    Type
REMARK                         _______ _______ _______ _____ _____    ______ ____
ROOT
ATOM      1  C   UNL     1     -10.599  13.303  68.266  0.00  0.00    +0.354 C 
ATOM      2  O   UNL     1     -11.520  13.491  69.128  0.00  0.00    -0.247 OA
ENDROOT
BRANCH   1   3
ATOM      3  C   UNL     1     -10.885  12.086  67.462  0.00  0.00    +0.263 C 
ATOM      4  O   UNL     1     -12.172  11.764  67.960  0.00  0.00    -0.204 OA
BRANCH   3   5
ATOM      5  C   UNL     1     -10.080  10.906  67.723  0.00  0.00    +0.049 A 
ATOM      6  S   UNL     1      -8.699  10.543  68.651  0.00  0.00    -0.088 S 
ATOM      7  C   UNL     1      -8.924   8.853  68.913  0.00  0.00    +0.035 A 
ATOM      8  C   UNL     1      -9.713   8.646  67.767  0.00  0.00    +0.007 A 
ATOM      9  C   UNL     1     -10.632   9.635  67.609  0.00  0.00    +0.006 A 
ENDBRANCH   3   5
BRANCH   3  10
ATOM     10  C   UNL     1     -11.066  12.401  66.010  0.00  0.00    +0.049 A 
ATOM     11  S   UNL     1     -10.337  11.993  64.553  0.00  0.00    -0.088 S 
ATOM     12  C   UNL     1     -11.594  12.373  63.440  0.00  0.00    +0.035 A 
ATOM     13  C   UNL     1     -12.343  13.196  64.258  0.00  0.00    +0.007 A 
ATOM     14  C   UNL     1     -12.226  12.983  65.556  0.00  0.00    +0.006 A 
ENDBRANCH   3  10
ENDBRANCH   1   3
BRANCH   1  15
ATOM     15  O   UNL     1      -9.966  14.467  67.883  0.00  0.00    -0.450 OA
BRANCH  15  23
ATOM     16  C   UNL     1      -8.146  16.218  66.325  0.00  0.00    +0.170 C 
ATOM     17  N   UNL     1      -8.421  17.358  66.921  0.00  0.00    +0.302 N 
ATOM     18  C   UNL     1      -9.841  17.517  67.501  0.00  0.00    +0.093 C 
ATOM     19  C   UNL     1      -9.580  19.178  67.856  0.00  0.00    +0.197 C 
ATOM     20  C   UNL     1     -10.106  18.926  66.244  0.00  0.00    +0.197 C 
ATOM     21  O   UNL     1     -11.205  19.281  67.466  0.00  0.00    -0.342 OA
ATOM     22  C   UNL     1      -9.699  16.631  68.784  0.00  0.00    +0.101 C 
ATOM     23  C   UNL     1     -10.813  15.741  67.862  0.00  0.00    +0.181 C 
ATOM     24  C   UNL     1     -10.444  16.237  66.280  0.00  0.00    +0.101 C 
ATOM     25  C   UNL     1      -9.963  17.462  67.129  0.00  0.00    +0.093 C 
ATOM     26  C   UNL     1      -7.927  18.568  66.483  0.00  0.00    +0.170 C 
ENDBRANCH  15  23
ENDBRANCH   1  15
TORSDOF 5
ENDMDL
MODEL 2
REMARK VINA RESULT:      -6.6      1.792      3.598
REMARK  Name = 
REMARK  5 active torsions:
REMARK  status: ('A' for Active; 'I' for Inactive)
REMARK    1  A    between atoms: C_6  and  O_7
REMARK    2  A    between atoms: O_7  and  C_8
REMARK    3  A    between atoms: C_8  and  C_10
REMARK    4  A    between atoms: C_10  and  C_12
REMARK    5  A    between atoms: C_10  and  C_17
REMARK                            x       y       z     vdW  Elec       q    Type
REMARK                         _______ _______ _______ _____ _____    ______ ____
ROOT
ATOM      1  C   UNL     1      -8.912  13.374  66.997  0.00  0.00    +0.354 C 
ATOM      2  O   UNL     1      -7.727  12.952  67.214  0.00  0.00    -0.247 OA
ENDROOT
BRANCH   1   3
ATOM      3  C   UNL     1      -9.861  12.233  66.932  0.00  0.00    +0.263 C 
ATOM      4  O   UNL     1      -8.949  11.168  66.735  0.00  0.00    -0.204 OA
BRANCH   3   5
ATOM      5  C   UNL     1     -10.757  12.171  65.790  0.00  0.00    +0.049 A 
ATOM      6  S   UNL     1     -12.201  12.941  65.321  0.00  0.00    -0.088 S 
ATOM      7  C   UNL     1     -12.105  12.784  63.605  0.00  0.00    +0.035 A 
ATOM      8  C   UNL     1     -11.279  11.646  63.623  0.00  0.00    +0.007 A 
ATOM      9  C   UNL     1     -10.288  11.764  64.547  0.00  0.00    +0.006 A 
ENDBRANCH   3   5
BRANCH   3  10
ATOM     10  C   UNL     1     -10.525  11.978  68.250  0.00  0.00    +0.049 A 
ATOM     11  S   UNL     1     -11.625  12.753  69.255  0.00  0.00    -0.088 S 
ATOM     12  C   UNL     1     -12.185  11.432  70.207  0.00  0.00    +0.035 A 
ATOM     13  C   UNL     1     -11.152  10.551  69.954  0.00  0.00    +0.007 A 
ATOM     14  C   UNL     1     -10.512  10.723  68.811  0.00  0.00    +0.006 A 
ENDBRANCH   3  10
ENDBRANCH   1   3
BRANCH   1  15
ATOM     15  O   UNL     1      -9.125  14.656  67.459  0.00  0.00    -0.450 OA
BRANCH  15  23
ATOM     16  C   UNL     1      -7.965  17.146  68.582  0.00  0.00    +0.170 C 
ATOM     17  N   UNL     1      -8.959  17.962  68.303  0.00  0.00    +0.302 N 
ATOM     18  C   UNL     1      -9.808  17.630  67.060  0.00  0.00    +0.093 C 
ATOM     19  C   UNL     1     -10.661  19.117  67.165  0.00  0.00    +0.197 C 
ATOM     20  C   UNL     1      -9.187  19.266  66.302  0.00  0.00    +0.197 C 
ATOM     21  O   UNL     1     -10.636  18.986  65.496  0.00  0.00    -0.342 OA
ATOM     22  C   UNL     1     -10.655  16.444  67.633  0.00  0.00    +0.101 C 
ATOM     23  C   UNL     1      -9.703  15.664  66.463  0.00  0.00    +0.181 C 
ATOM     24  C   UNL     1      -8.352  16.688  66.362  0.00  0.00    +0.101 C 
ATOM     25  C   UNL     1      -9.468  17.666  66.860  0.00  0.00    +0.093 C 
ATOM     26  C   UNL     1      -8.884  19.324  68.502  0.00  0.00    +0.170 C 
ENDBRANCH  15  23
ENDBRANCH   1  15
TORSDOF 5
ENDMDL
MODEL 3
REMARK VINA RESULT:      -6.5      1.595      1.990
REMARK  Name = 
REMARK  5 active torsions:
REMARK  status: ('A' for Active; 'I' for Inactive)
REMARK    1  A    between atoms: C_6  and  O_7
REMARK    2  A    between atoms: O_7  and  C_8
REMARK    3  A    between atoms: C_8  and  C_10
REMARK    4  A    between atoms: C_10  and  C_12
REMARK    5  A    between atoms: C_10  and  C_17
REMARK                            x       y       z     vdW  Elec       q    Type
REMARK                         _______ _______ _______ _____ _____    ______ ____
ROOT
ATOM      1  C   UNL     1      -9.928  14.042  67.142  0.00  0.00    +0.354 C 
ATOM      2  O   UNL     1      -8.910  13.316  67.397  0.00  0.00    -0.247 OA
ENDROOT
BRANCH   1   3
ATOM      3  C   UNL     1     -11.126  13.192  66.921  0.00  0.00    +0.263 C 
ATOM      4  O   UNL     1     -12.148  14.147  67.147  0.00  0.00    -0.204 OA
BRANCH   3   5
ATOM      5  C   UNL     1     -11.385  12.135  67.884  0.00  0.00    +0.049 A 
ATOM      6  S   UNL     1     -10.995  10.484  68.028  0.00  0.00    -0.088 S 
ATOM      7  C   UNL     1     -11.079  10.283  69.740  0.00  0.00    +0.035 A 
ATOM      8  C   UNL     1     -11.970  11.350  69.954  0.00  0.00    +0.007 A 
ATOM      9  C   UNL     1     -11.627  12.441  69.219  0.00  0.00    +0.006 A 
ENDBRANCH   3   5
BRANCH   3  10
ATOM     10  C   UNL     1     -11.259  12.768  65.491  0.00  0.00    +0.049 A 
ATOM     11  S   UNL     1     -10.287  12.079  64.307  0.00  0.00    -0.088 S 
ATOM     12  C   UNL     1     -11.476  11.457  63.229  0.00  0.00    +0.035 A 
ATOM     13  C   UNL     1     -12.550  12.209  63.661  0.00  0.00    +0.007 A 
ATOM     14  C   UNL     1     -12.498  12.628  64.912  0.00  0.00    +0.006 A 
ENDBRANCH   3  10
ENDBRANCH   1   3
BRANCH   1  15
ATOM     15  O   UNL     1      -9.848  15.303  67.695  0.00  0.00    -0.450 OA
BRANCH  15  23
ATOM     16  C   UNL     1      -7.734  17.184  68.588  0.00  0.00    +0.170 C 
ATOM     17  N   UNL     1      -8.405  18.307  68.445  0.00  0.00    +0.302 N 
ATOM     18  C   UNL     1      -9.488  18.338  67.348  0.00  0.00    +0.093 C 
ATOM     19  C   UNL     1      -9.737  20.026  67.552  0.00  0.00    +0.197 C 
ATOM     20  C   UNL     1      -8.447  19.678  66.477  0.00  0.00    +0.197 C 
ATOM     21  O   UNL     1     -10.002  19.954  65.901  0.00  0.00    -0.342 OA
ATOM     22  C   UNL     1     -10.605  17.507  68.063  0.00  0.00    +0.101 C 
ATOM     23  C   UNL     1     -10.172  16.484  66.779  0.00  0.00    +0.181 C 
ATOM     24  C   UNL     1      -8.576  16.971  66.459  0.00  0.00    +0.101 C 
ATOM     25  C   UNL     1      -9.190  18.261  67.100  0.00  0.00    +0.093 C 
ATOM     26  C   UNL     1      -7.826  19.548  68.605  0.00  0.00    +0.170 C 
ENDBRANCH  15  23
ENDBRANCH   1  15
TORSDOF 5
ENDMDL
MODEL 4
REMARK VINA RESULT:      -6.3      2.860      4.320
REMARK  Name = 
REMARK  5 active torsions:
REMARK  status: ('A' for Active; 'I' for Inactive)
REMARK    1  A    between atoms: C_6  and  O_7
REMARK    2  A    between atoms: O_7  and  C_8
REMARK    3  A    between atoms: C_8  and  C_10
REMARK    4  A    between atoms: C_10  and  C_12
REMARK    5  A    between atoms: C_10  and  C_17
REMARK                            x       y       z     vdW  Elec       q    Type
REMARK                         _______ _______ _______ _____ _____    ______ ____
ROOT
ATOM      1  C   UNL     1     -10.132  16.210  65.759  0.00  0.00    +0.354 C 
ATOM      2  O   UNL     1     -10.808  16.562  64.736  0.00  0.00    -0.247 OA
ENDROOT
BRANCH   1   3
ATOM      3  C   UNL     1     -10.381  14.780  66.075  0.00  0.00    +0.263 C 
ATOM      4  O   UNL     1      -9.060  14.360  66.363  0.00  0.00    -0.204 OA
BRANCH   3   5
ATOM      5  C   UNL     1     -10.817  13.920  64.988  0.00  0.00    +0.049 A 
ATOM      6  S   UNL     1     -10.200  12.550  64.187  0.00  0.00    -0.088 S 
ATOM      7  C   UNL     1     -11.658  11.837  63.602  0.00  0.00    +0.035 A 
ATOM      8  C   UNL     1     -12.392  13.037  63.581  0.00  0.00    +0.007 A 
ATOM      9  C   UNL     1     -12.169  13.778  64.699  0.00  0.00    +0.006 A 
ENDBRANCH   3   5
BRANCH   3  10
ATOM     10  C   UNL     1     -11.159  14.612  67.343  0.00  0.00    +0.049 A 
ATOM     11  S   UNL     1     -11.680  13.348  68.320  0.00  0.00    -0.088 S 
ATOM     12  C   UNL     1     -11.968  14.176  69.801  0.00  0.00    +0.035 A 
ATOM     13  C   UNL     1     -12.042  15.461  69.300  0.00  0.00    +0.007 A 
ATOM     14  C   UNL     1     -11.387  15.682  68.175  0.00  0.00    +0.006 A 
ENDBRANCH   3  10
ENDBRANCH   1   3
BRANCH   1  15
ATOM     15  O   UNL     1      -8.980  16.949  65.930  0.00  0.00    -0.450 OA
BRANCH  15  23
ATOM     16  C   UNL     1      -6.396  18.302  65.381  0.00  0.00    +0.170 C 
ATOM     17  N   UNL     1      -5.977  18.423  66.623  0.00  0.00    +0.302 N 
ATOM     18  C   UNL     1      -7.057  18.556  67.715  0.00  0.00    +0.093 C 
ATOM     19  C   UNL     1      -5.885  18.900  68.923  0.00  0.00    +0.197 C 
ATOM     20  C   UNL     1      -6.371  20.301  68.062  0.00  0.00    +0.197 C 
ATOM     21  O   UNL     1      -7.112  19.876  69.510  0.00  0.00    -0.342 OA
ATOM     22  C   UNL     1      -7.535  17.067  67.790  0.00  0.00    +0.101 C 
ATOM     23  C   UNL     1      -8.908  17.846  67.167  0.00  0.00    +0.181 C 
ATOM     24  C   UNL     1      -8.234  19.214  66.420  0.00  0.00    +0.101 C 
ATOM     25  C   UNL     1      -7.168  18.881  67.517  0.00  0.00    +0.093 C 
ATOM     26  C   UNL     1      -4.841  19.127  66.961  0.00  0.00    +0.170 C 
ENDBRANCH  15  23
ENDBRANCH   1  15
TORSDOF 5
ENDMDL
MODEL 5
REMARK VINA RESULT:      -6.3      2.880      3.896
REMARK  Name = 
REMARK  5 active torsions:
REMARK  status: ('A' for Active; 'I' for Inactive)
REMARK    1  A    between atoms: C_6  and  O_7
REMARK    2  A    between atoms: O_7  and  C_8
REMARK    3  A    between atoms: C_8  and  C_10
REMARK    4  A    between atoms: C_10  and  C_12
REMARK    5  A    between atoms: C_10  and  C_17
REMARK                            x       y       z     vdW  Elec       q    Type
REMARK                         _______ _______ _______ _____ _____    ______ ____
ROOT
ATOM      1  C   UNL     1      -9.043  15.121  66.182  0.00  0.00    +0.354 C 
ATOM      2  O   UNL     1      -8.475  14.211  66.874  0.00  0.00    -0.247 OA
ENDROOT
BRANCH   1   3
ATOM      3  C   UNL     1     -10.502  14.862  66.089  0.00  0.00    +0.263 C 
ATOM      4  O   UNL     1     -10.943  16.120  65.609  0.00  0.00    -0.204 OA
BRANCH   3   5
ATOM      5  C   UNL     1     -11.228  14.664  67.332  0.00  0.00    +0.049 A 
ATOM      6  S   UNL     1     -11.686  13.329  68.285  0.00  0.00    -0.088 S 
ATOM      7  C   UNL     1     -11.835  14.078  69.833  0.00  0.00    +0.035 A 
ATOM      8  C   UNL     1     -12.094  15.366  69.332  0.00  0.00    +0.007 A 
ATOM      9  C   UNL     1     -11.275  15.670  68.290  0.00  0.00    +0.006 A 
ENDBRANCH   3   5
BRANCH   3  10
ATOM     10  C   UNL     1     -10.830  13.868  65.019  0.00  0.00    +0.049 A 
ATOM     11  S   UNL     1     -10.207  12.420  64.439  0.00  0.00    -0.088 S 
ATOM     12  C   UNL     1     -11.579  11.776  63.623  0.00  0.00    +0.035 A 
ATOM     13  C   UNL     1     -12.306  12.944  63.502  0.00  0.00    +0.007 A 
ATOM     14  C   UNL     1     -12.062  13.874  64.407  0.00  0.00    +0.006 A 
ENDBRANCH   3  10
ENDBRANCH   1   3
BRANCH   1  15
ATOM     15  O   UNL     1      -8.375  16.327  66.218  0.00  0.00    -0.450 OA
BRANCH  15  23
ATOM     16  C   UNL     1      -8.675  19.270  66.466  0.00  0.00    +0.170 C 
ATOM     17  N   UNL     1      -7.450  19.554  66.855  0.00  0.00    +0.302 N 
ATOM     18  C   UNL     1      -6.705  18.471  67.660  0.00  0.00    +0.093 C 
ATOM     19  C   UNL     1      -5.403  19.536  68.010  0.00  0.00    +0.197 C 
ATOM     20  C   UNL     1      -6.694  19.689  69.128  0.00  0.00    +0.197 C 
ATOM     21  O   UNL     1      -5.389  18.679  69.449  0.00  0.00    -0.342 OA
ATOM     22  C   UNL     1      -6.340  17.487  66.498  0.00  0.00    +0.101 C 
ATOM     23  C   UNL     1      -7.442  16.567  67.406  0.00  0.00    +0.181 C 
ATOM     24  C   UNL     1      -8.358  17.770  68.180  0.00  0.00    +0.101 C 
ATOM     25  C   UNL     1      -7.001  18.508  67.920  0.00  0.00    +0.093 C 
ATOM     26  C   UNL     1      -7.068  20.817  67.252  0.00  0.00    +0.170 C 
ENDBRANCH  15  23
ENDBRANCH   1  15
TORSDOF 5
ENDMDL
MODEL 6
REMARK VINA RESULT:      -6.2      2.898      4.719
REMARK  Name = 
REMARK  5 active torsions:
REMARK  status: ('A' for Active; 'I' for Inactive)
REMARK    1  A    between atoms: C_6  and  O_7
REMARK    2  A    between atoms: O_7  and  C_8
REMARK    3  A    between atoms: C_8  and  C_10
REMARK    4  A    between atoms: C_10  and  C_12
REMARK    5  A    between atoms: C_10  and  C_17
REMARK                            x       y       z     vdW  Elec       q    Type
REMARK                         _______ _______ _______ _____ _____    ______ ____
ROOT
ATOM      1  C   UNL     1     -10.771  16.617  68.787  0.00  0.00    +0.354 C 
ATOM      2  O   UNL     1     -11.792  17.098  68.191  0.00  0.00    -0.247 OA
ENDROOT
BRANCH   1   3
ATOM      3  C   UNL     1     -11.121  15.343  69.465  0.00  0.00    +0.263 C 
ATOM      4  O   UNL     1      -9.856  14.993  69.995  0.00  0.00    -0.204 OA
BRANCH   3   5
ATOM      5  C   UNL     1     -11.496  14.218  68.625  0.00  0.00    +0.049 A 
ATOM      6  S   UNL     1     -11.707  13.949  66.957  0.00  0.00    -0.088 S 
ATOM      7  C   UNL     1     -11.429  12.249  66.868  0.00  0.00    +0.035 A 
ATOM      8  C   UNL     1     -11.790  11.987  68.202  0.00  0.00    +0.007 A 
ATOM      9  C   UNL     1     -11.271  12.914  69.051  0.00  0.00    +0.006 A 
ENDBRANCH   3   5
BRANCH   3  10
ATOM     10  C   UNL     1     -12.022  15.561  70.640  0.00  0.00    +0.049 A 
ATOM     11  S   UNL     1     -13.612  15.220  71.065  0.00  0.00    -0.088 S 
ATOM     12  C   UNL     1     -13.524  15.334  72.780  0.00  0.00    +0.035 A 
ATOM     13  C   UNL     1     -12.348  16.052  72.873  0.00  0.00    +0.007 A 
ATOM     14  C   UNL     1     -11.506  15.917  71.864  0.00  0.00    +0.006 A 
ENDBRANCH   3  10
ENDBRANCH   1   3
BRANCH   1  15
ATOM     15  O   UNL     1      -9.577  16.992  68.207  0.00  0.00    -0.450 OA
BRANCH  15  23
ATOM     16  C   UNL     1      -7.459  16.986  66.127  0.00  0.00    +0.170 C 
ATOM     17  N   UNL     1      -6.714  17.956  66.612  0.00  0.00    +0.302 N 
ATOM     18  C   UNL     1      -7.435  19.055  67.418  0.00  0.00    +0.093 C 
ATOM     19  C   UNL     1      -6.014  20.016  67.500  0.00  0.00    +0.197 C 
ATOM     20  C   UNL     1      -6.903  20.283  66.058  0.00  0.00    +0.197 C 
ATOM     21  O   UNL     1      -7.128  21.263  67.406  0.00  0.00    -0.342 OA
ATOM     22  C   UNL     1      -7.677  18.279  68.755  0.00  0.00    +0.101 C 
ATOM     23  C   UNL     1      -9.260  18.488  68.178  0.00  0.00    +0.181 C 
ATOM     24  C   UNL     1      -9.012  18.639  66.505  0.00  0.00    +0.101 C 
ATOM     25  C   UNL     1      -7.639  19.118  67.084  0.00  0.00    +0.093 C 
ATOM     26  C   UNL     1      -5.627  18.469  65.937  0.00  0.00    +0.170 C 
ENDBRANCH  15  23
ENDBRANCH   1  15
TORSDOF 5
ENDMDL
MODEL 7
REMARK VINA RESULT:      -6.2      3.389      5.752
REMARK  Name = 
REMARK  5 active torsions:
REMARK  status: ('A' for Active; 'I' for Inactive)
REMARK    1  A    between atoms: C_6  and  O_7
REMARK    2  A    between atoms: O_7  and  C_8
REMARK    3  A    between atoms: C_8  and  C_10
REMARK    4  A    between atoms: C_10  and  C_12
REMARK    5  A    between atoms: C_10  and  C_17
REMARK                            x       y       z     vdW  Elec       q    Type
REMARK                         _______ _______ _______ _____ _____    ______ ____
ROOT
ATOM      1  C   UNL     1     -10.683  10.281  69.741  0.00  0.00    +0.354 C 
ATOM      2  O   UNL     1     -11.871  10.165  70.192  0.00  0.00    -0.247 OA
ENDROOT
BRANCH   1   3
ATOM      3  C   UNL     1      -9.940   9.006  69.914  0.00  0.00    +0.263 C 
ATOM      4  O   UNL     1      -8.727   9.501  70.452  0.00  0.00    -0.204 OA
BRANCH   3   5
ATOM      5  C   UNL     1      -9.547   8.291  68.711  0.00  0.00    +0.049 A 
ATOM      6  S   UNL     1     -10.353   7.559  67.402  0.00  0.00    -0.088 S 
ATOM      7  C   UNL     1      -9.128   7.638  66.188  0.00  0.00    +0.035 A 
ATOM      8  C   UNL     1      -8.050   7.676  67.091  0.00  0.00    +0.007 A 
ATOM      9  C   UNL     1      -8.303   8.513  68.133  0.00  0.00    +0.006 A 
ENDBRANCH   3   5
BRANCH   3  10
ATOM     10  C   UNL     1     -10.547   8.140  70.974  0.00  0.00    +0.049 A 
ATOM     11  S   UNL     1     -11.500   6.760  71.053  0.00  0.00    -0.088 S 
ATOM     12  C   UNL     1     -11.171   6.226  72.656  0.00  0.00    +0.035 A 
ATOM     13  C   UNL     1     -10.666   7.408  73.161  0.00  0.00    +0.007 A 
ATOM     14  C   UNL     1     -10.123   8.228  72.280  0.00  0.00    +0.006 A 
ENDBRANCH   3  10
ENDBRANCH   1   3
BRANCH   1  15
ATOM     15  O   UNL     1     -10.570  11.223  68.741  0.00  0.00    -0.450 OA
BRANCH  15  23
ATOM     16  C   UNL     1      -9.235  12.952  66.732  0.00  0.00    +0.170 C 
ATOM     17  N   UNL     1     -10.305  13.547  66.251  0.00  0.00    +0.302 N 
ATOM     18  C   UNL     1     -11.623  12.747  66.285  0.00  0.00    +0.093 C 
ATOM     19  C   UNL     1     -12.443  13.935  65.353  0.00  0.00    +0.197 C 
ATOM     20  C   UNL     1     -11.605  12.800  64.378  0.00  0.00    +0.197 C 
ATOM     21  O   UNL     1     -13.231  12.588  64.748  0.00  0.00    -0.342 OA
ATOM     22  C   UNL     1     -11.967  12.878  67.806  0.00  0.00    +0.101 C 
ATOM     23  C   UNL     1     -11.650  11.216  67.658  0.00  0.00    +0.181 C 
ATOM     24  C   UNL     1     -10.622  11.169  66.307  0.00  0.00    +0.101 C 
ATOM     25  C   UNL     1     -11.430  12.486  66.057  0.00  0.00    +0.093 C 
ATOM     26  C   UNL     1     -10.264  14.388  65.160  0.00  0.00    +0.170 C 
ENDBRANCH  15  23
ENDBRANCH   1  15
TORSDOF 5
ENDMDL
MODEL 8
REMARK VINA RESULT:      -6.2      2.913      5.012
REMARK  Name = 
REMARK  5 active torsions:
REMARK  status: ('A' for Active; 'I' for Inactive)
REMARK    1  A    between atoms: C_6  and  O_7
REMARK    2  A    between atoms: O_7  and  C_8
REMARK    3  A    between atoms: C_8  and  C_10
REMARK    4  A    between atoms: C_10  and  C_12
REMARK    5  A    between atoms: C_10  and  C_17
REMARK                            x       y       z     vdW  Elec       q    Type
REMARK                         _______ _______ _______ _____ _____    ______ ____
ROOT
ATOM      1  C   UNL     1     -10.382  17.033  68.791  0.00  0.00    +0.354 C 
ATOM      2  O   UNL     1     -11.312  17.437  68.016  0.00  0.00    -0.247 OA
ENDROOT
BRANCH   1   3
ATOM      3  C   UNL     1     -10.521  15.576  69.046  0.00  0.00    +0.263 C 
ATOM      4  O   UNL     1      -9.233  15.297  69.566  0.00  0.00    -0.204 OA
BRANCH   3   5
ATOM      5  C   UNL     1     -10.653  14.703  67.892  0.00  0.00    +0.049 A 
ATOM      6  S   UNL     1     -11.932  14.145  66.917  0.00  0.00    -0.088 S 
ATOM      7  C   UNL     1     -11.088  13.796  65.452  0.00  0.00    +0.035 A 
ATOM      8  C   UNL     1      -9.840  13.587  66.066  0.00  0.00    +0.007 A 
ATOM      9  C   UNL     1      -9.588  14.526  67.016  0.00  0.00    +0.006 A 
ENDBRANCH   3   5
BRANCH   3  10
ATOM     10  C   UNL     1     -11.490  15.288  70.151  0.00  0.00    +0.049 A 
ATOM     11  S   UNL     1     -12.379  13.977  70.709  0.00  0.00    -0.088 S 
ATOM     12  C   UNL     1     -12.711  14.472  72.325  0.00  0.00    +0.035 A 
ATOM     13  C   UNL     1     -12.463  15.822  72.175  0.00  0.00    +0.007 A 
ATOM     14  C   UNL     1     -11.624  16.153  71.211  0.00  0.00    +0.006 A 
ENDBRANCH   3  10
ENDBRANCH   1   3
BRANCH   1  15
ATOM     15  O   UNL     1      -9.236  17.795  68.707  0.00  0.00    -0.450 OA
BRANCH  15  23
ATOM     16  C   UNL     1      -6.556  18.869  69.394  0.00  0.00    +0.170 C 
ATOM     17  N   UNL     1      -6.492  19.818  68.485  0.00  0.00    +0.302 N 
ATOM     18  C   UNL     1      -7.254  19.574  67.167  0.00  0.00    +0.093 C 
ATOM     19  C   UNL     1      -6.572  20.973  66.439  0.00  0.00    +0.197 C 
ATOM     20  C   UNL     1      -5.564  19.594  66.284  0.00  0.00    +0.197 C 
ATOM     21  O   UNL     1      -6.646  20.015  65.068  0.00  0.00    -0.342 OA
ATOM     22  C   UNL     1      -8.716  19.843  67.659  0.00  0.00    +0.101 C 
ATOM     23  C   UNL     1      -8.763  18.183  67.305  0.00  0.00    +0.181 C 
ATOM     24  C   UNL     1      -7.134  17.736  67.479  0.00  0.00    +0.101 C 
ATOM     25  C   UNL     1      -7.020  19.258  67.130  0.00  0.00    +0.093 C 
ATOM     26  C   UNL     1      -5.356  20.568  68.269  0.00  0.00    +0.170 C 
ENDBRANCH  15  23
ENDBRANCH   1  15
TORSDOF 5
ENDMDL
MODEL 9
REMARK VINA RESULT:      -6.1      2.439      3.957
REMARK  Name = 
REMARK  5 active torsions:
REMARK  status: ('A' for Active; 'I' for Inactive)
REMARK    1  A    between atoms: C_6  and  O_7
REMARK    2  A    between atoms: O_7  and  C_8
REMARK    3  A    between atoms: C_8  and  C_10
REMARK    4  A    between atoms: C_10  and  C_12
REMARK    5  A    between atoms: C_10  and  C_17
REMARK                            x       y       z     vdW  Elec       q    Type
REMARK                         _______ _______ _______ _____ _____    ______ ____
ROOT
ATOM      1  C   UNL     1      -9.243  14.188  67.994  0.00  0.00    +0.354 C 
ATOM      2  O   UNL     1      -8.391  13.330  68.401  0.00  0.00    -0.247 OA
ENDROOT
BRANCH   1   3
ATOM      3  C   UNL     1     -10.614  13.619  68.048  0.00  0.00    +0.263 C 
ATOM      4  O   UNL     1     -10.304  12.262  68.308  0.00  0.00    -0.204 OA
BRANCH   3   5
ATOM      5  C   UNL     1     -11.380  13.596  66.813  0.00  0.00    +0.049 A 
ATOM      6  S   UNL     1     -11.695  14.687  65.545  0.00  0.00    -0.088 S 
ATOM      7  C   UNL     1     -12.049  13.591  64.260  0.00  0.00    +0.035 A 
ATOM      8  C   UNL     1     -12.462  12.538  65.095  0.00  0.00    +0.007 A 
ATOM      9  C   UNL     1     -11.633  12.393  66.163  0.00  0.00    +0.006 A 
ENDBRANCH   3   5
BRANCH   3  10
ATOM     10  C   UNL     1     -11.379  14.109  69.238  0.00  0.00    +0.049 A 
ATOM     11  S   UNL     1     -12.023  15.560  69.787  0.00  0.00    -0.088 S 
ATOM     12  C   UNL     1     -13.188  14.993  70.921  0.00  0.00    +0.035 A 
ATOM     13  C   UNL     1     -12.689  13.718  71.099  0.00  0.00    +0.007 A 
ATOM     14  C   UNL     1     -11.993  13.223  70.092  0.00  0.00    +0.006 A 
ENDBRANCH   3  10
ENDBRANCH   1   3
BRANCH   1  15
ATOM     15  O   UNL     1      -8.835  15.492  68.185  0.00  0.00    -0.450 OA
BRANCH  15  23
ATOM     16  C   UNL     1      -6.716  17.518  68.644  0.00  0.00    +0.170 C 
ATOM     17  N   UNL     1      -7.418  18.595  68.365  0.00  0.00    +0.302 N 
ATOM     18  C   UNL     1      -8.560  18.437  67.341  0.00  0.00    +0.093 C 
ATOM     19  C   UNL     1      -8.833  20.133  67.289  0.00  0.00    +0.197 C 
ATOM     20  C   UNL     1      -7.598  19.634  66.210  0.00  0.00    +0.197 C 
ATOM     21  O   UNL     1      -9.188  19.795  65.688  0.00  0.00    -0.342 OA
ATOM     22  C   UNL     1      -9.618  17.716  68.242  0.00  0.00    +0.101 C 
ATOM     23  C   UNL     1      -9.234  16.507  67.113  0.00  0.00    +0.181 C 
ATOM     24  C   UNL     1      -7.670  16.957  66.629  0.00  0.00    +0.101 C 
ATOM     25  C   UNL     1      -8.275  18.325  67.091  0.00  0.00    +0.093 C 
ATOM     26  C   UNL     1      -6.857  19.852  68.292  0.00  0.00    +0.170 C 
ENDBRANCH  15  23
ENDBRANCH   1  15
TORSDOF 5
ENDMDL
