MODEL 1
REMARK VINA RESULT:      -8.4      0.000      0.000
REMARK  Name = 
REMARK  5 active torsions:
REMARK  status: ('A' for Active; 'I' for Inactive)
REMARK    1  A    between atoms: C_2  and  C_3
REMARK    2  A    between atoms: C_10  and  O_11
REMARK    3  A    between atoms: O_11  and  C_12
REMARK    4  A    between atoms: C_17  and  N_18
REMARK    5  A    between atoms: C_40  and  C_42
REMARK                            x       y       z     vdW  Elec       q    Type
REMARK                         _______ _______ _______ _____ _____    ______ ____
ROOT
ATOM      1  C   UNL     1     -10.436  13.003  68.659  0.00  0.00    -0.021 A 
ATOM      2  C   UNL     1     -11.488  13.128  69.553  0.00  0.00    +0.017 A 
ATOM      3  C   UNL     1     -11.711  14.403  70.049  0.00  0.00    +0.081 A 
ATOM      4  C   UNL     1     -12.792  14.554  70.898  0.00  0.00    +0.022 A 
ATOM      5  C   UNL     1     -13.356  13.440  71.483  0.00  0.00    +0.039 A 
ATOM      6  C   UNL     1     -12.853  12.164  71.269  0.00  0.00    +0.150 A 
ATOM      7  N   UNL     1     -10.732  15.325  69.977  0.00  0.00    -0.244 NA
ATOM      8  C   UNL     1      -9.512  15.057  69.450  0.00  0.00    +0.095 A 
ATOM      9  C   UNL     1      -8.577  16.038  68.884  0.00  0.00    +0.080 A 
ATOM     10  N   UNL     1      -7.694  15.368  68.105  0.00  0.00    -0.290 N 
ATOM     11  C   UNL     1      -8.056  13.953  68.082  0.00  0.00    +0.137 C 
ATOM     12  C   UNL     1      -6.724  16.085  67.491  0.00  0.00    +0.260 A 
ATOM     13  O   UNL     1      -5.892  15.432  66.791  0.00  0.00    -0.267 OA
ATOM     14  C   UNL     1      -6.808  17.458  67.327  0.00  0.00    +0.076 A 
ATOM     15  C   UNL     1      -6.303  18.108  66.076  0.00  0.00    +0.240 C 
ATOM     16  O   UNL     1      -7.457  18.628  65.419  0.00  0.00    -0.441 OA
ATOM     17  C   UNL     1      -8.485  19.225  66.153  0.00  0.00    +0.349 C 
ATOM     18  C   UNL     1      -8.184  19.471  67.598  0.00  0.00    +0.233 C 
ATOM     19  O   UNL     1      -9.328  19.862  68.290  0.00  0.00    -0.210 OA
ATOM     20  O   UNL     1      -9.699  18.997  65.872  0.00  0.00    -0.247 OA
ATOM     21  C   UNL     1      -7.683  18.169  68.138  0.00  0.00    +0.021 A 
ATOM     22  C   UNL     1      -8.431  17.408  69.025  0.00  0.00    +0.017 A 
ATOM     23  C   UNL     1     -12.076  12.009  70.130  0.00  0.00    +0.039 A 
ATOM     24  C   UNL     1      -9.475  13.995  68.554  0.00  0.00    +0.016 A 
ENDROOT
BRANCH   1  26
ATOM     25  C   UNL     1     -11.042  12.031  66.546  0.00  0.00    +0.005 C 
ATOM     26  C   UNL     1     -10.357  11.770  67.847  0.00  0.00    +0.026 C 
ENDBRANCH   1  26
BRANCH  18  27
ATOM     27  C   UNL     1      -7.163  20.573  67.773  0.00  0.00    +0.046 C 
ATOM     28  C   UNL     1      -6.487  20.322  69.116  0.00  0.00    +0.004 C 
ENDBRANCH  18  27
BRANCH   6  29
ATOM     29  O   UNL     1     -13.182  11.120  72.108  0.00  0.00    -0.410 OA
BRANCH  29  30
ATOM     30  C   UNL     1     -13.064   9.833  71.583  0.00  0.00    +0.409 C 
ATOM     31  N   UNL     1     -12.147   8.873  72.077  0.00  0.00    -0.246 N 
ATOM     32  C   UNL     1     -10.726   9.169  71.913  0.00  0.00    +0.098 C 
ATOM     33  C   UNL     1     -10.126   7.972  71.200  0.00  0.00    +0.038 C 
ATOM     34  C   UNL     1     -11.035   7.635  70.022  0.00  0.00    +0.061 C 
ATOM     35  C   UNL     1     -12.226   6.908  70.596  0.00  0.00    +0.038 C 
ATOM     36  C   UNL     1     -12.521   7.470  71.971  0.00  0.00    +0.098 C 
ATOM     37  O   UNL     1     -13.624   9.557  70.479  0.00  0.00    -0.226 OA
BRANCH  34  38
ATOM     38  N   UNL     1     -10.261   6.831  69.116  0.00  0.00    -0.274 NA
ATOM     39  C   UNL     1      -8.986   7.400  68.771  0.00  0.00    +0.072 C 
ATOM     40  C   UNL     1      -9.046   8.379  67.634  0.00  0.00    +0.017 C 
ATOM     41  C   UNL     1      -9.905   7.921  66.490  0.00  0.00    +0.003 C 
ATOM     42  C   UNL     1     -10.262   6.454  66.684  0.00  0.00    +0.017 C 
ATOM     43  C   UNL     1     -11.010   6.353  67.984  0.00  0.00    +0.072 C 
ENDBRANCH  34  38
ENDBRANCH  29  30
ENDBRANCH   6  29
TORSDOF 5
ENDMDL
MODEL 2
REMARK VINA RESULT:      -8.1      3.602     10.800
REMARK  Name = 
REMARK  5 active torsions:
REMARK  status: ('A' for Active; 'I' for Inactive)
REMARK    1  A    between atoms: C_2  and  C_3
REMARK    2  A    between atoms: C_10  and  O_11
REMARK    3  A    between atoms: O_11  and  C_12
REMARK    4  A    between atoms: C_17  and  N_18
REMARK    5  A    between atoms: C_40  and  C_42
REMARK                            x       y       z     vdW  Elec       q    Type
REMARK                         _______ _______ _______ _____ _____    ______ ____
ROOT
ATOM      1  C   UNL     1      -9.841   8.376  67.986  0.00  0.00    -0.021 A 
ATOM      2  C   UNL     1     -10.387   9.629  68.215  0.00  0.00    +0.017 A 
ATOM      3  C   UNL     1     -10.832   9.867  69.506  0.00  0.00    +0.081 A 
ATOM      4  C   UNL     1     -11.328  11.132  69.764  0.00  0.00    +0.022 A 
ATOM      5  C   UNL     1     -11.686  11.948  68.712  0.00  0.00    +0.039 A 
ATOM      6  C   UNL     1     -11.593  11.527  67.392  0.00  0.00    +0.150 A 
ATOM      7  N   UNL     1     -11.080   8.828  70.326  0.00  0.00    -0.244 NA
ATOM      8  C   UNL     1     -10.930   7.538  69.937  0.00  0.00    +0.095 A 
ATOM      9  C   UNL     1     -10.695   6.388  70.820  0.00  0.00    +0.080 A 
ATOM     10  N   UNL     1     -10.193   5.381  70.066  0.00  0.00    -0.290 N 
ATOM     11  C   UNL     1     -10.022   5.853  68.694  0.00  0.00    +0.137 C 
ATOM     12  C   UNL     1      -9.915   4.208  70.682  0.00  0.00    +0.260 A 
ATOM     13  O   UNL     1      -9.473   3.272  69.950  0.00  0.00    -0.267 OA
ATOM     14  C   UNL     1      -9.774   4.108  72.057  0.00  0.00    +0.076 A 
ATOM     15  C   UNL     1      -8.749   3.196  72.653  0.00  0.00    +0.240 C 
ATOM     16  O   UNL     1      -7.795   4.046  73.286  0.00  0.00    -0.441 OA
ATOM     17  C   UNL     1      -8.209   5.185  73.982  0.00  0.00    +0.349 C 
ATOM     18  C   UNL     1      -9.686   5.305  74.198  0.00  0.00    +0.233 C 
ATOM     19  O   UNL     1     -10.020   6.560  74.701  0.00  0.00    -0.210 OA
ATOM     20  O   UNL     1      -7.575   6.277  73.877  0.00  0.00    -0.247 OA
ATOM     21  C   UNL     1     -10.311   5.114  72.851  0.00  0.00    +0.021 A 
ATOM     22  C   UNL     1     -10.914   6.160  72.169  0.00  0.00    +0.017 A 
ATOM     23  C   UNL     1     -10.731  10.466  67.161  0.00  0.00    +0.039 A 
ATOM     24  C   UNL     1     -10.054   7.337  68.877  0.00  0.00    +0.016 A 
ENDROOT
BRANCH   1  26
ATOM     25  C   UNL     1      -7.607   8.307  67.102  0.00  0.00    +0.005 C 
ATOM     26  C   UNL     1      -9.052   8.177  66.752  0.00  0.00    +0.026 C 
ENDBRANCH   1  26
BRANCH  18  27
ATOM     27  C   UNL     1     -10.188   4.282  75.191  0.00  0.00    +0.046 C 
ATOM     28  C   UNL     1      -9.802   4.800  76.572  0.00  0.00    +0.004 C 
ENDBRANCH  18  27
BRANCH   6  29
ATOM     29  O   UNL     1     -12.266  12.190  66.386  0.00  0.00    -0.410 OA
BRANCH  29  30
ATOM     30  C   UNL     1     -11.912  13.522  66.167  0.00  0.00    +0.409 C 
ATOM     31  N   UNL     1     -10.671  13.913  65.608  0.00  0.00    -0.246 N 
ATOM     32  C   UNL     1      -9.472  13.628  66.392  0.00  0.00    +0.098 C 
ATOM     33  C   UNL     1      -8.739  14.949  66.536  0.00  0.00    +0.038 C 
ATOM     34  C   UNL     1      -9.762  16.000  66.955  0.00  0.00    +0.061 C 
ATOM     35  C   UNL     1     -10.530  16.369  65.709  0.00  0.00    +0.038 C 
ATOM     36  C   UNL     1     -10.644  15.143  64.828  0.00  0.00    +0.098 C 
ATOM     37  O   UNL     1     -12.611  14.445  66.684  0.00  0.00    -0.226 OA
BRANCH  34  38
ATOM     38  N   UNL     1      -9.024  17.099  67.515  0.00  0.00    -0.274 NA
ATOM     39  C   UNL     1      -9.805  17.955  68.366  0.00  0.00    +0.072 C 
ATOM     40  C   UNL     1     -10.563  19.020  67.626  0.00  0.00    +0.017 C 
ATOM     41  C   UNL     1      -9.755  19.697  66.555  0.00  0.00    +0.003 C 
ATOM     42  C   UNL     1      -8.292  19.303  66.701  0.00  0.00    +0.017 C 
ATOM     43  C   UNL     1      -8.224  17.809  66.552  0.00  0.00    +0.072 C 
ENDBRANCH  34  38
ENDBRANCH  29  30
ENDBRANCH   6  29
TORSDOF 5
ENDMDL
MODEL 3
REMARK VINA RESULT:      -8.0      2.727      4.506
REMARK  Name = 
REMARK  5 active torsions:
REMARK  status: ('A' for Active; 'I' for Inactive)
REMARK    1  A    between atoms: C_2  and  C_3
REMARK    2  A    between atoms: C_10  and  O_11
REMARK    3  A    between atoms: O_11  and  C_12
REMARK    4  A    between atoms: C_17  and  N_18
REMARK    5  A    between atoms: C_40  and  C_42
REMARK                            x       y       z     vdW  Elec       q    Type
REMARK                         _______ _______ _______ _____ _____    ______ ____
ROOT
ATOM      1  C   UNL     1      -9.950  12.354  67.072  0.00  0.00    -0.021 A 
ATOM      2  C   UNL     1      -8.929  11.686  67.731  0.00  0.00    +0.017 A 
ATOM      3  C   UNL     1      -7.898  12.480  68.207  0.00  0.00    +0.081 A 
ATOM      4  C   UNL     1      -6.900  11.834  68.915  0.00  0.00    +0.022 A 
ATOM      5  C   UNL     1      -6.775  10.464  68.815  0.00  0.00    +0.039 A 
ATOM      6  C   UNL     1      -7.604   9.709  67.997  0.00  0.00    +0.150 A 
ATOM      7  N   UNL     1      -7.723  13.716  67.704  0.00  0.00    -0.244 NA
ATOM      8  C   UNL     1      -8.510  14.225  66.725  0.00  0.00    +0.095 A 
ATOM      9  C   UNL     1      -8.738  15.649  66.448  0.00  0.00    +0.080 A 
ATOM     10  N   UNL     1      -9.867  15.751  65.706  0.00  0.00    -0.290 N 
ATOM     11  C   UNL     1     -10.444  14.422  65.529  0.00  0.00    +0.137 C 
ATOM     12  C   UNL     1     -10.259  16.989  65.321  0.00  0.00    +0.260 A 
ATOM     13  O   UNL     1     -11.302  17.057  64.603  0.00  0.00    -0.267 OA
ATOM     14  C   UNL     1      -9.791  18.140  65.936  0.00  0.00    +0.076 A 
ATOM     15  C   UNL     1     -10.698  19.311  66.150  0.00  0.00    +0.240 C 
ATOM     16  O   UNL     1     -10.860  19.422  67.562  0.00  0.00    -0.441 OA
ATOM     17  C   UNL     1      -9.778  19.206  68.421  0.00  0.00    +0.349 C 
ATOM     18  C   UNL     1      -8.443  19.085  67.755  0.00  0.00    +0.233 C 
ATOM     19  O   UNL     1      -7.470  18.659  68.656  0.00  0.00    -0.210 OA
ATOM     20  O   UNL     1      -9.923  18.549  69.494  0.00  0.00    -0.247 OA
ATOM     21  C   UNL     1      -8.618  18.064  66.675  0.00  0.00    +0.021 A 
ATOM     22  C   UNL     1      -8.040  16.805  66.757  0.00  0.00    +0.017 A 
ATOM     23  C   UNL     1      -8.809  10.304  67.652  0.00  0.00    +0.039 A 
ATOM     24  C   UNL     1      -9.771  13.652  66.621  0.00  0.00    +0.016 A 
ENDROOT
BRANCH   1  26
ATOM     25  C   UNL     1     -12.028  11.712  68.095  0.00  0.00    +0.005 C 
ATOM     26  C   UNL     1     -11.219  11.631  66.844  0.00  0.00    +0.026 C 
ENDBRANCH   1  26
BRANCH  18  27
ATOM     27  C   UNL     1      -7.979  20.410  67.195  0.00  0.00    +0.046 C 
ATOM     28  C   UNL     1      -6.598  20.666  67.787  0.00  0.00    +0.004 C 
ENDBRANCH  18  27
BRANCH   6  29
ATOM     29  O   UNL     1      -7.263   8.423  67.631  0.00  0.00    -0.410 OA
BRANCH  29  30
ATOM     30  C   UNL     1      -7.613   7.405  68.518  0.00  0.00    +0.409 C 
ATOM     31  N   UNL     1      -8.630   6.456  68.248  0.00  0.00    -0.246 N 
ATOM     32  C   UNL     1      -9.996   6.960  68.144  0.00  0.00    +0.098 C 
ATOM     33  C   UNL     1     -10.821   6.146  69.123  0.00  0.00    +0.038 C 
ATOM     34  C   UNL     1     -10.061   6.107  70.444  0.00  0.00    +0.061 C 
ATOM     35  C   UNL     1      -8.957   5.092  70.272  0.00  0.00    +0.038 C 
ATOM     36  C   UNL     1      -8.483   5.131  68.834  0.00  0.00    +0.098 C 
ATOM     37  O   UNL     1      -7.182   7.441  69.710  0.00  0.00    -0.226 OA
BRANCH  34  38
ATOM     38  N   UNL     1     -11.011   5.747  71.461  0.00  0.00    -0.274 NA
ATOM     39  C   UNL     1     -11.591   6.870  72.146  0.00  0.00    +0.072 C 
ATOM     40  C   UNL     1     -10.763   7.376  73.292  0.00  0.00    +0.017 C 
ATOM     41  C   UNL     1     -10.202   6.284  74.156  0.00  0.00    +0.003 C 
ATOM     42  C   UNL     1     -10.861   4.961  73.789  0.00  0.00    +0.017 C 
ATOM     43  C   UNL     1     -10.549   4.705  72.340  0.00  0.00    +0.072 C 
ENDBRANCH  34  38
ENDBRANCH  29  30
ENDBRANCH   6  29
TORSDOF 5
ENDMDL
MODEL 4
REMARK VINA RESULT:      -7.9      3.852     11.134
REMARK  Name = 
REMARK  5 active torsions:
REMARK  status: ('A' for Active; 'I' for Inactive)
REMARK    1  A    between atoms: C_2  and  C_3
REMARK    2  A    between atoms: C_10  and  O_11
REMARK    3  A    between atoms: O_11  and  C_12
REMARK    4  A    between atoms: C_17  and  N_18
REMARK    5  A    between atoms: C_40  and  C_42
REMARK                            x       y       z     vdW  Elec       q    Type
REMARK                         _______ _______ _______ _____ _____    ______ ____
ROOT
ATOM      1  C   UNL     1     -11.903   8.921  71.443  0.00  0.00    -0.021 A 
ATOM      2  C   UNL     1     -11.674   9.617  70.267  0.00  0.00    +0.017 A 
ATOM      3  C   UNL     1     -10.640   9.140  69.475  0.00  0.00    +0.081 A 
ATOM      4  C   UNL     1     -10.436   9.790  68.271  0.00  0.00    +0.022 A 
ATOM      5  C   UNL     1     -10.984  11.041  68.074  0.00  0.00    +0.039 A 
ATOM      6  C   UNL     1     -11.715  11.686  69.061  0.00  0.00    +0.150 A 
ATOM      7  N   UNL     1      -9.703   8.340  70.017  0.00  0.00    -0.244 NA
ATOM      8  C   UNL     1      -9.711   7.986  71.325  0.00  0.00    +0.095 A 
ATOM      9  C   UNL     1      -9.080   6.793  71.904  0.00  0.00    +0.080 A 
ATOM     10  N   UNL     1      -9.645   6.571  73.115  0.00  0.00    -0.290 N 
ATOM     11  C   UNL     1     -10.698   7.558  73.338  0.00  0.00    +0.137 C 
ATOM     12  C   UNL     1      -9.197   5.517  73.837  0.00  0.00    +0.260 A 
ATOM     13  O   UNL     1      -9.721   5.347  74.979  0.00  0.00    -0.267 OA
ATOM     14  C   UNL     1      -8.479   4.478  73.267  0.00  0.00    +0.076 A 
ATOM     15  C   UNL     1      -8.686   3.068  73.724  0.00  0.00    +0.240 C 
ATOM     16  O   UNL     1      -9.273   2.385  72.619  0.00  0.00    -0.441 OA
ATOM     17  C   UNL     1      -8.843   2.643  71.314  0.00  0.00    +0.349 C 
ATOM     18  C   UNL     1      -7.611   3.485  71.198  0.00  0.00    +0.233 C 
ATOM     19  O   UNL     1      -7.386   3.866  69.877  0.00  0.00    -0.210 OA
ATOM     20  O   UNL     1      -9.675   2.747  70.365  0.00  0.00    -0.247 OA
ATOM     21  C   UNL     1      -7.863   4.695  72.040  0.00  0.00    +0.021 A 
ATOM     22  C   UNL     1      -8.067   5.948  71.480  0.00  0.00    +0.017 A 
ATOM     23  C   UNL     1     -12.239  10.868  70.051  0.00  0.00    +0.039 A 
ATOM     24  C   UNL     1     -10.951   8.051  71.949  0.00  0.00    +0.016 A 
ENDROOT
BRANCH   1  26
ATOM     25  C   UNL     1     -14.136   8.086  71.749  0.00  0.00    +0.005 C 
ATOM     26  C   UNL     1     -13.179   9.157  72.153  0.00  0.00    +0.026 C 
ENDBRANCH   1  26
BRANCH  18  27
ATOM     27  C   UNL     1      -6.380   2.736  71.658  0.00  0.00    +0.046 C 
ATOM     28  C   UNL     1      -6.337   1.444  70.851  0.00  0.00    +0.004 C 
ENDBRANCH  18  27
BRANCH   6  29
ATOM     29  O   UNL     1     -11.954  13.043  68.996  0.00  0.00    -0.410 OA
BRANCH  29  30
ATOM     30  C   UNL     1     -11.462  13.713  67.874  0.00  0.00    +0.409 C 
ATOM     31  N   UNL     1     -10.084  13.961  67.660  0.00  0.00    -0.246 N 
ATOM     32  C   UNL     1      -9.419  14.859  68.600  0.00  0.00    +0.098 C 
ATOM     33  C   UNL     1      -8.768  15.941  67.759  0.00  0.00    +0.038 C 
ATOM     34  C   UNL     1      -9.805  16.429  66.754  0.00  0.00    +0.061 C 
ATOM     35  C   UNL     1      -9.868  15.387  65.664  0.00  0.00    +0.038 C 
ATOM     36  C   UNL     1      -9.621  14.026  66.280  0.00  0.00    +0.098 C 
ATOM     37  O   UNL     1     -12.269  14.330  67.115  0.00  0.00    -0.226 OA
BRANCH  34  38
ATOM     38  N   UNL     1      -9.359  17.714  66.287  0.00  0.00    -0.274 NA
ATOM     39  C   UNL     1      -8.383  18.340  67.136  0.00  0.00    +0.072 C 
ATOM     40  C   UNL     1      -8.977  19.114  68.277  0.00  0.00    +0.017 C 
ATOM     41  C   UNL     1     -10.157  19.956  67.882  0.00  0.00    +0.003 C 
ATOM     42  C   UNL     1     -10.255  20.004  66.363  0.00  0.00    +0.017 C 
ATOM     43  C   UNL     1     -10.432  18.588  65.890  0.00  0.00    +0.072 C 
ENDBRANCH  34  38
ENDBRANCH  29  30
ENDBRANCH   6  29
TORSDOF 5
ENDMDL
MODEL 5
REMARK VINA RESULT:      -7.8      2.360      4.236
REMARK  Name = 
REMARK  5 active torsions:
REMARK  status: ('A' for Active; 'I' for Inactive)
REMARK    1  A    between atoms: C_2  and  C_3
REMARK    2  A    between atoms: C_10  and  O_11
REMARK    3  A    between atoms: O_11  and  C_12
REMARK    4  A    between atoms: C_17  and  N_18
REMARK    5  A    between atoms: C_40  and  C_42
REMARK                            x       y       z     vdW  Elec       q    Type
REMARK                         _______ _______ _______ _____ _____    ______ ____
ROOT
ATOM      1  C   UNL     1     -10.696  13.842  68.899  0.00  0.00    -0.021 A 
ATOM      2  C   UNL     1     -10.018  12.647  68.709  0.00  0.00    +0.017 A 
ATOM      3  C   UNL     1      -8.809  12.740  68.036  0.00  0.00    +0.081 A 
ATOM      4  C   UNL     1      -8.096  11.564  67.888  0.00  0.00    +0.022 A 
ATOM      5  C   UNL     1      -8.734  10.355  68.071  0.00  0.00    +0.039 A 
ATOM      6  C   UNL     1     -10.086  10.277  68.373  0.00  0.00    +0.150 A 
ATOM      7  N   UNL     1      -8.545  13.828  67.289  0.00  0.00    -0.244 NA
ATOM      8  C   UNL     1      -9.426  14.848  67.146  0.00  0.00    +0.095 A 
ATOM      9  C   UNL     1      -9.097  16.235  66.794  0.00  0.00    +0.080 A 
ATOM     10  N   UNL     1     -10.145  17.014  67.153  0.00  0.00    -0.290 N 
ATOM     11  C   UNL     1     -11.155  16.184  67.804  0.00  0.00    +0.137 C 
ATOM     12  C   UNL     1     -10.060  18.343  66.903  0.00  0.00    +0.260 A 
ATOM     13  O   UNL     1     -11.065  19.046  67.221  0.00  0.00    -0.267 OA
ATOM     14  C   UNL     1      -8.853  18.973  66.648  0.00  0.00    +0.076 A 
ATOM     15  C   UNL     1      -8.589  20.351  67.168  0.00  0.00    +0.240 C 
ATOM     16  O   UNL     1      -7.550  20.209  68.133  0.00  0.00    -0.441 OA
ATOM     17  C   UNL     1      -6.487  19.329  67.909  0.00  0.00    +0.349 C 
ATOM     18  C   UNL     1      -6.412  18.749  66.531  0.00  0.00    +0.233 C 
ATOM     19  O   UNL     1      -5.464  17.731  66.466  0.00  0.00    -0.210 OA
ATOM     20  O   UNL     1      -6.043  18.596  68.843  0.00  0.00    -0.247 OA
ATOM     21  C   UNL     1      -7.773  18.196  66.247  0.00  0.00    +0.021 A 
ATOM     22  C   UNL     1      -8.009  16.831  66.178  0.00  0.00    +0.017 A 
ATOM     23  C   UNL     1     -10.647  11.426  68.912  0.00  0.00    +0.039 A 
ATOM     24  C   UNL     1     -10.363  14.969  68.166  0.00  0.00    +0.016 A 
ENDROOT
BRANCH   1  26
ATOM     25  C   UNL     1     -11.400  14.777  70.998  0.00  0.00    +0.005 C 
ATOM     26  C   UNL     1     -11.797  13.866  69.885  0.00  0.00    +0.026 C 
ENDBRANCH   1  26
BRANCH  18  27
ATOM     27  C   UNL     1      -6.013  19.791  65.511  0.00  0.00    +0.046 C 
ATOM     28  C   UNL     1      -5.539  19.027  64.280  0.00  0.00    +0.004 C 
ENDBRANCH  18  27
BRANCH   6  29
ATOM     29  O   UNL     1     -10.784   9.098  68.209  0.00  0.00    -0.410 OA
BRANCH  29  30
ATOM     30  C   UNL     1     -10.577   8.109  69.172  0.00  0.00    +0.409 C 
ATOM     31  N   UNL     1     -11.544   7.761  70.148  0.00  0.00    -0.246 N 
ATOM     32  C   UNL     1     -11.883   8.781  71.137  0.00  0.00    +0.098 C 
ATOM     33  C   UNL     1     -11.674   8.137  72.494  0.00  0.00    +0.038 C 
ATOM     34  C   UNL     1     -10.318   7.440  72.469  0.00  0.00    +0.061 C 
ATOM     35  C   UNL     1     -10.513   6.154  71.703  0.00  0.00    +0.038 C 
ATOM     36  C   UNL     1     -11.551   6.385  70.624  0.00  0.00    +0.098 C 
ATOM     37  O   UNL     1      -9.410   7.645  69.347  0.00  0.00    -0.226 OA
BRANCH  34  38
ATOM     38  N   UNL     1      -9.930   7.232  73.838  0.00  0.00    -0.274 NA
ATOM     39  C   UNL     1      -8.626   7.744  74.161  0.00  0.00    +0.072 C 
ATOM     40  C   UNL     1      -7.506   6.796  73.844  0.00  0.00    +0.017 C 
ATOM     41  C   UNL     1      -7.787   5.377  74.249  0.00  0.00    +0.003 C 
ATOM     42  C   UNL     1      -9.030   5.340  75.128  0.00  0.00    +0.017 C 
ATOM     43  C   UNL     1     -10.163   5.892  74.307  0.00  0.00    +0.072 C 
ENDBRANCH  34  38
ENDBRANCH  29  30
ENDBRANCH   6  29
TORSDOF 5
ENDMDL
MODEL 6
REMARK VINA RESULT:      -7.8      3.551     10.825
REMARK  Name = 
REMARK  5 active torsions:
REMARK  status: ('A' for Active; 'I' for Inactive)
REMARK    1  A    between atoms: C_2  and  C_3
REMARK    2  A    between atoms: C_10  and  O_11
REMARK    3  A    between atoms: O_11  and  C_12
REMARK    4  A    between atoms: C_17  and  N_18
REMARK    5  A    between atoms: C_40  and  C_42
REMARK                            x       y       z     vdW  Elec       q    Type
REMARK                         _______ _______ _______ _____ _____    ______ ____
ROOT
ATOM      1  C   UNL     1     -11.504   9.530  70.841  0.00  0.00    -0.021 A 
ATOM      2  C   UNL     1     -11.472  10.052  69.558  0.00  0.00    +0.017 A 
ATOM      3  C   UNL     1     -10.602   9.431  68.675  0.00  0.00    +0.081 A 
ATOM      4  C   UNL     1     -10.600   9.905  67.376  0.00  0.00    +0.022 A 
ATOM      5  C   UNL     1     -11.151  11.140  67.103  0.00  0.00    +0.039 A 
ATOM      6  C   UNL     1     -11.685  11.941  68.102  0.00  0.00    +0.150 A 
ATOM      7  N   UNL     1      -9.599   8.671  69.154  0.00  0.00    -0.244 NA
ATOM      8  C   UNL     1      -9.384   8.495  70.481  0.00  0.00    +0.095 A 
ATOM      9  C   UNL     1      -8.684   7.364  71.104  0.00  0.00    +0.080 A 
ATOM     10  N   UNL     1      -9.032   7.330  72.412  0.00  0.00    -0.290 N 
ATOM     11  C   UNL     1     -10.011   8.382  72.672  0.00  0.00    +0.137 C 
ATOM     12  C   UNL     1      -8.484   6.364  73.186  0.00  0.00    +0.260 A 
ATOM     13  O   UNL     1      -8.803   6.370  74.413  0.00  0.00    -0.267 OA
ATOM     14  C   UNL     1      -7.896   5.229  72.651  0.00  0.00    +0.076 A 
ATOM     15  C   UNL     1      -8.046   3.902  73.328  0.00  0.00    +0.240 C 
ATOM     16  O   UNL     1      -8.830   3.104  72.446  0.00  0.00    -0.441 OA
ATOM     17  C   UNL     1      -8.631   3.166  71.064  0.00  0.00    +0.349 C 
ATOM     18  C   UNL     1      -7.423   3.932  70.622  0.00  0.00    +0.233 C 
ATOM     19  O   UNL     1      -7.426   4.124  69.243  0.00  0.00    -0.210 OA
ATOM     20  O   UNL     1      -9.615   3.178  70.266  0.00  0.00    -0.247 OA
ATOM     21  C   UNL     1      -7.501   5.254  71.320  0.00  0.00    +0.021 A 
ATOM     22  C   UNL     1      -7.777   6.428  70.634  0.00  0.00    +0.017 A 
ATOM     23  C   UNL     1     -12.043  11.286  69.270  0.00  0.00    +0.039 A 
ATOM     24  C   UNL     1     -10.494   8.695  71.292  0.00  0.00    +0.016 A 
ENDROOT
BRANCH   1  26
ATOM     25  C   UNL     1     -13.581   8.763  71.778  0.00  0.00    +0.005 C 
ATOM     26  C   UNL     1     -12.631   9.913  71.719  0.00  0.00    +0.026 C 
ENDBRANCH   1  26
BRANCH  18  27
ATOM     27  C   UNL     1      -6.145   3.200  70.965  0.00  0.00    +0.046 C 
ATOM     28  C   UNL     1      -6.266   1.813  70.347  0.00  0.00    +0.004 C 
ENDBRANCH  18  27
BRANCH   6  29
ATOM     29  O   UNL     1     -11.906  13.287  67.891  0.00  0.00    -0.410 OA
BRANCH  29  30
ATOM     30  C   UNL     1     -10.857  14.013  67.326  0.00  0.00    +0.409 C 
ATOM     31  N   UNL     1      -9.610  14.206  67.972  0.00  0.00    -0.246 N 
ATOM     32  C   UNL     1      -9.617  14.995  69.201  0.00  0.00    +0.098 C 
ATOM     33  C   UNL     1      -8.601  16.104  68.995  0.00  0.00    +0.038 C 
ATOM     34  C   UNL     1      -8.863  16.719  67.625  0.00  0.00    +0.061 C 
ATOM     35  C   UNL     1      -8.279  15.767  66.610  0.00  0.00    +0.038 C 
ATOM     36  C   UNL     1      -8.433  14.352  67.128  0.00  0.00    +0.098 C 
ATOM     37  O   UNL     1     -11.074  14.727  66.301  0.00  0.00    -0.226 OA
BRANCH  34  38
ATOM     38  N   UNL     1      -8.232  18.011  67.621  0.00  0.00    -0.274 NA
ATOM     39  C   UNL     1      -8.698  18.893  68.656  0.00  0.00    +0.072 C 
ATOM     40  C   UNL     1      -9.942  19.652  68.294  0.00  0.00    +0.017 C 
ATOM     41  C   UNL     1      -9.920  20.210  66.899  0.00  0.00    +0.003 C 
ATOM     42  C   UNL     1      -8.515  20.086  66.328  0.00  0.00    +0.017 C 
ATOM     43  C   UNL     1      -8.174  18.621  66.318  0.00  0.00    +0.072 C 
ENDBRANCH  34  38
ENDBRANCH  29  30
ENDBRANCH   6  29
TORSDOF 5
ENDMDL
MODEL 7
REMARK VINA RESULT:      -7.7      2.277     10.368
REMARK  Name = 
REMARK  5 active torsions:
REMARK  status: ('A' for Active; 'I' for Inactive)
REMARK    1  A    between atoms: C_2  and  C_3
REMARK    2  A    between atoms: C_10  and  O_11
REMARK    3  A    between atoms: O_11  and  C_12
REMARK    4  A    between atoms: C_17  and  N_18
REMARK    5  A    between atoms: C_40  and  C_42
REMARK                            x       y       z     vdW  Elec       q    Type
REMARK                         _______ _______ _______ _____ _____    ______ ____
ROOT
ATOM      1  C   UNL     1      -8.872  13.063  68.012  0.00  0.00    -0.021 A 
ATOM      2  C   UNL     1      -9.601  14.184  68.377  0.00  0.00    +0.017 A 
ATOM      3  C   UNL     1     -10.685  13.955  69.210  0.00  0.00    +0.081 A 
ATOM      4  C   UNL     1     -11.388  15.071  69.628  0.00  0.00    +0.022 A 
ATOM      5  C   UNL     1     -11.231  16.263  68.953  0.00  0.00    +0.039 A 
ATOM      6  C   UNL     1     -10.407  16.375  67.842  0.00  0.00    +0.150 A 
ATOM      7  N   UNL     1     -11.202  12.715  69.302  0.00  0.00    -0.244 NA
ATOM      8  C   UNL     1     -10.718  11.666  68.594  0.00  0.00    +0.095 A 
ATOM      9  C   UNL     1     -10.850  10.247  68.947  0.00  0.00    +0.080 A 
ATOM     10  N   UNL     1      -9.910   9.559  68.256  0.00  0.00    -0.290 N 
ATOM     11  C   UNL     1      -9.099  10.499  67.488  0.00  0.00    +0.137 C 
ATOM     12  C   UNL     1      -9.863   8.215  68.421  0.00  0.00    +0.260 A 
ATOM     13  O   UNL     1      -8.994   7.590  67.742  0.00  0.00    -0.267 OA
ATOM     14  C   UNL     1     -10.457   7.579  69.499  0.00  0.00    +0.076 A 
ATOM     15  C   UNL     1      -9.801   6.399  70.144  0.00  0.00    +0.240 C 
ATOM     16  O   UNL     1      -9.433   6.828  71.453  0.00  0.00    -0.441 OA
ATOM     17  C   UNL     1     -10.284   7.650  72.197  0.00  0.00    +0.349 C 
ATOM     18  C   UNL     1     -11.654   7.843  71.625  0.00  0.00    +0.233 C 
ATOM     19  O   UNL     1     -12.349   8.837  72.310  0.00  0.00    -0.210 OA
ATOM     20  O   UNL     1      -9.825   8.620  72.870  0.00  0.00    -0.247 OA
ATOM     21  C   UNL     1     -11.447   8.255  70.202  0.00  0.00    +0.021 A 
ATOM     22  C   UNL     1     -11.719   9.544  69.766  0.00  0.00    +0.017 A 
ATOM     23  C   UNL     1      -9.434  15.395  67.716  0.00  0.00    +0.039 A 
ATOM     24  C   UNL     1      -9.399  11.792  68.177  0.00  0.00    +0.016 A 
ENDROOT
BRANCH   1  26
ATOM     25  C   UNL     1      -6.522  13.140  68.508  0.00  0.00    +0.005 C 
ATOM     26  C   UNL     1      -7.534  13.267  67.419  0.00  0.00    +0.026 C 
ENDBRANCH   1  26
BRANCH  18  27
ATOM     27  C   UNL     1     -12.479   6.579  71.721  0.00  0.00    +0.046 C 
ATOM     28  C   UNL     1     -13.934   7.004  71.560  0.00  0.00    +0.004 C 
ENDBRANCH  18  27
BRANCH   6  29
ATOM     29  O   UNL     1     -10.521  17.444  66.977  0.00  0.00    -0.410 OA
BRANCH  29  30
ATOM     30  C   UNL     1      -9.629  18.501  67.167  0.00  0.00    +0.409 C 
ATOM     31  N   UNL     1      -8.463  18.683  66.383  0.00  0.00    -0.246 N 
ATOM     32  C   UNL     1      -7.423  17.665  66.497  0.00  0.00    +0.098 C 
ATOM     33  C   UNL     1      -6.146  18.405  66.851  0.00  0.00    +0.038 C 
ATOM     34  C   UNL     1      -6.474  19.373  67.983  0.00  0.00    +0.061 C 
ATOM     35  C   UNL     1      -7.179  20.548  67.350  0.00  0.00    +0.038 C 
ATOM     36  C   UNL     1      -7.999  20.049  66.179  0.00  0.00    +0.098 C 
ATOM     37  O   UNL     1      -9.719  19.210  68.214  0.00  0.00    -0.226 OA
BRANCH  34  38
ATOM     38  N   UNL     1      -5.226  19.725  68.604  0.00  0.00    -0.274 NA
ATOM     39  C   UNL     1      -4.668  18.687  69.427  0.00  0.00    +0.072 C 
ATOM     40  C   UNL     1      -5.203  18.671  70.830  0.00  0.00    +0.017 C 
ATOM     41  C   UNL     1      -5.304  20.036  71.450  0.00  0.00    +0.003 C 
ATOM     42  C   UNL     1      -4.570  21.043  70.576  0.00  0.00    +0.017 C 
ATOM     43  C   UNL     1      -5.238  21.022  69.229  0.00  0.00    +0.072 C 
ENDBRANCH  34  38
ENDBRANCH  29  30
ENDBRANCH   6  29
TORSDOF 5
ENDMDL
MODEL 8
REMARK VINA RESULT:      -7.6      3.028     10.665
REMARK  Name = 
REMARK  5 active torsions:
REMARK  status: ('A' for Active; 'I' for Inactive)
REMARK    1  A    between atoms: C_2  and  C_3
REMARK    2  A    between atoms: C_10  and  O_11
REMARK    3  A    between atoms: O_11  and  C_12
REMARK    4  A    between atoms: C_17  and  N_18
REMARK    5  A    between atoms: C_40  and  C_42
REMARK                            x       y       z     vdW  Elec       q    Type
REMARK                         _______ _______ _______ _____ _____    ______ ____
ROOT
ATOM      1  C   UNL     1     -10.894  11.707  68.060  0.00  0.00    -0.021 A 
ATOM      2  C   UNL     1     -11.002  12.374  66.849  0.00  0.00    +0.017 A 
ATOM      3  C   UNL     1     -10.526  11.692  65.740  0.00  0.00    +0.081 A 
ATOM      4  C   UNL     1     -10.679  12.322  64.517  0.00  0.00    +0.022 A 
ATOM      5  C   UNL     1     -10.942  13.675  64.479  0.00  0.00    +0.039 A 
ATOM      6  C   UNL     1     -11.031  14.438  65.635  0.00  0.00    +0.150 A 
ATOM      7  N   UNL     1      -9.672  10.665  65.907  0.00  0.00    -0.244 NA
ATOM      8  C   UNL     1      -9.233  10.270  67.126  0.00  0.00    +0.095 A 
ATOM      9  C   UNL     1      -8.728   8.936  67.476  0.00  0.00    +0.080 A 
ATOM     10  N   UNL     1      -8.788   8.809  68.823  0.00  0.00    -0.290 N 
ATOM     11  C   UNL     1      -9.389  10.013  69.388  0.00  0.00    +0.137 C 
ATOM     12  C   UNL     1      -8.352   7.648  69.368  0.00  0.00    +0.260 A 
ATOM     13  O   UNL     1      -8.392   7.564  70.632  0.00  0.00    -0.267 OA
ATOM     14  C   UNL     1      -8.200   6.490  68.623  0.00  0.00    +0.076 A 
ATOM     15  C   UNL     1      -8.535   5.156  69.212  0.00  0.00    +0.240 C 
ATOM     16  O   UNL     1      -9.665   4.683  68.482  0.00  0.00    -0.441 OA
ATOM     17  C   UNL     1      -9.754   4.882  67.102  0.00  0.00    +0.349 C 
ATOM     18  C   UNL     1      -8.513   5.401  66.446  0.00  0.00    +0.233 C 
ATOM     19  O   UNL     1      -8.758   5.770  65.125  0.00  0.00    -0.210 OA
ATOM     20  O   UNL     1     -10.848   5.225  66.564  0.00  0.00    -0.247 OA
ATOM     21  C   UNL     1      -8.103   6.601  67.241  0.00  0.00    +0.021 A 
ATOM     22  C   UNL     1      -8.209   7.887  66.733  0.00  0.00    +0.017 A 
ATOM     23  C   UNL     1     -11.288  13.733  66.801  0.00  0.00    +0.039 A 
ATOM     24  C   UNL     1     -10.058  10.610  68.191  0.00  0.00    +0.016 A 
ENDROOT
BRANCH   1  26
ATOM     25  C   UNL     1     -12.428  11.074  69.798  0.00  0.00    +0.005 C 
ATOM     26  C   UNL     1     -11.674  12.218  69.207  0.00  0.00    +0.026 C 
ENDBRANCH   1  26
BRANCH  18  27
ATOM     27  C   UNL     1      -7.420   4.356  66.417  0.00  0.00    +0.046 C 
ATOM     28  C   UNL     1      -8.018   3.129  65.740  0.00  0.00    +0.004 C 
ENDBRANCH  18  27
BRANCH   6  29
ATOM     29  O   UNL     1     -10.942  15.814  65.587  0.00  0.00    -0.410 OA
BRANCH  29  30
ATOM     30  C   UNL     1      -9.930  16.403  66.345  0.00  0.00    +0.409 C 
ATOM     31  N   UNL     1     -10.156  17.475  67.244  0.00  0.00    -0.246 N 
ATOM     32  C   UNL     1     -10.588  18.744  66.666  0.00  0.00    +0.098 C 
ATOM     33  C   UNL     1      -9.607  19.789  67.166  0.00  0.00    +0.038 C 
ATOM     34  C   UNL     1      -8.201  19.234  66.966  0.00  0.00    +0.061 C 
ATOM     35  C   UNL     1      -7.971  18.242  68.081  0.00  0.00    +0.038 C 
ATOM     36  C   UNL     1      -9.286  17.568  68.409  0.00  0.00    +0.098 C 
ATOM     37  O   UNL     1      -8.718  16.144  66.074  0.00  0.00    -0.226 OA
BRANCH  34  38
ATOM     38  N   UNL     1      -7.301  20.355  67.007  0.00  0.00    -0.274 NA
ATOM     39  C   UNL     1      -6.475  20.485  65.838  0.00  0.00    +0.072 C 
ATOM     40  C   UNL     1      -5.225  19.655  65.881  0.00  0.00    +0.017 C 
ATOM     41  C   UNL     1      -4.519  19.700  67.207  0.00  0.00    +0.003 C 
ATOM     42  C   UNL     1      -5.124  20.804  68.062  0.00  0.00    +0.017 C 
ATOM     43  C   UNL     1      -6.578  20.469  68.247  0.00  0.00    +0.072 C 
ENDBRANCH  34  38
ENDBRANCH  29  30
ENDBRANCH   6  29
TORSDOF 5
ENDMDL
MODEL 9
REMARK VINA RESULT:      -7.6      3.257     10.457
REMARK  Name = 
REMARK  5 active torsions:
REMARK  status: ('A' for Active; 'I' for Inactive)
REMARK    1  A    between atoms: C_2  and  C_3
REMARK    2  A    between atoms: C_10  and  O_11
REMARK    3  A    between atoms: O_11  and  C_12
REMARK    4  A    between atoms: C_17  and  N_18
REMARK    5  A    between atoms: C_40  and  C_42
REMARK                            x       y       z     vdW  Elec       q    Type
REMARK                         _______ _______ _______ _____ _____    ______ ____
ROOT
ATOM      1  C   UNL     1     -11.102   9.350  70.396  0.00  0.00    -0.021 A 
ATOM      2  C   UNL     1     -11.403  10.469  69.636  0.00  0.00    +0.017 A 
ATOM      3  C   UNL     1     -10.987  10.431  68.314  0.00  0.00    +0.081 A 
ATOM      4  C   UNL     1     -11.330  11.517  67.529  0.00  0.00    +0.022 A 
ATOM      5  C   UNL     1     -11.723  12.694  68.132  0.00  0.00    +0.039 A 
ATOM      6  C   UNL     1     -11.758  12.834  69.512  0.00  0.00    +0.150 A 
ATOM      7  N   UNL     1     -10.027   9.564  67.944  0.00  0.00    -0.244 NA
ATOM      8  C   UNL     1      -9.423   8.724  68.819  0.00  0.00    +0.095 A 
ATOM      9  C   UNL     1      -8.759   7.457  68.488  0.00  0.00    +0.080 A 
ATOM     10  N   UNL     1      -8.661   6.730  69.626  0.00  0.00    -0.290 N 
ATOM     11  C   UNL     1      -9.308   7.457  70.714  0.00  0.00    +0.137 C 
ATOM     12  C   UNL     1      -8.061   5.518  69.552  0.00  0.00    +0.260 A 
ATOM     13  O   UNL     1      -7.955   4.869  70.636  0.00  0.00    -0.267 OA
ATOM     14  C   UNL     1      -7.881   4.852  68.350  0.00  0.00    +0.076 A 
ATOM     15  C   UNL     1      -8.022   3.364  68.276  0.00  0.00    +0.240 C 
ATOM     16  O   UNL     1      -9.175   3.124  67.472  0.00  0.00    -0.441 OA
ATOM     17  C   UNL     1      -9.431   3.910  66.344  0.00  0.00    +0.349 C 
ATOM     18  C   UNL     1      -8.323   4.830  65.937  0.00  0.00    +0.233 C 
ATOM     19  O   UNL     1      -8.744   5.718  64.950  0.00  0.00    -0.210 OA
ATOM     20  O   UNL     1     -10.605   4.309  66.084  0.00  0.00    -0.247 OA
ATOM     21  C   UNL     1      -7.945   5.585  67.172  0.00  0.00    +0.021 A 
ATOM     22  C   UNL     1      -8.227   6.935  67.320  0.00  0.00    +0.017 A 
ATOM     23  C   UNL     1     -11.820  11.652  70.234  0.00  0.00    +0.039 A 
ATOM     24  C   UNL     1     -10.156   8.434  69.963  0.00  0.00    +0.016 A 
ENDROOT
BRANCH   1  26
ATOM     25  C   UNL     1     -12.895   8.188  71.495  0.00  0.00    +0.005 C 
ATOM     26  C   UNL     1     -11.798   9.180  71.689  0.00  0.00    +0.026 C 
ENDBRANCH   1  26
BRANCH  18  27
ATOM     27  C   UNL     1      -7.145   4.066  65.373  0.00  0.00    +0.046 C 
ATOM     28  C   UNL     1      -7.695   3.205  64.242  0.00  0.00    +0.004 C 
ENDBRANCH  18  27
BRANCH   6  29
ATOM     29  O   UNL     1     -11.806  14.083  70.098  0.00  0.00    -0.410 OA
BRANCH  29  30
ATOM     30  C   UNL     1     -11.617  15.178  69.255  0.00  0.00    +0.409 C 
ATOM     31  N   UNL     1     -10.429  15.391  68.512  0.00  0.00    -0.246 N 
ATOM     32  C   UNL     1      -9.210  15.650  69.273  0.00  0.00    +0.098 C 
ATOM     33  C   UNL     1      -8.646  16.951  68.733  0.00  0.00    +0.038 C 
ATOM     34  C   UNL     1      -9.793  17.953  68.657  0.00  0.00    +0.061 C 
ATOM     35  C   UNL     1     -10.592  17.595  67.428  0.00  0.00    +0.038 C 
ATOM     36  C   UNL     1     -10.549  16.093  67.242  0.00  0.00    +0.098 C 
ATOM     37  O   UNL     1     -12.428  16.152  69.307  0.00  0.00    -0.226 OA
BRANCH  34  38
ATOM     38  N   UNL     1      -9.199  19.261  68.588  0.00  0.00    -0.274 NA
ATOM     39  C   UNL     1      -9.641  20.047  67.468  0.00  0.00    +0.072 C 
ATOM     40  C   UNL     1      -8.877  19.784  66.203  0.00  0.00    +0.017 C 
ATOM     41  C   UNL     1      -7.392  19.687  66.407  0.00  0.00    +0.003 C 
ATOM     42  C   UNL     1      -7.044  20.159  67.812  0.00  0.00    +0.017 C 
ATOM     43  C   UNL     1      -7.772  19.258  68.770  0.00  0.00    +0.072 C 
ENDBRANCH  34  38
ENDBRANCH  29  30
ENDBRANCH   6  29
TORSDOF 5
ENDMDL
