MODEL 1
REMARK VINA RESULT:      -7.6      0.000      0.000
REMARK  Name = 
REMARK  15 active torsions:
REMARK  status: ('A' for Active; 'I' for Inactive)
REMARK    1  A    between atoms: C_14  and  C_15
REMARK    2  A    between atoms: C_15  and  C_16
REMARK    3  A    between atoms: C_16  and  C_17
REMARK    4  A    between atoms: C_17  and  C_18
REMARK    5  A    between atoms: C_18  and  C_19
REMARK    6  A    between atoms: C_19  and  C_20
REMARK    7  A    between atoms: C_20  and  C_21
REMARK    8  A    between atoms: C_21  and  C_22
REMARK    9  A    between atoms: C_22  and  C_23
REMARK   10  A    between atoms: C_23  and  S_24
REMARK   11  A    between atoms: S_24  and  C_26
REMARK   12  A    between atoms: C_26  and  C_27
REMARK   13  A    between atoms: C_27  and  C_28
REMARK   14  A    between atoms: C_28  and  C_29
REMARK   15  A    between atoms: C_29  and  C_32
REMARK                            x       y       z     vdW  Elec       q    Type
REMARK                         _______ _______ _______ _____ _____    ______ ____
ROOT
ATOM      1  C   UNL     1      -9.975  12.329  67.970  0.00  0.00    +0.000 C 
ENDROOT
BRANCH   1  20
ATOM      2  C   UNL     1     -13.883  14.052  72.176  0.00  0.00    +0.003 C 
ATOM      3  C   UNL     1     -12.919  13.511  71.162  0.00  0.00    +0.028 C 
ATOM      4  C   UNL     1     -13.112  14.997  71.088  0.00  0.00    +0.152 C 
ATOM      5  O   UNL     1     -14.010  15.815  71.969  0.00  0.00    -0.223 OA
ATOM      6  C   UNL     1     -12.250  15.521  69.978  0.00  0.00    +0.033 C 
ATOM      7  C   UNL     1     -11.524  14.360  69.366  0.00  0.00    +0.003 C 
ATOM      8  C   UNL     1     -11.937  13.117  70.098  0.00  0.00    +0.003 C 
ATOM      9  C   UNL     1     -11.547  11.678  69.934  0.00  0.00    +0.004 C 
ATOM     10  C   UNL     1     -12.138  10.633  70.833  0.00  0.00    +0.022 C 
ATOM     11  C   UNL     1     -11.748   9.194  70.668  0.00  0.00    -0.026 A 
ATOM     12  C   UNL     1     -10.766   8.800  69.604  0.00  0.00    -0.023 A 
ATOM     13  C   UNL     1     -10.176   9.846  68.705  0.00  0.00    +0.026 C 
ATOM     14  C   UNL     1     -10.376   7.362  69.439  0.00  0.00    +0.037 A 
ATOM     15  C   UNL     1     -10.967   6.316  70.339  0.00  0.00    +0.195 A 
ATOM     16  O   UNL     1     -10.576   4.878  70.174  0.00  0.00    -0.287 OA
ATOM     17  C   UNL     1     -11.948   6.710  71.402  0.00  0.00    +0.042 A 
ATOM     18  C   UNL     1     -12.338   8.149  71.567  0.00  0.00    -0.001 A 
ATOM     19  C   UNL     1     -13.119  11.027  71.897  0.00  0.00    +0.004 C 
ATOM     20  C   UNL     1     -10.566  11.285  68.869  0.00  0.00    +0.005 C 
ATOM     21  C   UNL     1     -13.510  12.466  72.061  0.00  0.00    +0.003 C 
ENDBRANCH   1  20
BRANCH   1  22
ATOM     22  C   UNL     1      -9.104  11.924  66.819  0.00  0.00    +0.000 C 
BRANCH  22  23
ATOM     23  C   UNL     1      -7.614  11.883  66.983  0.00  0.00    +0.000 C 
BRANCH  23  24
ATOM     24  C   UNL     1      -6.957  12.680  68.071  0.00  0.00    +0.000 C 
BRANCH  24  25
ATOM     25  C   UNL     1      -6.344  14.013  67.758  0.00  0.00    +0.000 C 
BRANCH  25  26
ATOM     26  C   UNL     1      -7.216  15.228  67.632  0.00  0.00    +0.000 C 
BRANCH  26  27
ATOM     27  C   UNL     1      -8.189  15.569  68.720  0.00  0.00    +0.001 C 
BRANCH  27  28
ATOM     28  C   UNL     1      -8.832  16.924  68.754  0.00  0.00    +0.014 C 
BRANCH  28  29
ATOM     29  C   UNL     1      -8.848  17.777  67.520  0.00  0.00    +0.092 C 
BRANCH  29  30
ATOM     30  S   UNL     1     -10.148  18.084  66.838  0.00  0.00    +0.042 S 
ATOM     31  O   UNL     1     -11.049  19.151  67.386  0.00  0.00    -0.256 OA
BRANCH  30  32
ATOM     32  C   UNL     1     -10.547  17.324  65.608  0.00  0.00    +0.092 C 
BRANCH  32  33
ATOM     33  C   UNL     1     -10.302  15.846  65.527  0.00  0.00    +0.020 C 
BRANCH  33  34
ATOM     34  C   UNL     1     -11.387  14.884  65.907  0.00  0.00    +0.077 C 
BRANCH  34  35
ATOM     35  C   UNL     1     -11.757  13.766  64.978  0.00  0.00    +0.349 C 
ATOM     36  F   UNL     1     -10.371  13.785  64.403  0.00  0.00    -0.195 F 
ATOM     37  F   UNL     1     -13.143  13.747  65.552  0.00  0.00    -0.195 F 
BRANCH  35  38
ATOM     38  C   UNL     1     -12.127  12.647  64.049  0.00  0.00    +0.454 C 
ATOM     39  F   UNL     1     -11.808  11.650  65.123  0.00  0.00    -0.165 F 
ATOM     40  F   UNL     1     -12.446  13.645  62.975  0.00  0.00    -0.165 F 
ATOM     41  F   UNL     1     -12.497  11.528  63.120  0.00  0.00    -0.165 F 
ENDBRANCH  35  38
ENDBRANCH  34  35
ENDBRANCH  33  34
ENDBRANCH  32  33
ENDBRANCH  30  32
ENDBRANCH  29  30
ENDBRANCH  28  29
ENDBRANCH  27  28
ENDBRANCH  26  27
ENDBRANCH  25  26
ENDBRANCH  24  25
ENDBRANCH  23  24
ENDBRANCH  22  23
ENDBRANCH   1  22
TORSDOF 15
ENDMDL
MODEL 2
REMARK VINA RESULT:      -7.5      3.058      4.284
REMARK  Name = 
REMARK  15 active torsions:
REMARK  status: ('A' for Active; 'I' for Inactive)
REMARK    1  A    between atoms: C_14  and  C_15
REMARK    2  A    between atoms: C_15  and  C_16
REMARK    3  A    between atoms: C_16  and  C_17
REMARK    4  A    between atoms: C_17  and  C_18
REMARK    5  A    between atoms: C_18  and  C_19
REMARK    6  A    between atoms: C_19  and  C_20
REMARK    7  A    between atoms: C_20  and  C_21
REMARK    8  A    between atoms: C_21  and  C_22
REMARK    9  A    between atoms: C_22  and  C_23
REMARK   10  A    between atoms: C_23  and  S_24
REMARK   11  A    between atoms: S_24  and  C_26
REMARK   12  A    between atoms: C_26  and  C_27
REMARK   13  A    between atoms: C_27  and  C_28
REMARK   14  A    between atoms: C_28  and  C_29
REMARK   15  A    between atoms: C_29  and  C_32
REMARK                            x       y       z     vdW  Elec       q    Type
REMARK                         _______ _______ _______ _____ _____    ______ ____
ROOT
ATOM      1  C   UNL     1     -10.186  12.457  67.902  0.00  0.00    +0.000 C 
ENDROOT
BRANCH   1  20
ATOM      2  C   UNL     1     -13.929  14.049  72.303  0.00  0.00    +0.003 C 
ATOM      3  C   UNL     1     -13.003  13.539  71.239  0.00  0.00    +0.028 C 
ATOM      4  C   UNL     1     -13.223  15.023  71.198  0.00  0.00    +0.152 C 
ATOM      5  O   UNL     1     -14.093  15.812  72.131  0.00  0.00    -0.223 OA
ATOM      6  C   UNL     1     -12.419  15.579  70.060  0.00  0.00    +0.033 C 
ATOM      7  C   UNL     1     -11.703  14.439  69.397  0.00  0.00    +0.003 C 
ATOM      8  C   UNL     1     -12.064  13.178  70.126  0.00  0.00    +0.003 C 
ATOM      9  C   UNL     1     -11.659  11.749  69.921  0.00  0.00    +0.004 C 
ATOM     10  C   UNL     1     -12.193  10.680  70.828  0.00  0.00    +0.022 C 
ATOM     11  C   UNL     1     -11.788   9.251  70.623  0.00  0.00    -0.026 A 
ATOM     12  C   UNL     1     -10.848   8.890  69.510  0.00  0.00    -0.023 A 
ATOM     13  C   UNL     1     -10.315   9.959  68.603  0.00  0.00    +0.026 C 
ATOM     14  C   UNL     1     -10.443   7.461  69.304  0.00  0.00    +0.037 A 
ATOM     15  C   UNL     1     -10.977   6.392  70.212  0.00  0.00    +0.195 A 
ATOM     16  O   UNL     1     -10.572   4.963  70.006  0.00  0.00    -0.287 OA
ATOM     17  C   UNL     1     -11.916   6.753  71.324  0.00  0.00    +0.042 A 
ATOM     18  C   UNL     1     -12.321   8.182  71.530  0.00  0.00    -0.001 A 
ATOM     19  C   UNL     1     -13.132  11.041  71.941  0.00  0.00    +0.004 C 
ATOM     20  C   UNL     1     -10.720  11.388  68.808  0.00  0.00    +0.005 C 
ATOM     21  C   UNL     1     -13.537  12.471  72.146  0.00  0.00    +0.003 C 
ENDBRANCH   1  20
BRANCH   1  22
ATOM     22  C   UNL     1     -10.357  12.335  66.416  0.00  0.00    +0.000 C 
BRANCH  22  23
ATOM     23  C   UNL     1     -11.663  12.702  65.779  0.00  0.00    +0.000 C 
BRANCH  23  24
ATOM     24  C   UNL     1     -12.098  14.137  65.731  0.00  0.00    +0.000 C 
BRANCH  24  25
ATOM     25  C   UNL     1     -11.446  15.086  64.769  0.00  0.00    +0.000 C 
BRANCH  25  26
ATOM     26  C   UNL     1     -10.529  16.158  65.280  0.00  0.00    +0.000 C 
BRANCH  26  27
ATOM     27  C   UNL     1     -10.429  16.421  66.752  0.00  0.00    +0.001 C 
BRANCH  27  28
ATOM     28  C   UNL     1      -9.171  16.074  67.493  0.00  0.00    +0.014 C 
BRANCH  28  29
ATOM     29  C   UNL     1      -7.891  15.864  66.739  0.00  0.00    +0.092 C 
BRANCH  29  30
ATOM     30  S   UNL     1      -6.678  16.678  67.080  0.00  0.00    +0.042 S 
ATOM     31  O   UNL     1      -5.673  17.007  66.017  0.00  0.00    -0.256 OA
BRANCH  30  32
ATOM     32  C   UNL     1      -6.471  17.164  68.484  0.00  0.00    +0.092 C 
BRANCH  32  33
ATOM     33  C   UNL     1      -6.266  18.626  68.749  0.00  0.00    +0.020 C 
BRANCH  33  34
ATOM     34  C   UNL     1      -7.447  19.519  68.983  0.00  0.00    +0.077 C 
BRANCH  34  35
ATOM     35  C   UNL     1      -8.494  19.673  67.919  0.00  0.00    +0.349 C 
ATOM     36  F   UNL     1      -9.531  19.140  68.863  0.00  0.00    -0.195 F 
ATOM     37  F   UNL     1      -7.457  20.205  66.975  0.00  0.00    -0.195 F 
BRANCH  35  38
ATOM     38  C   UNL     1      -9.541  19.827  66.856  0.00  0.00    +0.454 C 
ATOM     39  F   UNL     1      -8.500  19.600  65.799  0.00  0.00    -0.165 F 
ATOM     40  F   UNL     1     -10.581  20.053  67.913  0.00  0.00    -0.165 F 
ATOM     41  F   UNL     1     -10.588  19.980  65.792  0.00  0.00    -0.165 F 
ENDBRANCH  35  38
ENDBRANCH  34  35
ENDBRANCH  33  34
ENDBRANCH  32  33
ENDBRANCH  30  32
ENDBRANCH  29  30
ENDBRANCH  28  29
ENDBRANCH  27  28
ENDBRANCH  26  27
ENDBRANCH  25  26
ENDBRANCH  24  25
ENDBRANCH  23  24
ENDBRANCH  22  23
ENDBRANCH   1  22
TORSDOF 15
ENDMDL
MODEL 3
REMARK VINA RESULT:      -7.5      1.633      2.326
REMARK  Name = 
REMARK  15 active torsions:
REMARK  status: ('A' for Active; 'I' for Inactive)
REMARK    1  A    between atoms: C_14  and  C_15
REMARK    2  A    between atoms: C_15  and  C_16
REMARK    3  A    between atoms: C_16  and  C_17
REMARK    4  A    between atoms: C_17  and  C_18
REMARK    5  A    between atoms: C_18  and  C_19
REMARK    6  A    between atoms: C_19  and  C_20
REMARK    7  A    between atoms: C_20  and  C_21
REMARK    8  A    between atoms: C_21  and  C_22
REMARK    9  A    between atoms: C_22  and  C_23
REMARK   10  A    between atoms: C_23  and  S_24
REMARK   11  A    between atoms: S_24  and  C_26
REMARK   12  A    between atoms: C_26  and  C_27
REMARK   13  A    between atoms: C_27  and  C_28
REMARK   14  A    between atoms: C_28  and  C_29
REMARK   15  A    between atoms: C_29  and  C_32
REMARK                            x       y       z     vdW  Elec       q    Type
REMARK                         _______ _______ _______ _____ _____    ______ ____
ROOT
ATOM      1  C   UNL     1     -10.086  12.566  67.789  0.00  0.00    +0.000 C 
ENDROOT
BRANCH   1  20
ATOM      2  C   UNL     1     -13.793  14.165  72.219  0.00  0.00    +0.003 C 
ATOM      3  C   UNL     1     -12.878  13.653  71.146  0.00  0.00    +0.028 C 
ATOM      4  C   UNL     1     -13.068  15.142  71.128  0.00  0.00    +0.152 C 
ATOM      5  O   UNL     1     -13.921  15.933  72.075  0.00  0.00    -0.223 OA
ATOM      6  C   UNL     1     -12.254  15.699  69.998  0.00  0.00    +0.033 C 
ATOM      7  C   UNL     1     -11.561  14.555  69.317  0.00  0.00    +0.003 C 
ATOM      8  C   UNL     1     -11.947  13.291  70.027  0.00  0.00    +0.003 C 
ATOM      9  C   UNL     1     -11.572  11.857  69.798  0.00  0.00    +0.004 C 
ATOM     10  C   UNL     1     -12.126  10.785  70.689  0.00  0.00    +0.022 C 
ATOM     11  C   UNL     1     -11.751   9.351  70.461  0.00  0.00    -0.026 A 
ATOM     12  C   UNL     1     -10.820   8.989  69.341  0.00  0.00    -0.023 A 
ATOM     13  C   UNL     1     -10.265  10.061  68.451  0.00  0.00    +0.026 C 
ATOM     14  C   UNL     1     -10.444   7.555  69.113  0.00  0.00    +0.037 A 
ATOM     15  C   UNL     1     -10.999   6.483  70.004  0.00  0.00    +0.195 A 
ATOM     16  O   UNL     1     -10.623   5.049  69.775  0.00  0.00    -0.287 OA
ATOM     17  C   UNL     1     -11.930   6.845  71.122  0.00  0.00    +0.042 A 
ATOM     18  C   UNL     1     -12.306   8.279  71.351  0.00  0.00    -0.001 A 
ATOM     19  C   UNL     1     -13.057  11.147  71.808  0.00  0.00    +0.004 C 
ATOM     20  C   UNL     1     -10.641  11.495  68.679  0.00  0.00    +0.005 C 
ATOM     21  C   UNL     1     -13.433  12.582  72.036  0.00  0.00    +0.003 C 
ENDBRANCH   1  20
BRANCH   1  22
ATOM     22  C   UNL     1      -8.795  12.342  67.059  0.00  0.00    +0.000 C 
BRANCH  22  23
ATOM     23  C   UNL     1      -7.497  12.762  67.682  0.00  0.00    +0.000 C 
BRANCH  23  24
ATOM     24  C   UNL     1      -7.414  14.052  68.444  0.00  0.00    +0.000 C 
BRANCH  24  25
ATOM     25  C   UNL     1      -6.768  15.252  67.817  0.00  0.00    +0.000 C 
BRANCH  25  26
ATOM     26  C   UNL     1      -7.494  16.026  66.757  0.00  0.00    +0.000 C 
BRANCH  26  27
ATOM     27  C   UNL     1      -8.632  16.928  67.133  0.00  0.00    +0.001 C 
BRANCH  27  28
ATOM     28  C   UNL     1      -9.970  16.761  66.476  0.00  0.00    +0.014 C 
BRANCH  28  29
ATOM     29  C   UNL     1     -10.302  15.482  65.766  0.00  0.00    +0.092 C 
BRANCH  29  30
ATOM     30  S   UNL     1     -11.513  15.408  64.883  0.00  0.00    +0.042 S 
ATOM     31  O   UNL     1     -11.697  16.402  63.776  0.00  0.00    -0.256 OA
BRANCH  30  32
ATOM     32  C   UNL     1     -12.541  14.339  65.110  0.00  0.00    +0.092 C 
BRANCH  32  33
ATOM     33  C   UNL     1     -12.162  12.893  64.973  0.00  0.00    +0.020 C 
BRANCH  33  34
ATOM     34  C   UNL     1     -11.408  12.427  63.764  0.00  0.00    +0.077 C 
BRANCH  34  35
ATOM     35  C   UNL     1     -10.411  11.312  63.885  0.00  0.00    +0.349 C 
ATOM     36  F   UNL     1     -11.086  10.845  65.141  0.00  0.00    -0.195 F 
ATOM     37  F   UNL     1      -9.736  11.779  62.629  0.00  0.00    -0.195 F 
BRANCH  35  38
ATOM     38  C   UNL     1      -9.414  10.197  64.006  0.00  0.00    +0.454 C 
ATOM     39  F   UNL     1      -8.657  10.747  62.833  0.00  0.00    -0.165 F 
ATOM     40  F   UNL     1     -10.172   9.648  65.179  0.00  0.00    -0.165 F 
ATOM     41  F   UNL     1      -8.418   9.082  64.127  0.00  0.00    -0.165 F 
ENDBRANCH  35  38
ENDBRANCH  34  35
ENDBRANCH  33  34
ENDBRANCH  32  33
ENDBRANCH  30  32
ENDBRANCH  29  30
ENDBRANCH  28  29
ENDBRANCH  27  28
ENDBRANCH  26  27
ENDBRANCH  25  26
ENDBRANCH  24  25
ENDBRANCH  23  24
ENDBRANCH  22  23
ENDBRANCH   1  22
TORSDOF 15
ENDMDL
MODEL 4
REMARK VINA RESULT:      -7.2      3.012      4.871
REMARK  Name = 
REMARK  15 active torsions:
REMARK  status: ('A' for Active; 'I' for Inactive)
REMARK    1  A    between atoms: C_14  and  C_15
REMARK    2  A    between atoms: C_15  and  C_16
REMARK    3  A    between atoms: C_16  and  C_17
REMARK    4  A    between atoms: C_17  and  C_18
REMARK    5  A    between atoms: C_18  and  C_19
REMARK    6  A    between atoms: C_19  and  C_20
REMARK    7  A    between atoms: C_20  and  C_21
REMARK    8  A    between atoms: C_21  and  C_22
REMARK    9  A    between atoms: C_22  and  C_23
REMARK   10  A    between atoms: C_23  and  S_24
REMARK   11  A    between atoms: S_24  and  C_26
REMARK   12  A    between atoms: C_26  and  C_27
REMARK   13  A    between atoms: C_27  and  C_28
REMARK   14  A    between atoms: C_28  and  C_29
REMARK   15  A    between atoms: C_29  and  C_32
REMARK                            x       y       z     vdW  Elec       q    Type
REMARK                         _______ _______ _______ _____ _____    ______ ____
ROOT
ATOM      1  C   UNL     1      -9.190   8.596  65.184  0.00  0.00    +0.000 C 
ENDROOT
BRANCH   1  20
ATOM      2  C   UNL     1     -12.305  13.673  65.849  0.00  0.00    +0.003 C 
ATOM      3  C   UNL     1     -11.542  12.383  65.797  0.00  0.00    +0.028 C 
ATOM      4  C   UNL     1     -11.635  13.090  64.477  0.00  0.00    +0.152 C 
ATOM      5  O   UNL     1     -12.333  14.394  64.223  0.00  0.00    -0.223 OA
ATOM      6  C   UNL     1     -10.909  12.264  63.457  0.00  0.00    +0.033 C 
ATOM      7  C   UNL     1     -10.366  11.047  64.146  0.00  0.00    +0.003 C 
ATOM      8  C   UNL     1     -10.758  11.120  65.593  0.00  0.00    +0.003 C 
ATOM      9  C   UNL     1     -10.502  10.201  66.750  0.00  0.00    +0.004 C 
ATOM     10  C   UNL     1     -11.029  10.544  68.112  0.00  0.00    +0.022 C 
ATOM     11  C   UNL     1     -10.773   9.625  69.269  0.00  0.00    -0.026 A 
ATOM     12  C   UNL     1      -9.989   8.362  69.064  0.00  0.00    -0.023 A 
ATOM     13  C   UNL     1      -9.462   8.020  67.702  0.00  0.00    +0.026 C 
ATOM     14  C   UNL     1      -9.733   7.442  70.220  0.00  0.00    +0.037 A 
ATOM     15  C   UNL     1     -10.261   7.785  71.583  0.00  0.00    +0.195 A 
ATOM     16  O   UNL     1     -10.004   6.866  72.739  0.00  0.00    -0.287 OA
ATOM     17  C   UNL     1     -11.044   9.047  71.787  0.00  0.00    +0.042 A 
ATOM     18  C   UNL     1     -11.301   9.967  70.631  0.00  0.00    -0.001 A 
ATOM     19  C   UNL     1     -11.813  11.806  68.316  0.00  0.00    +0.004 C 
ATOM     20  C   UNL     1      -9.718   8.939  66.545  0.00  0.00    +0.005 C 
ATOM     21  C   UNL     1     -12.069  12.726  67.159  0.00  0.00    +0.003 C 
ENDBRANCH   1  20
BRANCH   1  22
ATOM     22  C   UNL     1      -7.717   8.659  64.912  0.00  0.00    +0.000 C 
BRANCH  22  23
ATOM     23  C   UNL     1      -6.758   8.936  66.031  0.00  0.00    +0.000 C 
BRANCH  23  24
ATOM     24  C   UNL     1      -6.576  10.338  66.534  0.00  0.00    +0.000 C 
BRANCH  24  25
ATOM     25  C   UNL     1      -6.837  10.656  67.976  0.00  0.00    +0.000 C 
BRANCH  25  26
ATOM     26  C   UNL     1      -7.540  11.929  68.347  0.00  0.00    +0.000 C 
BRANCH  26  27
ATOM     27  C   UNL     1      -7.881  12.934  67.288  0.00  0.00    +0.001 C 
BRANCH  27  28
ATOM     28  C   UNL     1      -8.838  14.048  67.591  0.00  0.00    +0.014 C 
BRANCH  28  29
ATOM     29  C   UNL     1      -8.619  15.408  66.995  0.00  0.00    +0.092 C 
BRANCH  29  30
ATOM     30  S   UNL     1      -9.770  16.361  66.859  0.00  0.00    +0.042 S 
ATOM     31  O   UNL     1     -10.301  16.707  65.500  0.00  0.00    -0.256 OA
BRANCH  30  32
ATOM     32  C   UNL     1     -10.389  16.967  68.083  0.00  0.00    +0.092 C 
BRANCH  32  33
ATOM     33  C   UNL     1     -11.493  16.248  68.800  0.00  0.00    +0.020 C 
BRANCH  33  34
ATOM     34  C   UNL     1     -11.184  15.407  70.002  0.00  0.00    +0.077 C 
BRANCH  34  35
ATOM     35  C   UNL     1     -12.299  14.798  70.799  0.00  0.00    +0.349 C 
ATOM     36  F   UNL     1     -12.863  16.164  71.055  0.00  0.00    -0.195 F 
ATOM     37  F   UNL     1     -11.735  13.431  70.543  0.00  0.00    -0.195 F 
BRANCH  35  38
ATOM     38  C   UNL     1     -13.415  14.188  71.596  0.00  0.00    +0.454 C 
ATOM     39  F   UNL     1     -12.704  12.867  71.581  0.00  0.00    -0.165 F 
ATOM     40  F   UNL     1     -14.125  15.509  71.612  0.00  0.00    -0.165 F 
ATOM     41  F   UNL     1     -14.530  13.579  72.393  0.00  0.00    -0.165 F 
ENDBRANCH  35  38
ENDBRANCH  34  35
ENDBRANCH  33  34
ENDBRANCH  32  33
ENDBRANCH  30  32
ENDBRANCH  29  30
ENDBRANCH  28  29
ENDBRANCH  27  28
ENDBRANCH  26  27
ENDBRANCH  25  26
ENDBRANCH  24  25
ENDBRANCH  23  24
ENDBRANCH  22  23
ENDBRANCH   1  22
TORSDOF 15
ENDMDL
MODEL 5
REMARK VINA RESULT:      -7.1      2.619      3.707
REMARK  Name = 
REMARK  15 active torsions:
REMARK  status: ('A' for Active; 'I' for Inactive)
REMARK    1  A    between atoms: C_14  and  C_15
REMARK    2  A    between atoms: C_15  and  C_16
REMARK    3  A    between atoms: C_16  and  C_17
REMARK    4  A    between atoms: C_17  and  C_18
REMARK    5  A    between atoms: C_18  and  C_19
REMARK    6  A    between atoms: C_19  and  C_20
REMARK    7  A    between atoms: C_20  and  C_21
REMARK    8  A    between atoms: C_21  and  C_22
REMARK    9  A    between atoms: C_22  and  C_23
REMARK   10  A    between atoms: C_23  and  S_24
REMARK   11  A    between atoms: S_24  and  C_26
REMARK   12  A    between atoms: C_26  and  C_27
REMARK   13  A    between atoms: C_27  and  C_28
REMARK   14  A    between atoms: C_28  and  C_29
REMARK   15  A    between atoms: C_29  and  C_32
REMARK                            x       y       z     vdW  Elec       q    Type
REMARK                         _______ _______ _______ _____ _____    ______ ____
ROOT
ATOM      1  C   UNL     1     -10.136  12.725  67.859  0.00  0.00    +0.000 C 
ENDROOT
BRANCH   1  20
ATOM      2  C   UNL     1     -13.859  14.147  72.336  0.00  0.00    +0.003 C 
ATOM      3  C   UNL     1     -12.938  13.678  71.248  0.00  0.00    +0.028 C 
ATOM      4  C   UNL     1     -13.151  15.164  71.271  0.00  0.00    +0.152 C 
ATOM      5  O   UNL     1     -14.015  15.916  72.239  0.00  0.00    -0.223 OA
ATOM      6  C   UNL     1     -12.349  15.764  70.155  0.00  0.00    +0.033 C 
ATOM      7  C   UNL     1     -11.639  14.649  69.442  0.00  0.00    +0.003 C 
ATOM      8  C   UNL     1     -12.004  13.361  70.118  0.00  0.00    +0.003 C 
ATOM      9  C   UNL     1     -11.606  11.940  69.852  0.00  0.00    +0.004 C 
ATOM     10  C   UNL     1     -12.142  10.836  70.714  0.00  0.00    +0.022 C 
ATOM     11  C   UNL     1     -11.745   9.414  70.447  0.00  0.00    -0.026 A 
ATOM     12  C   UNL     1     -10.810   9.097  69.317  0.00  0.00    -0.023 A 
ATOM     13  C   UNL     1     -10.274  10.201  68.455  0.00  0.00    +0.026 C 
ATOM     14  C   UNL     1     -10.412   7.676  69.050  0.00  0.00    +0.037 A 
ATOM     15  C   UNL     1     -10.949   6.572  69.913  0.00  0.00    +0.195 A 
ATOM     16  O   UNL     1     -10.551   5.151  69.645  0.00  0.00    -0.287 OA
ATOM     17  C   UNL     1     -11.883   6.889  71.042  0.00  0.00    +0.042 A 
ATOM     18  C   UNL     1     -12.281   8.310  71.310  0.00  0.00    -0.001 A 
ATOM     19  C   UNL     1     -13.077  11.153  71.844  0.00  0.00    +0.004 C 
ATOM     20  C   UNL     1     -10.672  11.622  68.722  0.00  0.00    +0.005 C 
ATOM     21  C   UNL     1     -13.475  12.575  72.111  0.00  0.00    +0.003 C 
ENDBRANCH   1  20
BRANCH   1  22
ATOM     22  C   UNL     1      -8.665  12.813  67.580  0.00  0.00    +0.000 C 
BRANCH  22  23
ATOM     23  C   UNL     1      -7.811  13.776  68.349  0.00  0.00    +0.000 C 
BRANCH  23  24
ATOM     24  C   UNL     1      -7.517  15.135  67.784  0.00  0.00    +0.000 C 
BRANCH  24  25
ATOM     25  C   UNL     1      -8.614  16.152  67.669  0.00  0.00    +0.000 C 
BRANCH  25  26
ATOM     26  C   UNL     1      -9.212  16.460  66.328  0.00  0.00    +0.000 C 
BRANCH  26  27
ATOM     27  C   UNL     1     -10.531  15.862  65.939  0.00  0.00    +0.001 C 
BRANCH  27  28
ATOM     28  C   UNL     1     -10.588  14.784  64.897  0.00  0.00    +0.014 C 
BRANCH  28  29
ATOM     29  C   UNL     1     -11.909  14.192  64.503  0.00  0.00    +0.092 C 
BRANCH  29  30
ATOM     30  S   UNL     1     -12.019  12.722  64.224  0.00  0.00    +0.042 S 
ATOM     31  O   UNL     1     -13.246  12.174  63.558  0.00  0.00    -0.256 OA
BRANCH  30  32
ATOM     32  C   UNL     1     -10.900  11.801  64.611  0.00  0.00    +0.092 C 
BRANCH  32  33
ATOM     33  C   UNL     1      -9.956  11.286  63.565  0.00  0.00    +0.020 C 
BRANCH  33  34
ATOM     34  C   UNL     1      -9.394   9.901  63.678  0.00  0.00    +0.077 C 
BRANCH  34  35
ATOM     35  C   UNL     1      -8.643   9.494  64.911  0.00  0.00    +0.349 C 
ATOM     36  F   UNL     1      -9.898   8.898  65.479  0.00  0.00    -0.195 F 
ATOM     37  F   UNL     1      -7.389  10.090  64.344  0.00  0.00    -0.195 F 
BRANCH  35  38
ATOM     38  C   UNL     1      -7.892   9.087  66.145  0.00  0.00    +0.454 C 
ATOM     39  F   UNL     1      -8.631   7.782  66.164  0.00  0.00    -0.165 F 
ATOM     40  F   UNL     1      -7.153  10.393  66.125  0.00  0.00    -0.165 F 
ATOM     41  F   UNL     1      -7.141   8.681  67.378  0.00  0.00    -0.165 F 
ENDBRANCH  35  38
ENDBRANCH  34  35
ENDBRANCH  33  34
ENDBRANCH  32  33
ENDBRANCH  30  32
ENDBRANCH  29  30
ENDBRANCH  28  29
ENDBRANCH  27  28
ENDBRANCH  26  27
ENDBRANCH  25  26
ENDBRANCH  24  25
ENDBRANCH  23  24
ENDBRANCH  22  23
ENDBRANCH   1  22
TORSDOF 15
ENDMDL
MODEL 6
REMARK VINA RESULT:      -7.0      2.258      3.680
REMARK  Name = 
REMARK  15 active torsions:
REMARK  status: ('A' for Active; 'I' for Inactive)
REMARK    1  A    between atoms: C_14  and  C_15
REMARK    2  A    between atoms: C_15  and  C_16
REMARK    3  A    between atoms: C_16  and  C_17
REMARK    4  A    between atoms: C_17  and  C_18
REMARK    5  A    between atoms: C_18  and  C_19
REMARK    6  A    between atoms: C_19  and  C_20
REMARK    7  A    between atoms: C_20  and  C_21
REMARK    8  A    between atoms: C_21  and  C_22
REMARK    9  A    between atoms: C_22  and  C_23
REMARK   10  A    between atoms: C_23  and  S_24
REMARK   11  A    between atoms: S_24  and  C_26
REMARK   12  A    between atoms: C_26  and  C_27
REMARK   13  A    between atoms: C_27  and  C_28
REMARK   14  A    between atoms: C_28  and  C_29
REMARK   15  A    between atoms: C_29  and  C_32
REMARK                            x       y       z     vdW  Elec       q    Type
REMARK                         _______ _______ _______ _____ _____    ______ ____
ROOT
ATOM      1  C   UNL     1     -10.165  12.453  67.871  0.00  0.00    +0.000 C 
ENDROOT
BRANCH   1  20
ATOM      2  C   UNL     1     -13.881  14.111  72.272  0.00  0.00    +0.003 C 
ATOM      3  C   UNL     1     -12.962  13.586  71.209  0.00  0.00    +0.028 C 
ATOM      4  C   UNL     1     -13.171  15.070  71.156  0.00  0.00    +0.152 C 
ATOM      5  O   UNL     1     -14.032  15.874  72.085  0.00  0.00    -0.223 OA
ATOM      6  C   UNL     1     -12.367  15.611  70.010  0.00  0.00    +0.033 C 
ATOM      7  C   UNL     1     -11.662  14.459  69.355  0.00  0.00    +0.003 C 
ATOM      8  C   UNL     1     -12.030  13.208  70.096  0.00  0.00    +0.003 C 
ATOM      9  C   UNL     1     -11.636  11.774  69.902  0.00  0.00    +0.004 C 
ATOM     10  C   UNL     1     -12.175  10.717  70.820  0.00  0.00    +0.022 C 
ATOM     11  C   UNL     1     -11.782   9.283  70.625  0.00  0.00    -0.026 A 
ATOM     12  C   UNL     1     -10.849   8.905  69.513  0.00  0.00    -0.023 A 
ATOM     13  C   UNL     1     -10.310   9.962  68.595  0.00  0.00    +0.026 C 
ATOM     14  C   UNL     1     -10.455   7.471  69.318  0.00  0.00    +0.037 A 
ATOM     15  C   UNL     1     -10.994   6.414  70.236  0.00  0.00    +0.195 A 
ATOM     16  O   UNL     1     -10.600   4.980  70.041  0.00  0.00    -0.287 OA
ATOM     17  C   UNL     1     -11.926   6.792  71.348  0.00  0.00    +0.042 A 
ATOM     18  C   UNL     1     -12.320   8.226  71.543  0.00  0.00    -0.001 A 
ATOM     19  C   UNL     1     -13.108  11.094  71.932  0.00  0.00    +0.004 C 
ATOM     20  C   UNL     1     -10.704  11.396  68.789  0.00  0.00    +0.005 C 
ATOM     21  C   UNL     1     -13.501  12.529  72.127  0.00  0.00    +0.003 C 
ENDBRANCH   1  20
BRANCH   1  22
ATOM     22  C   UNL     1      -9.885  12.127  66.434  0.00  0.00    +0.000 C 
BRANCH  22  23
ATOM     23  C   UNL     1     -11.018  11.987  65.462  0.00  0.00    +0.000 C 
BRANCH  23  24
ATOM     24  C   UNL     1     -12.149  12.973  65.480  0.00  0.00    +0.000 C 
BRANCH  24  25
ATOM     25  C   UNL     1     -11.993  14.304  64.808  0.00  0.00    +0.000 C 
BRANCH  25  26
ATOM     26  C   UNL     1     -10.715  15.075  64.957  0.00  0.00    +0.000 C 
BRANCH  26  27
ATOM     27  C   UNL     1     -10.742  16.478  65.487  0.00  0.00    +0.001 C 
BRANCH  27  28
ATOM     28  C   UNL     1     -10.397  16.745  66.922  0.00  0.00    +0.014 C 
BRANCH  28  29
ATOM     29  C   UNL     1     -10.320  18.156  67.425  0.00  0.00    +0.092 C 
BRANCH  29  30
ATOM     30  S   UNL     1      -9.722  19.227  66.562  0.00  0.00    +0.042 S 
ATOM     31  O   UNL     1     -10.595  20.016  65.632  0.00  0.00    -0.256 OA
BRANCH  30  32
ATOM     32  C   UNL     1      -8.250  19.510  66.630  0.00  0.00    +0.092 C 
BRANCH  32  33
ATOM     33  C   UNL     1      -7.275  18.560  66.000  0.00  0.00    +0.020 C 
BRANCH  33  34
ATOM     34  C   UNL     1      -6.331  17.775  66.860  0.00  0.00    +0.077 C 
BRANCH  34  35
ATOM     35  C   UNL     1      -6.825  16.580  67.621  0.00  0.00    +0.349 C 
ATOM     36  F   UNL     1      -6.272  17.159  68.890  0.00  0.00    -0.195 F 
ATOM     37  F   UNL     1      -7.379  16.001  66.353  0.00  0.00    -0.195 F 
BRANCH  35  38
ATOM     38  C   UNL     1      -7.320  15.386  68.382  0.00  0.00    +0.454 C 
ATOM     39  F   UNL     1      -7.585  14.672  67.090  0.00  0.00    -0.165 F 
ATOM     40  F   UNL     1      -7.055  16.099  69.675  0.00  0.00    -0.165 F 
ATOM     41  F   UNL     1      -7.814  14.191  69.143  0.00  0.00    -0.165 F 
ENDBRANCH  35  38
ENDBRANCH  34  35
ENDBRANCH  33  34
ENDBRANCH  32  33
ENDBRANCH  30  32
ENDBRANCH  29  30
ENDBRANCH  28  29
ENDBRANCH  27  28
ENDBRANCH  26  27
ENDBRANCH  25  26
ENDBRANCH  24  25
ENDBRANCH  23  24
ENDBRANCH  22  23
ENDBRANCH   1  22
TORSDOF 15
ENDMDL
MODEL 7
REMARK VINA RESULT:      -7.0      2.305      6.246
REMARK  Name = 
REMARK  15 active torsions:
REMARK  status: ('A' for Active; 'I' for Inactive)
REMARK    1  A    between atoms: C_14  and  C_15
REMARK    2  A    between atoms: C_15  and  C_16
REMARK    3  A    between atoms: C_16  and  C_17
REMARK    4  A    between atoms: C_17  and  C_18
REMARK    5  A    between atoms: C_18  and  C_19
REMARK    6  A    between atoms: C_19  and  C_20
REMARK    7  A    between atoms: C_20  and  C_21
REMARK    8  A    between atoms: C_21  and  C_22
REMARK    9  A    between atoms: C_22  and  C_23
REMARK   10  A    between atoms: C_23  and  S_24
REMARK   11  A    between atoms: S_24  and  C_26
REMARK   12  A    between atoms: C_26  and  C_27
REMARK   13  A    between atoms: C_27  and  C_28
REMARK   14  A    between atoms: C_28  and  C_29
REMARK   15  A    between atoms: C_29  and  C_32
REMARK                            x       y       z     vdW  Elec       q    Type
REMARK                         _______ _______ _______ _____ _____    ______ ____
ROOT
ATOM      1  C   UNL     1     -12.006  12.006  70.954  0.00  0.00    +0.000 C 
ENDROOT
BRANCH   1  20
ATOM      2  C   UNL     1      -9.588   6.965  68.794  0.00  0.00    +0.003 C 
ATOM      3  C   UNL     1     -10.198   8.266  69.224  0.00  0.00    +0.028 C 
ATOM      4  C   UNL     1      -9.920   7.319  70.354  0.00  0.00    +0.152 C 
ATOM      5  O   UNL     1      -9.317   5.951  70.231  0.00  0.00    -0.223 OA
ATOM      6  C   UNL     1     -10.350   7.981  71.630  0.00  0.00    +0.033 C 
ATOM      7  C   UNL     1     -10.895   9.337  71.288  0.00  0.00    +0.003 C 
ATOM      8  C   UNL     1     -10.800   9.513  69.801  0.00  0.00    +0.003 C 
ATOM      9  C   UNL     1     -11.185  10.647  68.898  0.00  0.00    +0.004 C 
ATOM     10  C   UNL     1     -10.968  10.535  67.418  0.00  0.00    +0.022 C 
ATOM     11  C   UNL     1     -11.352  11.668  66.514  0.00  0.00    -0.026 A 
ATOM     12  C   UNL     1     -11.955  12.915  67.091  0.00  0.00    -0.023 A 
ATOM     13  C   UNL     1     -12.172  13.027  68.571  0.00  0.00    +0.026 C 
ATOM     14  C   UNL     1     -12.340  14.049  66.189  0.00  0.00    +0.037 A 
ATOM     15  C   UNL     1     -12.122  13.937  64.708  0.00  0.00    +0.195 A 
ATOM     16  O   UNL     1     -12.507  15.071  63.806  0.00  0.00    -0.287 OA
ATOM     17  C   UNL     1     -11.520  12.690  64.132  0.00  0.00    +0.042 A 
ATOM     18  C   UNL     1     -11.135  11.556  65.034  0.00  0.00    -0.001 A 
ATOM     19  C   UNL     1     -10.365   9.288  66.841  0.00  0.00    +0.004 C 
ATOM     20  C   UNL     1     -11.788  11.893  69.474  0.00  0.00    +0.005 C 
ATOM     21  C   UNL     1      -9.980   8.153  67.745  0.00  0.00    +0.003 C 
ENDBRANCH   1  20
BRANCH   1  22
ATOM     22  C   UNL     1     -13.381  12.267  71.493  0.00  0.00    +0.000 C 
BRANCH  22  23
ATOM     23  C   UNL     1     -13.742  13.631  72.000  0.00  0.00    +0.000 C 
BRANCH  23  24
ATOM     24  C   UNL     1     -12.772  14.396  72.852  0.00  0.00    +0.000 C 
BRANCH  24  25
ATOM     25  C   UNL     1     -11.894  15.443  72.233  0.00  0.00    +0.000 C 
BRANCH  25  26
ATOM     26  C   UNL     1     -12.104  15.848  70.804  0.00  0.00    +0.000 C 
BRANCH  26  27
ATOM     27  C   UNL     1     -10.942  16.312  69.977  0.00  0.00    +0.001 C 
BRANCH  27  28
ATOM     28  C   UNL     1     -11.076  16.415  68.486  0.00  0.00    +0.014 C 
BRANCH  28  29
ATOM     29  C   UNL     1     -10.526  17.610  67.766  0.00  0.00    +0.092 C 
BRANCH  29  30
ATOM     30  S   UNL     1      -9.518  18.494  68.440  0.00  0.00    +0.042 S 
ATOM     31  O   UNL     1      -9.962  19.751  69.126  0.00  0.00    -0.256 OA
BRANCH  30  32
ATOM     32  C   UNL     1      -8.065  18.120  68.427  0.00  0.00    +0.092 C 
BRANCH  32  33
ATOM     33  C   UNL     1      -7.330  18.013  67.123  0.00  0.00    +0.020 C 
BRANCH  33  34
ATOM     34  C   UNL     1      -6.962  16.666  66.577  0.00  0.00    +0.077 C 
BRANCH  34  35
ATOM     35  C   UNL     1      -7.579  15.428  67.157  0.00  0.00    +0.349 C 
ATOM     36  F   UNL     1      -8.637  15.456  66.093  0.00  0.00    -0.195 F 
ATOM     37  F   UNL     1      -6.522  15.399  68.221  0.00  0.00    -0.195 F 
BRANCH  35  38
ATOM     38  C   UNL     1      -8.197  14.189  67.737  0.00  0.00    +0.454 C 
ATOM     39  F   UNL     1      -7.443  14.412  69.015  0.00  0.00    -0.165 F 
ATOM     40  F   UNL     1      -8.950  13.966  66.459  0.00  0.00    -0.165 F 
ATOM     41  F   UNL     1      -8.814  12.951  68.317  0.00  0.00    -0.165 F 
ENDBRANCH  35  38
ENDBRANCH  34  35
ENDBRANCH  33  34
ENDBRANCH  32  33
ENDBRANCH  30  32
ENDBRANCH  29  30
ENDBRANCH  28  29
ENDBRANCH  27  28
ENDBRANCH  26  27
ENDBRANCH  25  26
ENDBRANCH  24  25
ENDBRANCH  23  24
ENDBRANCH  22  23
ENDBRANCH   1  22
TORSDOF 15
ENDMDL
MODEL 8
REMARK VINA RESULT:      -7.0      3.025      6.507
REMARK  Name = 
REMARK  15 active torsions:
REMARK  status: ('A' for Active; 'I' for Inactive)
REMARK    1  A    between atoms: C_14  and  C_15
REMARK    2  A    between atoms: C_15  and  C_16
REMARK    3  A    between atoms: C_16  and  C_17
REMARK    4  A    between atoms: C_17  and  C_18
REMARK    5  A    between atoms: C_18  and  C_19
REMARK    6  A    between atoms: C_19  and  C_20
REMARK    7  A    between atoms: C_20  and  C_21
REMARK    8  A    between atoms: C_21  and  C_22
REMARK    9  A    between atoms: C_22  and  C_23
REMARK   10  A    between atoms: C_23  and  S_24
REMARK   11  A    between atoms: S_24  and  C_26
REMARK   12  A    between atoms: C_26  and  C_27
REMARK   13  A    between atoms: C_27  and  C_28
REMARK   14  A    between atoms: C_28  and  C_29
REMARK   15  A    between atoms: C_29  and  C_32
REMARK                            x       y       z     vdW  Elec       q    Type
REMARK                         _______ _______ _______ _____ _____    ______ ____
ROOT
ATOM      1  C   UNL     1     -12.057   8.749  70.696  0.00  0.00    +0.000 C 
ENDROOT
BRANCH   1  20
ATOM      2  C   UNL     1      -9.811  10.711  65.496  0.00  0.00    +0.003 C 
ATOM      3  C   UNL     1     -10.398  10.332  66.824  0.00  0.00    +0.028 C 
ATOM      4  C   UNL     1      -9.890   9.167  66.026  0.00  0.00    +0.152 C 
ATOM      5  O   UNL     1      -9.254   9.237  64.669  0.00  0.00    -0.223 OA
ATOM      6  C   UNL     1     -10.129   7.919  66.824  0.00  0.00    +0.033 C 
ATOM      7  C   UNL     1     -10.785   8.313  68.115  0.00  0.00    +0.003 C 
ATOM      8  C   UNL     1     -10.951   9.804  68.114  0.00  0.00    +0.003 C 
ATOM      9  C   UNL     1     -11.534  10.749  69.122  0.00  0.00    +0.004 C 
ATOM     10  C   UNL     1     -11.565  12.222  68.840  0.00  0.00    +0.022 C 
ATOM     11  C   UNL     1     -12.149  13.167  69.847  0.00  0.00    -0.026 A 
ATOM     12  C   UNL     1     -12.702  12.639  71.138  0.00  0.00    -0.023 A 
ATOM     13  C   UNL     1     -12.671  11.166  71.420  0.00  0.00    +0.026 C 
ATOM     14  C   UNL     1     -13.285  13.584  72.146  0.00  0.00    +0.037 A 
ATOM     15  C   UNL     1     -13.316  15.058  71.864  0.00  0.00    +0.195 A 
ATOM     16  O   UNL     1     -13.899  16.002  72.872  0.00  0.00    -0.287 OA
ATOM     17  C   UNL     1     -12.763  15.585  70.573  0.00  0.00    +0.042 A 
ATOM     18  C   UNL     1     -12.179  14.640  69.565  0.00  0.00    -0.001 A 
ATOM     19  C   UNL     1     -11.012  12.750  67.549  0.00  0.00    +0.004 C 
ATOM     20  C   UNL     1     -12.087  10.221  70.413  0.00  0.00    +0.005 C 
ATOM     21  C   UNL     1     -10.428  11.804  66.541  0.00  0.00    +0.003 C 
ENDBRANCH   1  20
BRANCH   1  22
ATOM     22  C   UNL     1     -11.401   8.237  71.943  0.00  0.00    +0.000 C 
BRANCH  22  23
ATOM     23  C   UNL     1      -9.945   8.502  72.189  0.00  0.00    +0.000 C 
BRANCH  23  24
ATOM     24  C   UNL     1      -8.955   8.344  71.073  0.00  0.00    +0.000 C 
BRANCH  24  25
ATOM     25  C   UNL     1      -8.303   9.553  70.471  0.00  0.00    +0.000 C 
BRANCH  25  26
ATOM     26  C   UNL     1      -7.362   9.400  69.314  0.00  0.00    +0.000 C 
BRANCH  26  27
ATOM     27  C   UNL     1      -7.230  10.500  68.303  0.00  0.00    +0.001 C 
BRANCH  27  28
ATOM     28  C   UNL     1      -6.947  11.903  68.753  0.00  0.00    +0.014 C 
BRANCH  28  29
ATOM     29  C   UNL     1      -6.296  12.874  67.814  0.00  0.00    +0.092 C 
BRANCH  29  30
ATOM     30  S   UNL     1      -6.516  14.348  67.988  0.00  0.00    +0.042 S 
ATOM     31  O   UNL     1      -5.642  15.328  67.265  0.00  0.00    -0.256 OA
BRANCH  30  32
ATOM     32  C   UNL     1      -7.612  14.841  68.886  0.00  0.00    +0.092 C 
BRANCH  32  33
ATOM     33  C   UNL     1      -8.830  15.489  68.297  0.00  0.00    +0.020 C 
BRANCH  33  34
ATOM     34  C   UNL     1      -9.342  16.778  68.866  0.00  0.00    +0.077 C 
BRANCH  34  35
ATOM     35  C   UNL     1      -9.869  17.845  67.951  0.00  0.00    +0.349 C 
ATOM     36  F   UNL     1     -10.991  16.939  67.540  0.00  0.00    -0.195 F 
ATOM     37  F   UNL     1      -8.746  18.752  68.362  0.00  0.00    -0.195 F 
BRANCH  35  38
ATOM     38  C   UNL     1     -10.395  18.912  67.037  0.00  0.00    +0.454 C 
ATOM     39  F   UNL     1     -10.505  17.907  65.928  0.00  0.00    -0.165 F 
ATOM     40  F   UNL     1     -10.285  19.916  68.146  0.00  0.00    -0.165 F 
ATOM     41  F   UNL     1     -10.922  19.979  66.123  0.00  0.00    -0.165 F 
ENDBRANCH  35  38
ENDBRANCH  34  35
ENDBRANCH  33  34
ENDBRANCH  32  33
ENDBRANCH  30  32
ENDBRANCH  29  30
ENDBRANCH  28  29
ENDBRANCH  27  28
ENDBRANCH  26  27
ENDBRANCH  25  26
ENDBRANCH  24  25
ENDBRANCH  23  24
ENDBRANCH  22  23
ENDBRANCH   1  22
TORSDOF 15
ENDMDL
MODEL 9
REMARK VINA RESULT:      -6.9      3.863      7.235
REMARK  Name = 
REMARK  15 active torsions:
REMARK  status: ('A' for Active; 'I' for Inactive)
REMARK    1  A    between atoms: C_14  and  C_15
REMARK    2  A    between atoms: C_15  and  C_16
REMARK    3  A    between atoms: C_16  and  C_17
REMARK    4  A    between atoms: C_17  and  C_18
REMARK    5  A    between atoms: C_18  and  C_19
REMARK    6  A    between atoms: C_19  and  C_20
REMARK    7  A    between atoms: C_20  and  C_21
REMARK    8  A    between atoms: C_21  and  C_22
REMARK    9  A    between atoms: C_22  and  C_23
REMARK   10  A    between atoms: C_23  and  S_24
REMARK   11  A    between atoms: S_24  and  C_26
REMARK   12  A    between atoms: C_26  and  C_27
REMARK   13  A    between atoms: C_27  and  C_28
REMARK   14  A    between atoms: C_28  and  C_29
REMARK   15  A    between atoms: C_29  and  C_32
REMARK                            x       y       z     vdW  Elec       q    Type
REMARK                         _______ _______ _______ _____ _____    ______ ____
ROOT
ATOM      1  C   UNL     1     -10.599  14.571  66.044  0.00  0.00    +0.000 C 
ENDROOT
BRANCH   1  20
ATOM      2  C   UNL     1     -10.489   8.689  67.192  0.00  0.00    +0.003 C 
ATOM      3  C   UNL     1     -10.566  10.176  67.010  0.00  0.00    +0.028 C 
ATOM      4  C   UNL     1      -9.953   9.451  65.849  0.00  0.00    +0.152 C 
ATOM      5  O   UNL     1      -9.744   7.968  65.746  0.00  0.00    -0.223 OA
ATOM      6  C   UNL     1      -9.584  10.467  64.809  0.00  0.00    +0.033 C 
ATOM      7  C   UNL     1      -9.970  11.822  65.327  0.00  0.00    +0.003 C 
ATOM      8  C   UNL     1     -10.577  11.642  66.688  0.00  0.00    +0.003 C 
ATOM      9  C   UNL     1     -11.138  12.622  67.674  0.00  0.00    +0.004 C 
ATOM     10  C   UNL     1     -11.688  12.138  68.983  0.00  0.00    +0.022 C 
ATOM     11  C   UNL     1     -12.249  13.118  69.970  0.00  0.00    -0.026 A 
ATOM     12  C   UNL     1     -12.260  14.584  69.647  0.00  0.00    -0.023 A 
ATOM     13  C   UNL     1     -11.709  15.067  68.339  0.00  0.00    +0.026 C 
ATOM     14  C   UNL     1     -12.820  15.565  70.633  0.00  0.00    +0.037 A 
ATOM     15  C   UNL     1     -13.371  15.080  71.943  0.00  0.00    +0.195 A 
ATOM     16  O   UNL     1     -13.932  16.061  72.929  0.00  0.00    -0.287 OA
ATOM     17  C   UNL     1     -13.360  13.616  72.265  0.00  0.00    +0.042 A 
ATOM     18  C   UNL     1     -12.800  12.635  71.279  0.00  0.00    -0.001 A 
ATOM     19  C   UNL     1     -11.678  10.673  69.305  0.00  0.00    +0.004 C 
ATOM     20  C   UNL     1     -11.149  14.087  67.352  0.00  0.00    +0.005 C 
ATOM     21  C   UNL     1     -11.116   9.692  68.318  0.00  0.00    +0.003 C 
ENDBRANCH   1  20
BRANCH   1  22
ATOM     22  C   UNL     1     -10.257  16.020  65.863  0.00  0.00    +0.000 C 
BRANCH  22  23
ATOM     23  C   UNL     1      -8.950  16.553  66.369  0.00  0.00    +0.000 C 
BRANCH  23  24
ATOM     24  C   UNL     1      -7.900  15.608  66.874  0.00  0.00    +0.000 C 
BRANCH  24  25
ATOM     25  C   UNL     1      -7.632  15.502  68.346  0.00  0.00    +0.000 C 
BRANCH  25  26
ATOM     26  C   UNL     1      -7.650  14.160  69.016  0.00  0.00    +0.000 C 
BRANCH  26  27
ATOM     27  C   UNL     1      -7.484  12.912  68.201  0.00  0.00    +0.001 C 
BRANCH  27  28
ATOM     28  C   UNL     1      -7.687  11.568  68.837  0.00  0.00    +0.014 C 
BRANCH  28  29
ATOM     29  C   UNL     1      -7.135  10.337  68.180  0.00  0.00    +0.092 C 
BRANCH  29  30
ATOM     30  S   UNL     1      -7.220   9.013  68.879  0.00  0.00    +0.042 S 
ATOM     31  O   UNL     1      -7.153   7.741  68.087  0.00  0.00    -0.256 OA
BRANCH  30  32
ATOM     32  C   UNL     1      -7.373   8.960  70.370  0.00  0.00    +0.092 C 
BRANCH  32  33
ATOM     33  C   UNL     1      -8.742   8.925  70.983  0.00  0.00    +0.020 C 
BRANCH  33  34
ATOM     34  C   UNL     1      -9.562   7.672  70.916  0.00  0.00    +0.077 C 
BRANCH  34  35
ATOM     35  C   UNL     1     -11.034   7.721  71.202  0.00  0.00    +0.349 C 
ATOM     36  F   UNL     1     -10.805   8.831  72.185  0.00  0.00    -0.195 F 
ATOM     37  F   UNL     1     -11.263   6.612  70.219  0.00  0.00    -0.195 F 
BRANCH  35  38
ATOM     38  C   UNL     1     -12.506   7.771  71.488  0.00  0.00    +0.454 C 
ATOM     39  F   UNL     1     -12.715   6.563  70.624  0.00  0.00    -0.165 F 
ATOM     40  F   UNL     1     -12.297   8.979  72.353  0.00  0.00    -0.165 F 
ATOM     41  F   UNL     1     -13.978   7.821  71.775  0.00  0.00    -0.165 F 
ENDBRANCH  35  38
ENDBRANCH  34  35
ENDBRANCH  33  34
ENDBRANCH  32  33
ENDBRANCH  30  32
ENDBRANCH  29  30
ENDBRANCH  28  29
ENDBRANCH  27  28
ENDBRANCH  26  27
ENDBRANCH  25  26
ENDBRANCH  24  25
ENDBRANCH  23  24
ENDBRANCH  22  23
ENDBRANCH   1  22
TORSDOF 15
ENDMDL
