MODEL 1
REMARK VINA RESULT:      -7.2      0.000      0.000
REMARK  Name = 
REMARK  4 active torsions:
REMARK  status: ('A' for Active; 'I' for Inactive)
REMARK    1  A    between atoms: C_6  and  N_7
REMARK    2  A    between atoms: N_7  and  C_9
REMARK    3  A    between atoms: C_9  and  O_11
REMARK    4  A    between atoms: O_11  and  C_12
REMARK                            x       y       z     vdW  Elec       q    Type
REMARK                         _______ _______ _______ _____ _____    ______ ____
ROOT
ATOM      1  C   UNL     1     -10.982  10.515  67.622  0.00  0.00    +0.241 C 
ATOM      2  S   UNL     1     -10.074   9.312  68.219  0.00  0.00    +0.007 S 
ENDROOT
BRANCH   1   3
ATOM      3  N   UNL     1     -10.813  11.025  66.304  0.00  0.00    -0.251 N 
ATOM      4  C   UNL     1     -10.195  10.209  65.263  0.00  0.00    +0.121 C 
BRANCH   3   8
ATOM      5  C   UNL     1      -9.226  15.545  65.978  0.00  0.00    +0.031 C 
ATOM      6  C   UNL     1     -10.445  14.678  65.945  0.00  0.00    -0.021 A 
ATOM      7  C   UNL     1     -10.414  13.399  66.451  0.00  0.00    +0.011 A 
ATOM      8  C   UNL     1     -11.208  12.369  66.005  0.00  0.00    +0.054 A 
ATOM      9  C   UNL     1     -12.020  12.620  64.908  0.00  0.00    +0.015 A 
ATOM     10  C   UNL     1     -12.156  13.914  64.443  0.00  0.00    +0.001 A 
ATOM     11  C   UNL     1     -11.407  14.951  64.978  0.00  0.00    -0.004 A 
ENDBRANCH   3   8
ENDBRANCH   1   3
BRANCH   1  12
ATOM     12  O   UNL     1     -12.141  10.857  68.320  0.00  0.00    -0.434 OA
BRANCH  12  13
ATOM     13  C   UNL     1     -11.969  11.382  69.604  0.00  0.00    +0.147 A 
ATOM     14  C   UNL     1     -11.651  12.720  69.804  0.00  0.00    +0.038 A 
ATOM     15  C   UNL     1     -12.271  13.454  70.806  0.00  0.00    +0.003 A 
ATOM     16  C   UNL     1     -13.085  12.832  71.745  0.00  0.00    +0.000 A 
ATOM     17  C   UNL     1     -14.175  13.554  72.210  0.00  0.00    +0.000 A 
ATOM     18  C   UNL     1     -14.399  14.873  71.843  0.00  0.00    +0.000 A 
ATOM     19  C   UNL     1     -13.317  15.536  71.282  0.00  0.00    +0.000 A 
ATOM     20  C   UNL     1     -13.064  11.447  71.746  0.00  0.00    +0.003 A 
ATOM     21  C   UNL     1     -12.187  14.825  70.892  0.00  0.00    +0.000 A 
ATOM     22  C   UNL     1     -12.476  10.722  70.716  0.00  0.00    +0.038 A 
ENDBRANCH  12  13
ENDBRANCH   1  12
TORSDOF 4
ENDMDL
MODEL 2
REMARK VINA RESULT:      -6.9      1.538      2.589
REMARK  Name = 
REMARK  4 active torsions:
REMARK  status: ('A' for Active; 'I' for Inactive)
REMARK    1  A    between atoms: C_6  and  N_7
REMARK    2  A    between atoms: N_7  and  C_9
REMARK    3  A    between atoms: C_9  and  O_11
REMARK    4  A    between atoms: O_11  and  C_12
REMARK                            x       y       z     vdW  Elec       q    Type
REMARK                         _______ _______ _______ _____ _____    ______ ____
ROOT
ATOM      1  C   UNL     1     -11.213  12.561  66.086  0.00  0.00    +0.241 C 
ATOM      2  S   UNL     1     -10.419  11.253  65.552  0.00  0.00    +0.007 S 
ENDROOT
BRANCH   1   3
ATOM      3  N   UNL     1     -11.181  13.811  65.406  0.00  0.00    -0.251 N 
ATOM      4  C   UNL     1     -12.155  14.116  64.361  0.00  0.00    +0.121 C 
BRANCH   3   8
ATOM      5  C   UNL     1     -10.385  18.374  66.674  0.00  0.00    +0.031 C 
ATOM      6  C   UNL     1      -9.732  17.098  66.244  0.00  0.00    -0.021 A 
ATOM      7  C   UNL     1     -10.462  16.101  65.640  0.00  0.00    +0.011 A 
ATOM      8  C   UNL     1     -10.155  14.763  65.712  0.00  0.00    +0.054 A 
ATOM      9  C   UNL     1      -9.097  14.395  66.531  0.00  0.00    +0.015 A 
ATOM     10  C   UNL     1      -8.279  15.371  67.067  0.00  0.00    +0.001 A 
ATOM     11  C   UNL     1      -8.564  16.718  66.897  0.00  0.00    -0.004 A 
ENDBRANCH   3   8
ENDBRANCH   1   3
BRANCH   1  12
ATOM     12  O   UNL     1     -12.178  12.372  67.076  0.00  0.00    -0.434 OA
BRANCH  12  13
ATOM     13  C   UNL     1     -11.766  12.561  68.398  0.00  0.00    +0.147 A 
ATOM     14  C   UNL     1     -11.734  13.825  68.975  0.00  0.00    +0.038 A 
ATOM     15  C   UNL     1     -12.189  14.024  70.272  0.00  0.00    +0.003 A 
ATOM     16  C   UNL     1     -12.514  12.946  71.086  0.00  0.00    +0.000 A 
ATOM     17  C   UNL     1     -13.559  13.127  71.982  0.00  0.00    +0.000 A 
ATOM     18  C   UNL     1     -14.191  14.351  72.143  0.00  0.00    +0.000 A 
ATOM     19  C   UNL     1     -13.515  15.452  71.634  0.00  0.00    +0.000 A 
ATOM     20  C   UNL     1     -12.163  11.694  70.608  0.00  0.00    +0.003 A 
ATOM     21  C   UNL     1     -12.415  15.273  70.803  0.00  0.00    +0.000 A 
ATOM     22  C   UNL     1     -11.748  11.501  69.295  0.00  0.00    +0.038 A 
ENDBRANCH  12  13
ENDBRANCH   1  12
TORSDOF 4
ENDMDL
MODEL 3
REMARK VINA RESULT:      -6.9      3.157      4.350
REMARK  Name = 
REMARK  4 active torsions:
REMARK  status: ('A' for Active; 'I' for Inactive)
REMARK    1  A    between atoms: C_6  and  N_7
REMARK    2  A    between atoms: N_7  and  C_9
REMARK    3  A    between atoms: C_9  and  O_11
REMARK    4  A    between atoms: O_11  and  C_12
REMARK                            x       y       z     vdW  Elec       q    Type
REMARK                         _______ _______ _______ _____ _____    ______ ____
ROOT
ATOM      1  C   UNL     1     -10.820  15.245  66.417  0.00  0.00    +0.241 C 
ATOM      2  S   UNL     1     -11.169  14.655  64.948  0.00  0.00    +0.007 S 
ENDROOT
BRANCH   1   3
ATOM      3  N   UNL     1      -9.671  16.045  66.672  0.00  0.00    -0.251 N 
ATOM      4  C   UNL     1      -8.333  15.463  66.623  0.00  0.00    +0.121 C 
BRANCH   3   8
ATOM      5  C   UNL     1      -7.474  19.786  68.729  0.00  0.00    +0.031 C 
ATOM      6  C   UNL     1      -8.771  19.294  68.168  0.00  0.00    -0.021 A 
ATOM      7  C   UNL     1      -8.996  17.949  67.989  0.00  0.00    +0.011 A 
ATOM      8  C   UNL     1      -9.828  17.423  67.029  0.00  0.00    +0.054 A 
ATOM      9  C   UNL     1     -10.396  18.308  66.123  0.00  0.00    +0.015 A 
ATOM     10  C   UNL     1     -10.278  19.669  66.335  0.00  0.00    +0.001 A 
ATOM     11  C   UNL     1      -9.505  20.168  67.373  0.00  0.00    -0.004 A 
ENDBRANCH   3   8
ENDBRANCH   1   3
BRANCH   1  12
ATOM     12  O   UNL     1     -11.825  15.204  67.384  0.00  0.00    -0.434 OA
BRANCH  12  13
ATOM     13  C   UNL     1     -11.477  14.666  68.627  0.00  0.00    +0.147 A 
ATOM     14  C   UNL     1     -11.301  15.474  69.744  0.00  0.00    +0.038 A 
ATOM     15  C   UNL     1     -11.805  15.094  70.980  0.00  0.00    +0.003 A 
ATOM     16  C   UNL     1     -12.337  13.825  71.174  0.00  0.00    +0.000 A 
ATOM     17  C   UNL     1     -13.401  13.717  72.059  0.00  0.00    +0.000 A 
ATOM     18  C   UNL     1     -13.858  14.796  72.802  0.00  0.00    +0.000 A 
ATOM     19  C   UNL     1     -12.997  15.882  72.882  0.00  0.00    +0.000 A 
ATOM     20  C   UNL     1     -12.140  12.920  70.145  0.00  0.00    +0.003 A 
ATOM     21  C   UNL     1     -11.883  15.953  72.053  0.00  0.00    +0.000 A 
ATOM     22  C   UNL     1     -11.673  13.318  68.897  0.00  0.00    +0.038 A 
ENDBRANCH  12  13
ENDBRANCH   1  12
TORSDOF 4
ENDMDL
MODEL 4
REMARK VINA RESULT:      -6.9      2.429      4.508
REMARK  Name = 
REMARK  4 active torsions:
REMARK  status: ('A' for Active; 'I' for Inactive)
REMARK    1  A    between atoms: C_6  and  N_7
REMARK    2  A    between atoms: N_7  and  C_9
REMARK    3  A    between atoms: C_9  and  O_11
REMARK    4  A    between atoms: O_11  and  C_12
REMARK                            x       y       z     vdW  Elec       q    Type
REMARK                         _______ _______ _______ _____ _____    ______ ____
ROOT
ATOM      1  C   UNL     1     -11.078  10.829  67.353  0.00  0.00    +0.241 C 
ATOM      2  S   UNL     1     -10.931  11.735  66.016  0.00  0.00    +0.007 S 
ENDROOT
BRANCH   1   3
ATOM      3  N   UNL     1     -10.000  10.070  67.890  0.00  0.00    -0.251 N 
ATOM      4  C   UNL     1      -8.750  10.720  68.273  0.00  0.00    +0.121 C 
BRANCH   3   8
ATOM      5  C   UNL     1     -11.663   6.552  70.703  0.00  0.00    +0.031 C 
ATOM      6  C   UNL     1     -10.857   6.853  69.478  0.00  0.00    -0.021 A 
ATOM      7  C   UNL     1     -10.358   8.115  69.256  0.00  0.00    +0.011 A 
ATOM      8  C   UNL     1     -10.121   8.648  68.011  0.00  0.00    +0.054 A 
ATOM      9  C   UNL     1     -10.507   7.894  66.911  0.00  0.00    +0.015 A 
ATOM     10  C   UNL     1     -10.912   6.585  67.091  0.00  0.00    +0.001 A 
ATOM     11  C   UNL     1     -11.052   6.046  68.362  0.00  0.00    -0.004 A 
ENDBRANCH   3   8
ENDBRANCH   1   3
BRANCH   1  12
ATOM     12  O   UNL     1     -12.205  11.031  68.150  0.00  0.00    -0.434 OA
BRANCH  12  13
ATOM     13  C   UNL     1     -11.979  11.510  69.444  0.00  0.00    +0.147 A 
ATOM     14  C   UNL     1     -11.693  12.848  69.684  0.00  0.00    +0.038 A 
ATOM     15  C   UNL     1     -12.281  13.519  70.748  0.00  0.00    +0.003 A 
ATOM     16  C   UNL     1     -13.023  12.833  71.701  0.00  0.00    +0.000 A 
ATOM     17  C   UNL     1     -14.108  13.499  72.253  0.00  0.00    +0.000 A 
ATOM     18  C   UNL     1     -14.392  14.824  71.955  0.00  0.00    +0.000 A 
ATOM     19  C   UNL     1     -13.363  15.545  71.366  0.00  0.00    +0.000 A 
ATOM     20  C   UNL     1     -12.959  11.451  71.642  0.00  0.00    +0.003 A 
ATOM     21  C   UNL     1     -12.235  14.888  70.887  0.00  0.00    +0.000 A 
ATOM     22  C   UNL     1     -12.406  10.788  70.552  0.00  0.00    +0.038 A 
ENDBRANCH  12  13
ENDBRANCH   1  12
TORSDOF 4
ENDMDL
MODEL 5
REMARK VINA RESULT:      -6.6      2.019      4.150
REMARK  Name = 
REMARK  4 active torsions:
REMARK  status: ('A' for Active; 'I' for Inactive)
REMARK    1  A    between atoms: C_6  and  N_7
REMARK    2  A    between atoms: N_7  and  C_9
REMARK    3  A    between atoms: C_9  and  O_11
REMARK    4  A    between atoms: O_11  and  C_12
REMARK                            x       y       z     vdW  Elec       q    Type
REMARK                         _______ _______ _______ _____ _____    ______ ____
ROOT
ATOM      1  C   UNL     1     -11.076  12.035  66.425  0.00  0.00    +0.241 C 
ATOM      2  S   UNL     1     -10.079  11.486  65.271  0.00  0.00    +0.007 S 
ENDROOT
BRANCH   1   3
ATOM      3  N   UNL     1     -11.582  13.365  66.436  0.00  0.00    -0.251 N 
ATOM      4  C   UNL     1     -12.524  13.812  65.414  0.00  0.00    +0.121 C 
BRANCH   3   8
ATOM      5  C   UNL     1     -12.598  15.229  70.744  0.00  0.00    +0.031 C 
ATOM      6  C   UNL     1     -11.689  15.327  69.558  0.00  0.00    -0.021 A 
ATOM      7  C   UNL     1     -12.033  14.752  68.357  0.00  0.00    +0.011 A 
ATOM      8  C   UNL     1     -11.129  14.292  67.430  0.00  0.00    +0.054 A 
ATOM      9  C   UNL     1      -9.786  14.324  67.779  0.00  0.00    +0.015 A 
ATOM     10  C   UNL     1      -9.396  14.988  68.927  0.00  0.00    +0.001 A 
ATOM     11  C   UNL     1     -10.333  15.524  69.798  0.00  0.00    -0.004 A 
ENDBRANCH   3   8
ENDBRANCH   1   3
BRANCH   1  12
ATOM     12  O   UNL     1     -11.675  11.093  67.262  0.00  0.00    -0.434 OA
BRANCH  12  13
ATOM     13  C   UNL     1     -11.248  11.075  68.594  0.00  0.00    +0.147 A 
ATOM     14  C   UNL     1     -12.143  11.230  69.645  0.00  0.00    +0.038 A 
ATOM     15  C   UNL     1     -12.047  10.436  70.780  0.00  0.00    +0.003 A 
ATOM     16  C   UNL     1     -10.955   9.598  70.973  0.00  0.00    +0.000 A 
ATOM     17  C   UNL     1     -11.193   8.396  71.626  0.00  0.00    +0.000 A 
ATOM     18  C   UNL     1     -12.434   8.076  72.158  0.00  0.00    +0.000 A 
ATOM     19  C   UNL     1     -13.315   9.137  72.315  0.00  0.00    +0.000 A 
ATOM     20  C   UNL     1      -9.899   9.761  70.093  0.00  0.00    +0.003 A 
ATOM     21  C   UNL     1     -13.038  10.368  71.732  0.00  0.00    +0.000 A 
ATOM     22  C   UNL     1     -10.019  10.526  68.938  0.00  0.00    +0.038 A 
ENDBRANCH  12  13
ENDBRANCH   1  12
TORSDOF 4
ENDMDL
MODEL 6
REMARK VINA RESULT:      -6.6      2.848      3.951
REMARK  Name = 
REMARK  4 active torsions:
REMARK  status: ('A' for Active; 'I' for Inactive)
REMARK    1  A    between atoms: C_6  and  N_7
REMARK    2  A    between atoms: N_7  and  C_9
REMARK    3  A    between atoms: C_9  and  O_11
REMARK    4  A    between atoms: O_11  and  C_12
REMARK                            x       y       z     vdW  Elec       q    Type
REMARK                         _______ _______ _______ _____ _____    ______ ____
ROOT
ATOM      1  C   UNL     1     -10.366  16.909  67.092  0.00  0.00    +0.241 C 
ATOM      2  S   UNL     1      -9.893  18.412  67.471  0.00  0.00    +0.007 S 
ENDROOT
BRANCH   1   3
ATOM      3  N   UNL     1      -9.551  16.012  66.345  0.00  0.00    -0.251 N 
ATOM      4  C   UNL     1      -8.096  16.109  66.396  0.00  0.00    +0.121 C 
BRANCH   3   8
ATOM      5  C   UNL     1     -10.808  11.387  66.042  0.00  0.00    +0.031 C 
ATOM      6  C   UNL     1     -10.703  12.672  65.282  0.00  0.00    -0.021 A 
ATOM      7  C   UNL     1      -9.923  13.705  65.748  0.00  0.00    +0.011 A 
ATOM      8  C   UNL     1     -10.163  15.034  65.495  0.00  0.00    +0.054 A 
ATOM      9  C   UNL     1     -11.326  15.352  64.806  0.00  0.00    +0.015 A 
ATOM     10  C   UNL     1     -12.075  14.342  64.233  0.00  0.00    +0.001 A 
ATOM     11  C   UNL     1     -11.751  13.008  64.431  0.00  0.00    -0.004 A 
ENDBRANCH   3   8
ENDBRANCH   1   3
BRANCH   1  12
ATOM     12  O   UNL     1     -11.475  16.391  67.763  0.00  0.00    -0.434 OA
BRANCH  12  13
ATOM     13  C   UNL     1     -11.214  15.601  68.887  0.00  0.00    +0.147 A 
ATOM     14  C   UNL     1     -11.167  16.149  70.163  0.00  0.00    +0.038 A 
ATOM     15  C   UNL     1     -11.761  15.498  71.236  0.00  0.00    +0.003 A 
ATOM     16  C   UNL     1     -12.257  14.207  71.101  0.00  0.00    +0.000 A 
ATOM     17  C   UNL     1     -13.388  13.887  71.839  0.00  0.00    +0.000 A 
ATOM     18  C   UNL     1     -13.950  14.768  72.751  0.00  0.00    +0.000 A 
ATOM     19  C   UNL     1     -13.142  15.827  73.143  0.00  0.00    +0.000 A 
ATOM     20  C   UNL     1     -11.937  13.553  69.923  0.00  0.00    +0.003 A 
ATOM     21  C   UNL     1     -11.964  16.099  72.457  0.00  0.00    +0.000 A 
ATOM     22  C   UNL     1     -11.380  14.223  68.840  0.00  0.00    +0.038 A 
ENDBRANCH  12  13
ENDBRANCH   1  12
TORSDOF 4
ENDMDL
MODEL 7
REMARK VINA RESULT:      -6.6      2.016      3.447
REMARK  Name = 
REMARK  4 active torsions:
REMARK  status: ('A' for Active; 'I' for Inactive)
REMARK    1  A    between atoms: C_6  and  N_7
REMARK    2  A    between atoms: N_7  and  C_9
REMARK    3  A    between atoms: C_9  and  O_11
REMARK    4  A    between atoms: O_11  and  C_12
REMARK                            x       y       z     vdW  Elec       q    Type
REMARK                         _______ _______ _______ _____ _____    ______ ____
ROOT
ATOM      1  C   UNL     1     -11.124  14.180  66.056  0.00  0.00    +0.241 C 
ATOM      2  S   UNL     1      -9.630  14.811  66.040  0.00  0.00    +0.007 S 
ENDROOT
BRANCH   1   3
ATOM      3  N   UNL     1     -11.500  13.074  65.244  0.00  0.00    -0.251 N 
ATOM      4  C   UNL     1     -12.871  12.938  64.760  0.00  0.00    +0.121 C 
BRANCH   3   8
ATOM      5  C   UNL     1     -10.029   8.657  66.419  0.00  0.00    +0.031 C 
ATOM      6  C   UNL     1      -9.713   9.867  65.597  0.00  0.00    -0.021 A 
ATOM      7  C   UNL     1     -10.300  11.079  65.874  0.00  0.00    +0.011 A 
ATOM      8  C   UNL     1     -10.540  12.056  64.937  0.00  0.00    +0.054 A 
ATOM      9  C   UNL     1     -10.260  11.752  63.612  0.00  0.00    +0.015 A 
ATOM     10  C   UNL     1      -9.575  10.590  63.311  0.00  0.00    +0.001 A 
ATOM     11  C   UNL     1      -9.263   9.665  64.296  0.00  0.00    -0.004 A 
ENDBRANCH   3   8
ENDBRANCH   1   3
BRANCH   1  12
ATOM     12  O   UNL     1     -11.970  14.551  67.102  0.00  0.00    -0.434 OA
BRANCH  12  13
ATOM     13  C   UNL     1     -11.575  14.178  68.390  0.00  0.00    +0.147 A 
ATOM     14  C   UNL     1     -11.435  15.115  69.407  0.00  0.00    +0.038 A 
ATOM     15  C   UNL     1     -11.901  14.847  70.687  0.00  0.00    +0.003 A 
ATOM     16  C   UNL     1     -12.350  13.578  71.030  0.00  0.00    +0.000 A 
ATOM     17  C   UNL     1     -13.395  13.506  71.942  0.00  0.00    +0.000 A 
ATOM     18  C   UNL     1     -13.909  14.632  72.568  0.00  0.00    +0.000 A 
ATOM     19  C   UNL     1     -13.116  15.770  72.510  0.00  0.00    +0.000 A 
ATOM     20  C   UNL     1     -12.110  12.576  70.105  0.00  0.00    +0.003 A 
ATOM     21  C   UNL     1     -12.018  15.814  71.659  0.00  0.00    +0.000 A 
ATOM     22  C   UNL     1     -11.683  12.859  68.812  0.00  0.00    +0.038 A 
ENDBRANCH  12  13
ENDBRANCH   1  12
TORSDOF 4
ENDMDL
MODEL 8
REMARK VINA RESULT:      -6.6      4.222      5.947
REMARK  Name = 
REMARK  4 active torsions:
REMARK  status: ('A' for Active; 'I' for Inactive)
REMARK    1  A    between atoms: C_6  and  N_7
REMARK    2  A    between atoms: N_7  and  C_9
REMARK    3  A    between atoms: C_9  and  O_11
REMARK    4  A    between atoms: O_11  and  C_12
REMARK                            x       y       z     vdW  Elec       q    Type
REMARK                         _______ _______ _______ _____ _____    ______ ____
ROOT
ATOM      1  C   UNL     1     -10.169  17.423  67.099  0.00  0.00    +0.241 C 
ATOM      2  S   UNL     1      -9.551  16.255  66.159  0.00  0.00    +0.007 S 
ENDROOT
BRANCH   1   3
ATOM      3  N   UNL     1      -9.801  18.792  66.967  0.00  0.00    -0.251 N 
ATOM      4  C   UNL     1     -10.521  19.672  66.051  0.00  0.00    +0.121 C 
BRANCH   3   8
ATOM      5  C   UNL     1      -5.974  17.520  69.574  0.00  0.00    +0.031 C 
ATOM      6  C   UNL     1      -6.807  18.677  69.117  0.00  0.00    -0.021 A 
ATOM      7  C   UNL     1      -8.074  18.481  68.621  0.00  0.00    +0.011 A 
ATOM      8  C   UNL     1      -8.683  19.302  67.702  0.00  0.00    +0.054 A 
ATOM      9  C   UNL     1      -7.926  20.338  67.172  0.00  0.00    +0.015 A 
ATOM     10  C   UNL     1      -6.691  20.628  67.721  0.00  0.00    +0.001 A 
ATOM     11  C   UNL     1      -6.143  19.832  68.716  0.00  0.00    -0.004 A 
ENDBRANCH   3   8
ENDBRANCH   1   3
BRANCH   1  12
ATOM     12  O   UNL     1     -11.300  17.113  67.855  0.00  0.00    -0.434 OA
BRANCH  12  13
ATOM     13  C   UNL     1     -11.148  16.123  68.831  0.00  0.00    +0.147 A 
ATOM     14  C   UNL     1     -11.070  16.442  70.182  0.00  0.00    +0.038 A 
ATOM     15  C   UNL     1     -11.752  15.690  71.128  0.00  0.00    +0.003 A 
ATOM     16  C   UNL     1     -12.379  14.500  70.777  0.00  0.00    +0.000 A 
ATOM     17  C   UNL     1     -13.553  14.186  71.448  0.00  0.00    +0.000 A 
ATOM     18  C   UNL     1     -14.037  14.959  72.494  0.00  0.00    +0.000 A 
ATOM     19  C   UNL     1     -13.129  15.844  73.060  0.00  0.00    +0.000 A 
ATOM     20  C   UNL     1     -12.106  14.021  69.507  0.00  0.00    +0.003 A 
ATOM     21  C   UNL     1     -11.915  16.097  72.433  0.00  0.00    +0.000 A 
ATOM     22  C   UNL     1     -11.458  14.798  68.553  0.00  0.00    +0.038 A 
ENDBRANCH  12  13
ENDBRANCH   1  12
TORSDOF 4
ENDMDL
MODEL 9
REMARK VINA RESULT:      -6.6      2.253      4.795
REMARK  Name = 
REMARK  4 active torsions:
REMARK  status: ('A' for Active; 'I' for Inactive)
REMARK    1  A    between atoms: C_6  and  N_7
REMARK    2  A    between atoms: N_7  and  C_9
REMARK    3  A    between atoms: C_9  and  O_11
REMARK    4  A    between atoms: O_11  and  C_12
REMARK                            x       y       z     vdW  Elec       q    Type
REMARK                         _______ _______ _______ _____ _____    ______ ____
ROOT
ATOM      1  C   UNL     1     -10.628  12.185  67.510  0.00  0.00    +0.241 C 
ATOM      2  S   UNL     1     -10.969  12.665  65.999  0.00  0.00    +0.007 S 
ENDROOT
BRANCH   1   3
ATOM      3  N   UNL     1     -10.518  10.814  67.875  0.00  0.00    -0.251 N 
ATOM      4  C   UNL     1     -10.448   9.774  66.853  0.00  0.00    +0.121 C 
BRANCH   3   8
ATOM      5  C   UNL     1     -13.351   9.438  71.500  0.00  0.00    +0.031 C 
ATOM      6  C   UNL     1     -11.962   9.855  71.131  0.00  0.00    -0.021 A 
ATOM      7  C   UNL     1     -11.713  10.510  69.948  0.00  0.00    +0.011 A 
ATOM      8  C   UNL     1     -10.526  10.443  69.259  0.00  0.00    +0.054 A 
ATOM      9  C   UNL     1      -9.554   9.579  69.745  0.00  0.00    +0.015 A 
ATOM     10  C   UNL     1      -9.726   8.988  70.982  0.00  0.00    +0.001 A 
ATOM     11  C   UNL     1     -10.904   9.151  71.698  0.00  0.00    -0.004 A 
ENDBRANCH   3   8
ENDBRANCH   1   3
BRANCH   1  12
ATOM     12  O   UNL     1     -10.149  13.147  68.400  0.00  0.00    -0.434 OA
BRANCH  12  13
ATOM     13  C   UNL     1     -11.058  14.123  68.818  0.00  0.00    +0.147 A 
ATOM     14  C   UNL     1     -12.197  13.792  69.542  0.00  0.00    +0.038 A 
ATOM     15  C   UNL     1     -12.595  14.560  70.628  0.00  0.00    +0.003 A 
ATOM     16  C   UNL     1     -11.977  15.772  70.908  0.00  0.00    +0.000 A 
ATOM     17  C   UNL     1     -11.854  16.121  72.246  0.00  0.00    +0.000 A 
ATOM     18  C   UNL     1     -12.408  15.358  73.263  0.00  0.00    +0.000 A 
ATOM     19  C   UNL     1     -13.371  14.438  72.872  0.00  0.00    +0.000 A 
ATOM     20  C   UNL     1     -11.111  16.252  69.939  0.00  0.00    +0.003 A 
ATOM     21  C   UNL     1     -13.554  14.148  71.525  0.00  0.00    +0.000 A 
ATOM     22  C   UNL     1     -10.687  15.460  68.878  0.00  0.00    +0.038 A 
ENDBRANCH  12  13
ENDBRANCH   1  12
TORSDOF 4
ENDMDL
