MODEL 1
REMARK VINA RESULT:      -6.6      0.000      0.000
REMARK  Name = 
REMARK  5 active torsions:
REMARK  status: ('A' for Active; 'I' for Inactive)
REMARK    1  A    between atoms: C_6  and  O_7
REMARK    2  A    between atoms: O_7  and  C_8
REMARK    3  A    between atoms: C_8  and  C_10
REMARK    4  A    between atoms: C_10  and  C_12
REMARK    5  A    between atoms: C_10  and  C_18
REMARK                            x       y       z     vdW  Elec       q    Type
REMARK                         _______ _______ _______ _____ _____    ______ ____
ROOT
ATOM      1  C   UNL     1     -11.613  15.226  69.540  0.00  0.00    +0.233 C 
ATOM      2  O   UNL     1     -12.417  16.168  68.890  0.00  0.00    -0.210 OA
ENDROOT
BRANCH   1   3
ATOM      3  C   UNL     1     -12.178  14.969  70.907  0.00  0.00    +0.015 A 
ATOM      4  C   UNL     1     -11.458  15.275  72.035  0.00  0.00    -0.001 A 
ATOM      5  C   UNL     1     -12.059  15.801  73.162  0.00  0.00    -0.000 A 
ATOM      6  C   UNL     1     -13.422  15.987  73.191  0.00  0.00    -0.000 A 
ATOM      7  C   UNL     1     -14.180  15.304  72.251  0.00  0.00    -0.000 A 
ATOM      8  C   UNL     1     -13.558  14.916  71.070  0.00  0.00    -0.001 A 
ENDBRANCH   1   3
BRANCH   1   9
ATOM      9  C   UNL     1     -10.265  15.830  69.766  0.00  0.00    +0.043 C 
ATOM     10  C   UNL     1      -9.116  15.045  69.227  0.00  0.00    +0.003 C 
ATOM     11  C   UNL     1      -8.064  16.100  68.899  0.00  0.00    +0.000 C 
ATOM     12  C   UNL     1      -8.874  17.308  68.443  0.00  0.00    +0.000 C 
ATOM     13  C   UNL     1     -10.222  17.201  69.093  0.00  0.00    +0.003 C 
ENDBRANCH   1   9
BRANCH   1  14
ATOM     14  C   UNL     1     -11.612  13.954  68.804  0.00  0.00    +0.349 C 
ATOM     15  O   UNL     1     -11.645  12.904  69.516  0.00  0.00    -0.247 OA
BRANCH  14  16
ATOM     16  O   UNL     1     -11.983  13.822  67.463  0.00  0.00    -0.444 OA
BRANCH  16  20
ATOM     17  C   UNL     1     -10.662  11.287  64.783  0.00  0.00    +0.171 C 
ATOM     18  N   UNL     1     -11.268  12.175  64.535  0.00  0.00    +0.309 N 
ATOM     19  C   UNL     1     -12.279  12.608  65.503  0.00  0.00    +0.153 C 
ATOM     20  C   UNL     1     -11.144  12.737  66.718  0.00  0.00    +0.229 C 
ATOM     21  C   UNL     1     -10.310  13.898  65.859  0.00  0.00    +0.111 C 
ATOM     22  C   UNL     1     -10.469  13.376  64.468  0.00  0.00    +0.113 C 
ATOM     23  C   UNL     1     -11.919  12.006  63.255  0.00  0.00    +0.171 C 
ENDBRANCH  16  20
ENDBRANCH  14  16
ENDBRANCH   1  14
TORSDOF 5
ENDMDL
MODEL 2
REMARK VINA RESULT:      -6.2      2.244      5.873
REMARK  Name = 
REMARK  5 active torsions:
REMARK  status: ('A' for Active; 'I' for Inactive)
REMARK    1  A    between atoms: C_6  and  O_7
REMARK    2  A    between atoms: O_7  and  C_8
REMARK    3  A    between atoms: C_8  and  C_10
REMARK    4  A    between atoms: C_10  and  C_12
REMARK    5  A    between atoms: C_10  and  C_18
REMARK                            x       y       z     vdW  Elec       q    Type
REMARK                         _______ _______ _______ _____ _____    ______ ____
ROOT
ATOM      1  C   UNL     1      -9.957  15.306  68.050  0.00  0.00    +0.233 C 
ATOM      2  O   UNL     1      -9.453  14.172  68.694  0.00  0.00    -0.210 OA
ENDROOT
BRANCH   1   3
ATOM      3  C   UNL     1     -10.919  14.868  66.983  0.00  0.00    +0.015 A 
ATOM      4  C   UNL     1     -10.734  15.237  65.674  0.00  0.00    -0.001 A 
ATOM      5  C   UNL     1     -10.996  14.372  64.629  0.00  0.00    -0.000 A 
ATOM      6  C   UNL     1     -11.500  13.119  64.885  0.00  0.00    -0.000 A 
ATOM      7  C   UNL     1     -12.074  12.902  66.129  0.00  0.00    -0.000 A 
ATOM      8  C   UNL     1     -11.672  13.716  67.182  0.00  0.00    -0.001 A 
ENDBRANCH   1   3
BRANCH   1   9
ATOM      9  C   UNL     1      -8.834  15.979  67.330  0.00  0.00    +0.043 C 
ATOM     10  C   UNL     1      -8.305  17.211  67.986  0.00  0.00    +0.003 C 
ATOM     11  C   UNL     1      -6.840  17.259  67.564  0.00  0.00    +0.000 C 
ATOM     12  C   UNL     1      -6.424  15.794  67.488  0.00  0.00    +0.000 C 
ATOM     13  C   UNL     1      -7.667  15.001  67.215  0.00  0.00    +0.003 C 
ENDBRANCH   1   9
BRANCH   1  14
ATOM     14  C   UNL     1     -10.690  16.155  68.999  0.00  0.00    +0.349 C 
ATOM     15  O   UNL     1     -11.519  16.968  68.487  0.00  0.00    -0.247 OA
BRANCH  14  16
ATOM     16  O   UNL     1     -10.847  15.862  70.356  0.00  0.00    -0.444 OA
BRANCH  16  20
ATOM     17  C   UNL     1     -14.388  14.790  71.648  0.00  0.00    +0.171 C 
ATOM     18  N   UNL     1     -13.459  14.252  71.901  0.00  0.00    +0.309 N 
ATOM     19  C   UNL     1     -12.393  14.212  70.896  0.00  0.00    +0.153 C 
ATOM     20  C   UNL     1     -12.344  15.876  70.798  0.00  0.00    +0.229 C 
ATOM     21  C   UNL     1     -11.921  15.989  72.408  0.00  0.00    +0.111 C 
ATOM     22  C   UNL     1     -12.743  14.882  72.985  0.00  0.00    +0.113 C 
ATOM     23  C   UNL     1     -13.749  12.891  72.297  0.00  0.00    +0.171 C 
ENDBRANCH  16  20
ENDBRANCH  14  16
ENDBRANCH   1  14
TORSDOF 5
ENDMDL
MODEL 3
REMARK VINA RESULT:      -6.2      2.361      6.270
REMARK  Name = 
REMARK  5 active torsions:
REMARK  status: ('A' for Active; 'I' for Inactive)
REMARK    1  A    between atoms: C_6  and  O_7
REMARK    2  A    between atoms: O_7  and  C_8
REMARK    3  A    between atoms: C_8  and  C_10
REMARK    4  A    between atoms: C_10  and  C_12
REMARK    5  A    between atoms: C_10  and  C_18
REMARK                            x       y       z     vdW  Elec       q    Type
REMARK                         _______ _______ _______ _____ _____    ______ ____
ROOT
ATOM      1  C   UNL     1     -10.278  15.623  66.647  0.00  0.00    +0.233 C 
ATOM      2  O   UNL     1     -10.736  16.534  65.690  0.00  0.00    -0.210 OA
ENDROOT
BRANCH   1   3
ATOM      3  C   UNL     1      -8.782  15.536  66.554  0.00  0.00    +0.015 A 
ATOM      4  C   UNL     1      -8.033  16.634  66.211  0.00  0.00    -0.001 A 
ATOM      5  C   UNL     1      -6.815  16.899  66.807  0.00  0.00    -0.000 A 
ATOM      6  C   UNL     1      -6.299  16.025  67.735  0.00  0.00    -0.000 A 
ATOM      7  C   UNL     1      -6.827  14.743  67.769  0.00  0.00    -0.000 A 
ATOM      8  C   UNL     1      -8.115  14.556  67.280  0.00  0.00    -0.001 A 
ENDBRANCH   1   3
BRANCH   1   9
ATOM      9  C   UNL     1     -10.785  14.264  66.287  0.00  0.00    +0.043 C 
ATOM     10  C   UNL     1     -12.266  14.096  66.361  0.00  0.00    +0.003 C 
ATOM     11  C   UNL     1     -12.574  13.030  65.314  0.00  0.00    +0.000 C 
ATOM     12  C   UNL     1     -11.554  13.284  64.210  0.00  0.00    +0.000 C 
ATOM     13  C   UNL     1     -10.373  13.950  64.850  0.00  0.00    +0.003 C 
ENDBRANCH   1   9
BRANCH   1  14
ATOM     14  C   UNL     1     -10.623  16.081  68.000  0.00  0.00    +0.349 C 
ATOM     15  O   UNL     1     -11.070  17.265  68.085  0.00  0.00    -0.247 OA
BRANCH  14  16
ATOM     16  O   UNL     1     -10.881  15.227  69.076  0.00  0.00    -0.444 OA
BRANCH  16  20
ATOM     17  C   UNL     1     -14.087  15.075  71.324  0.00  0.00    +0.171 C 
ATOM     18  N   UNL     1     -13.204  14.433  71.478  0.00  0.00    +0.309 N 
ATOM     19  C   UNL     1     -12.444  14.015  70.297  0.00  0.00    +0.153 C 
ATOM     20  C   UNL     1     -12.201  15.595  69.823  0.00  0.00    +0.229 C 
ATOM     21  C   UNL     1     -11.372  15.924  71.233  0.00  0.00    +0.111 C 
ATOM     22  C   UNL     1     -12.160  15.111  72.209  0.00  0.00    +0.113 C 
ATOM     23  C   UNL     1     -13.562  13.245  72.222  0.00  0.00    +0.171 C 
ENDBRANCH  16  20
ENDBRANCH  14  16
ENDBRANCH   1  14
TORSDOF 5
ENDMDL
MODEL 4
REMARK VINA RESULT:      -6.1      2.854      5.558
REMARK  Name = 
REMARK  5 active torsions:
REMARK  status: ('A' for Active; 'I' for Inactive)
REMARK    1  A    between atoms: C_6  and  O_7
REMARK    2  A    between atoms: O_7  and  C_8
REMARK    3  A    between atoms: C_8  and  C_10
REMARK    4  A    between atoms: C_10  and  C_12
REMARK    5  A    between atoms: C_10  and  C_18
REMARK                            x       y       z     vdW  Elec       q    Type
REMARK                         _______ _______ _______ _____ _____    ______ ____
ROOT
ATOM      1  C   UNL     1      -9.765  16.228  67.174  0.00  0.00    +0.233 C 
ATOM      2  O   UNL     1      -9.509  15.986  65.821  0.00  0.00    -0.210 OA
ENDROOT
BRANCH   1   3
ATOM      3  C   UNL     1     -10.272  17.633  67.327  0.00  0.00    +0.015 A 
ATOM      4  C   UNL     1     -10.087  18.325  68.498  0.00  0.00    -0.001 A 
ATOM      5  C   UNL     1      -9.787  19.673  68.507  0.00  0.00    -0.000 A 
ATOM      6  C   UNL     1      -9.715  20.369  67.324  0.00  0.00    -0.000 A 
ATOM      7  C   UNL     1     -10.303  19.795  66.207  0.00  0.00    -0.000 A 
ATOM      8  C   UNL     1     -10.457  18.413  66.191  0.00  0.00    -0.001 A 
ENDBRANCH   1   3
BRANCH   1   9
ATOM      9  C   UNL     1      -8.469  16.182  67.917  0.00  0.00    +0.043 C 
ATOM     10  C   UNL     1      -7.918  14.815  68.152  0.00  0.00    +0.003 C 
ATOM     11  C   UNL     1      -6.407  15.024  68.198  0.00  0.00    +0.000 C 
ATOM     12  C   UNL     1      -6.155  16.150  67.202  0.00  0.00    +0.000 C 
ATOM     13  C   UNL     1      -7.419  16.954  67.121  0.00  0.00    +0.003 C 
ENDBRANCH   1   9
BRANCH   1  14
ATOM     14  C   UNL     1     -10.804  15.315  67.673  0.00  0.00    +0.349 C 
ATOM     15  O   UNL     1     -11.393  14.615  66.793  0.00  0.00    -0.247 OA
BRANCH  14  16
ATOM     16  O   UNL     1     -10.894  14.876  68.997  0.00  0.00    -0.444 OA
BRANCH  16  20
ATOM     17  C   UNL     1     -14.068  15.121  71.282  0.00  0.00    +0.171 C 
ATOM     18  N   UNL     1     -13.200  14.480  71.511  0.00  0.00    +0.309 N 
ATOM     19  C   UNL     1     -12.470  13.885  70.389  0.00  0.00    +0.153 C 
ATOM     20  C   UNL     1     -12.192  15.380  69.702  0.00  0.00    +0.229 C 
ATOM     21  C   UNL     1     -11.333  15.871  71.045  0.00  0.00    +0.111 C 
ATOM     22  C   UNL     1     -12.126  15.220  72.131  0.00  0.00    +0.113 C 
ATOM     23  C   UNL     1     -13.578  13.414  72.413  0.00  0.00    +0.171 C 
ENDBRANCH  16  20
ENDBRANCH  14  16
ENDBRANCH   1  14
TORSDOF 5
ENDMDL
MODEL 5
REMARK VINA RESULT:      -6.1      2.395      5.852
REMARK  Name = 
REMARK  5 active torsions:
REMARK  status: ('A' for Active; 'I' for Inactive)
REMARK    1  A    between atoms: C_6  and  O_7
REMARK    2  A    between atoms: O_7  and  C_8
REMARK    3  A    between atoms: C_8  and  C_10
REMARK    4  A    between atoms: C_10  and  C_12
REMARK    5  A    between atoms: C_10  and  C_18
REMARK                            x       y       z     vdW  Elec       q    Type
REMARK                         _______ _______ _______ _____ _____    ______ ____
ROOT
ATOM      1  C   UNL     1      -9.676  16.374  68.345  0.00  0.00    +0.233 C 
ATOM      2  O   UNL     1      -8.582  16.096  69.169  0.00  0.00    -0.210 OA
ENDROOT
BRANCH   1   3
ATOM      3  C   UNL     1      -9.804  15.280  67.325  0.00  0.00    +0.015 A 
ATOM      4  C   UNL     1     -10.204  14.019  67.692  0.00  0.00    -0.001 A 
ATOM      5  C   UNL     1     -11.045  13.263  66.898  0.00  0.00    -0.000 A 
ATOM      6  C   UNL     1     -11.464  13.749  65.682  0.00  0.00    -0.000 A 
ATOM      7  C   UNL     1     -10.746  14.800  65.131  0.00  0.00    -0.000 A 
ATOM      8  C   UNL     1     -10.024  15.617  65.994  0.00  0.00    -0.001 A 
ENDBRANCH   1   3
BRANCH   1   9
ATOM      9  C   UNL     1      -9.380  17.617  67.569  0.00  0.00    +0.043 C 
ATOM     10  C   UNL     1     -10.191  18.812  67.946  0.00  0.00    +0.003 C 
ATOM     11  C   UNL     1      -9.279  19.995  67.636  0.00  0.00    +0.000 C 
ATOM     12  C   UNL     1      -7.879  19.481  67.946  0.00  0.00    +0.000 C 
ATOM     13  C   UNL     1      -7.914  17.991  67.781  0.00  0.00    +0.003 C 
ENDBRANCH   1   9
BRANCH   1  14
ATOM     14  C   UNL     1     -10.918  16.409  69.130  0.00  0.00    +0.349 C 
ATOM     15  O   UNL     1     -11.994  16.475  68.460  0.00  0.00    -0.247 OA
BRANCH  14  16
ATOM     16  O   UNL     1     -11.022  15.974  70.454  0.00  0.00    -0.444 OA
BRANCH  16  20
ATOM     17  C   UNL     1     -14.444  14.599  71.781  0.00  0.00    +0.171 C 
ATOM     18  N   UNL     1     -13.472  14.123  71.994  0.00  0.00    +0.309 N 
ATOM     19  C   UNL     1     -12.430  14.197  70.965  0.00  0.00    +0.153 C 
ATOM     20  C   UNL     1     -12.506  15.863  70.928  0.00  0.00    +0.229 C 
ATOM     21  C   UNL     1     -12.054  15.950  72.531  0.00  0.00    +0.111 C 
ATOM     22  C   UNL     1     -12.779  14.766  73.085  0.00  0.00    +0.113 C 
ATOM     23  C   UNL     1     -13.652  12.731  72.346  0.00  0.00    +0.171 C 
ENDBRANCH  16  20
ENDBRANCH  14  16
ENDBRANCH   1  14
TORSDOF 5
ENDMDL
MODEL 6
REMARK VINA RESULT:      -6.0      2.286      6.113
REMARK  Name = 
REMARK  5 active torsions:
REMARK  status: ('A' for Active; 'I' for Inactive)
REMARK    1  A    between atoms: C_6  and  O_7
REMARK    2  A    between atoms: O_7  and  C_8
REMARK    3  A    between atoms: C_8  and  C_10
REMARK    4  A    between atoms: C_10  and  C_12
REMARK    5  A    between atoms: C_10  and  C_18
REMARK                            x       y       z     vdW  Elec       q    Type
REMARK                         _______ _______ _______ _____ _____    ______ ____
ROOT
ATOM      1  C   UNL     1     -10.523  14.475  67.211  0.00  0.00    +0.233 C 
ATOM      2  O   UNL     1      -9.134  14.314  67.243  0.00  0.00    -0.210 OA
ENDROOT
BRANCH   1   3
ATOM      3  C   UNL     1     -11.026  14.067  65.857  0.00  0.00    +0.015 A 
ATOM      4  C   UNL     1     -10.160  13.632  64.885  0.00  0.00    -0.001 A 
ATOM      5  C   UNL     1     -10.486  12.598  64.030  0.00  0.00    -0.000 A 
ATOM      6  C   UNL     1     -11.725  12.007  64.107  0.00  0.00    -0.000 A 
ATOM      7  C   UNL     1     -12.725  12.701  64.772  0.00  0.00    -0.000 A 
ATOM      8  C   UNL     1     -12.342  13.638  65.725  0.00  0.00    -0.001 A 
ENDBRANCH   1   3
BRANCH   1   9
ATOM      9  C   UNL     1     -10.833  15.932  67.337  0.00  0.00    +0.043 C 
ATOM     10  C   UNL     1     -10.137  16.638  68.452  0.00  0.00    +0.003 C 
ATOM     11  C   UNL     1      -9.991  18.072  67.953  0.00  0.00    +0.000 C 
ATOM     12  C   UNL     1      -9.783  17.927  66.450  0.00  0.00    +0.000 C 
ATOM     13  C   UNL     1     -10.425  16.634  66.043  0.00  0.00    +0.003 C 
ENDBRANCH   1   9
BRANCH   1  14
ATOM     14  C   UNL     1     -11.165  13.611  68.212  0.00  0.00    +0.349 C 
ATOM     15  O   UNL     1     -10.498  12.592  68.571  0.00  0.00    -0.247 OA
BRANCH  14  16
ATOM     16  O   UNL     1     -12.197  14.024  69.059  0.00  0.00    -0.444 OA
BRANCH  16  20
ATOM     17  C   UNL     1     -11.948  15.197  72.790  0.00  0.00    +0.171 C 
ATOM     18  N   UNL     1     -12.902  15.094  72.246  0.00  0.00    +0.309 N 
ATOM     19  C   UNL     1     -12.908  15.379  70.809  0.00  0.00    +0.153 C 
ATOM     20  C   UNL     1     -11.707  14.257  70.523  0.00  0.00    +0.229 C 
ATOM     21  C   UNL     1     -12.677  13.027  71.098  0.00  0.00    +0.111 C 
ATOM     22  C   UNL     1     -13.370  13.728  72.222  0.00  0.00    +0.113 C 
ATOM     23  C   UNL     1     -13.931  15.901  72.865  0.00  0.00    +0.171 C 
ENDBRANCH  16  20
ENDBRANCH  14  16
ENDBRANCH   1  14
TORSDOF 5
ENDMDL
MODEL 7
REMARK VINA RESULT:      -6.0      2.455      5.074
REMARK  Name = 
REMARK  5 active torsions:
REMARK  status: ('A' for Active; 'I' for Inactive)
REMARK    1  A    between atoms: C_6  and  O_7
REMARK    2  A    between atoms: O_7  and  C_8
REMARK    3  A    between atoms: C_8  and  C_10
REMARK    4  A    between atoms: C_10  and  C_12
REMARK    5  A    between atoms: C_10  and  C_18
REMARK                            x       y       z     vdW  Elec       q    Type
REMARK                         _______ _______ _______ _____ _____    ______ ____
ROOT
ATOM      1  C   UNL     1     -11.045  14.579  69.138  0.00  0.00    +0.233 C 
ATOM      2  O   UNL     1      -9.732  14.105  69.223  0.00  0.00    -0.210 OA
ENDROOT
BRANCH   1   3
ATOM      3  C   UNL     1     -11.673  14.509  70.500  0.00  0.00    +0.015 A 
ATOM      4  C   UNL     1     -11.236  15.317  71.520  0.00  0.00    -0.001 A 
ATOM      5  C   UNL     1     -12.111  15.883  72.426  0.00  0.00    -0.000 A 
ATOM      6  C   UNL     1     -13.455  15.603  72.350  0.00  0.00    -0.000 A 
ATOM      7  C   UNL     1     -13.836  14.489  71.617  0.00  0.00    -0.000 A 
ATOM      8  C   UNL     1     -12.977  14.041  70.621  0.00  0.00    -0.001 A 
ENDBRANCH   1   3
BRANCH   1   9
ATOM      9  C   UNL     1     -11.832  13.641  68.281  0.00  0.00    +0.043 C 
ATOM     10  C   UNL     1     -11.922  14.018  66.840  0.00  0.00    +0.003 C 
ATOM     11  C   UNL     1     -12.057  12.684  66.112  0.00  0.00    +0.000 C 
ATOM     12  C   UNL     1     -11.218  11.719  66.940  0.00  0.00    +0.000 C 
ATOM     13  C   UNL     1     -11.181  12.260  68.338  0.00  0.00    +0.003 C 
ENDBRANCH   1   9
BRANCH   1  14
ATOM     14  C   UNL     1     -11.059  15.983  68.704  0.00  0.00    +0.349 C 
ATOM     15  O   UNL     1     -12.179  16.574  68.782  0.00  0.00    -0.247 OA
BRANCH  14  16
ATOM     16  O   UNL     1      -9.921  16.790  68.620  0.00  0.00    -0.444 OA
BRANCH  16  20
ATOM     17  C   UNL     1      -9.592  20.469  67.311  0.00  0.00    +0.171 C 
ATOM     18  N   UNL     1      -8.742  19.770  67.384  0.00  0.00    +0.309 N 
ATOM     19  C   UNL     1      -8.749  18.792  68.476  0.00  0.00    +0.153 C 
ATOM     20  C   UNL     1     -10.231  18.190  68.004  0.00  0.00    +0.229 C 
ATOM     21  C   UNL     1      -9.610  17.734  66.525  0.00  0.00    +0.111 C 
ATOM     22  C   UNL     1      -8.678  18.871  66.256  0.00  0.00    +0.113 C 
ATOM     23  C   UNL     1      -7.491  20.494  67.442  0.00  0.00    +0.171 C 
ENDBRANCH  16  20
ENDBRANCH  14  16
ENDBRANCH   1  14
TORSDOF 5
ENDMDL
MODEL 8
REMARK VINA RESULT:      -5.9      1.908      4.277
REMARK  Name = 
REMARK  5 active torsions:
REMARK  status: ('A' for Active; 'I' for Inactive)
REMARK    1  A    between atoms: C_6  and  O_7
REMARK    2  A    between atoms: O_7  and  C_8
REMARK    3  A    between atoms: C_8  and  C_10
REMARK    4  A    between atoms: C_10  and  C_12
REMARK    5  A    between atoms: C_10  and  C_18
REMARK                            x       y       z     vdW  Elec       q    Type
REMARK                         _______ _______ _______ _____ _____    ______ ____
ROOT
ATOM      1  C   UNL     1     -10.110  16.121  67.843  0.00  0.00    +0.233 C 
ATOM      2  O   UNL     1      -8.987  15.446  68.331  0.00  0.00    -0.210 OA
ENDROOT
BRANCH   1   3
ATOM      3  C   UNL     1      -9.919  17.594  68.055  0.00  0.00    +0.015 A 
ATOM      4  C   UNL     1      -8.710  18.095  68.469  0.00  0.00    -0.001 A 
ATOM      5  C   UNL     1      -8.207  19.284  67.977  0.00  0.00    -0.000 A 
ATOM      6  C   UNL     1      -8.945  20.025  67.084  0.00  0.00    -0.000 A 
ATOM      7  C   UNL     1     -10.302  19.752  66.994  0.00  0.00    -0.000 A 
ATOM      8  C   UNL     1     -10.738  18.488  67.375  0.00  0.00    -0.001 A 
ENDBRANCH   1   3
BRANCH   1   9
ATOM      9  C   UNL     1     -11.290  15.742  68.680  0.00  0.00    +0.043 C 
ATOM     10  C   UNL     1     -11.532  14.275  68.812  0.00  0.00    +0.003 C 
ATOM     11  C   UNL     1     -12.197  14.128  70.177  0.00  0.00    +0.000 C 
ATOM     12  C   UNL     1     -11.547  15.211  71.029  0.00  0.00    +0.000 C 
ATOM     13  C   UNL     1     -11.086  16.287  70.092  0.00  0.00    +0.003 C 
ENDBRANCH   1   9
BRANCH   1  14
ATOM     14  C   UNL     1     -10.266  15.886  66.401  0.00  0.00    +0.349 C 
ATOM     15  O   UNL     1      -9.246  16.135  65.688  0.00  0.00    -0.247 OA
BRANCH  14  16
ATOM     16  O   UNL     1     -11.246  15.062  65.840  0.00  0.00    -0.444 OA
BRANCH  16  20
ATOM     17  C   UNL     1      -9.942  12.104  63.626  0.00  0.00    +0.171 C 
ATOM     18  N   UNL     1     -10.596  11.966  64.504  0.00  0.00    +0.309 N 
ATOM     19  C   UNL     1     -10.440  12.892  65.629  0.00  0.00    +0.153 C 
ATOM     20  C   UNL     1     -10.699  14.216  64.648  0.00  0.00    +0.229 C 
ATOM     21  C   UNL     1     -12.229  13.672  64.266  0.00  0.00    +0.111 C 
ATOM     22  C   UNL     1     -11.985  12.200  64.190  0.00  0.00    +0.113 C 
ATOM     23  C   UNL     1     -10.481  10.618  65.018  0.00  0.00    +0.171 C 
ENDBRANCH  16  20
ENDBRANCH  14  16
ENDBRANCH   1  14
TORSDOF 5
ENDMDL
MODEL 9
REMARK VINA RESULT:      -5.9      2.473      6.724
REMARK  Name = 
REMARK  5 active torsions:
REMARK  status: ('A' for Active; 'I' for Inactive)
REMARK    1  A    between atoms: C_6  and  O_7
REMARK    2  A    between atoms: O_7  and  C_8
REMARK    3  A    between atoms: C_8  and  C_10
REMARK    4  A    between atoms: C_10  and  C_12
REMARK    5  A    between atoms: C_10  and  C_18
REMARK                            x       y       z     vdW  Elec       q    Type
REMARK                         _______ _______ _______ _____ _____    ______ ____
ROOT
ATOM      1  C   UNL     1     -11.051  12.573  67.137  0.00  0.00    +0.233 C 
ATOM      2  O   UNL     1     -12.045  11.696  67.584  0.00  0.00    -0.210 OA
ENDROOT
BRANCH   1   3
ATOM      3  C   UNL     1     -11.231  12.796  65.664  0.00  0.00    +0.015 A 
ATOM      4  C   UNL     1     -10.202  12.560  64.785  0.00  0.00    -0.001 A 
ATOM      5  C   UNL     1     -10.421  11.998  63.543  0.00  0.00    -0.000 A 
ATOM      6  C   UNL     1     -11.702  11.703  63.138  0.00  0.00    -0.000 A 
ATOM      7  C   UNL     1     -12.745  12.314  63.819  0.00  0.00    -0.000 A 
ATOM      8  C   UNL     1     -12.509  12.740  65.121  0.00  0.00    -0.001 A 
ENDBRANCH   1   3
BRANCH   1   9
ATOM      9  C   UNL     1      -9.725  11.899  67.286  0.00  0.00    +0.043 C 
ATOM     10  C   UNL     1      -8.816  12.500  68.305  0.00  0.00    +0.003 C 
ATOM     11  C   UNL     1      -7.972  11.326  68.792  0.00  0.00    +0.000 C 
ATOM     12  C   UNL     1      -8.922  10.135  68.739  0.00  0.00    +0.000 C 
ATOM     13  C   UNL     1      -9.956  10.446  67.698  0.00  0.00    +0.003 C 
ENDBRANCH   1   9
BRANCH   1  14
ATOM     14  C   UNL     1     -11.170  13.873  67.811  0.00  0.00    +0.349 C 
ATOM     15  O   UNL     1     -10.576  14.843  67.248  0.00  0.00    -0.247 OA
BRANCH  14  16
ATOM     16  O   UNL     1     -12.173  14.193  68.731  0.00  0.00    -0.444 OA
BRANCH  16  20
ATOM     17  C   UNL     1     -11.786  15.270  72.479  0.00  0.00    +0.171 C 
ATOM     18  N   UNL     1     -12.759  15.076  71.998  0.00  0.00    +0.309 N 
ATOM     19  C   UNL     1     -12.900  15.404  70.577  0.00  0.00    +0.153 C 
ATOM     20  C   UNL     1     -11.607  14.434  70.166  0.00  0.00    +0.229 C 
ATOM     21  C   UNL     1     -12.391  13.086  70.757  0.00  0.00    +0.111 C 
ATOM     22  C   UNL     1     -13.073  13.668  71.952  0.00  0.00    +0.113 C 
ATOM     23  C   UNL     1     -13.823  15.742  72.716  0.00  0.00    +0.171 C 
ENDBRANCH  16  20
ENDBRANCH  14  16
ENDBRANCH   1  14
TORSDOF 5
ENDMDL
