MODEL 1
REMARK VINA RESULT:      -5.0      0.000      0.000
REMARK  Name = 
REMARK  5 active torsions:
REMARK  status: ('A' for Active; 'I' for Inactive)
REMARK    1  A    between atoms: C_2  and  C_3
REMARK    2  A    between atoms: C_3  and  C_5
REMARK    3  A    between atoms: C_5  and  C_7
REMARK    4  A    between atoms: C_7  and  C_9
REMARK    5  A    between atoms: C_9  and  C_11
REMARK                            x       y       z     vdW  Elec       q    Type
REMARK                         _______ _______ _______ _____ _____    ______ ____
ROOT
ATOM      1  C   UNL     1     -11.292  15.646  65.464  0.00  0.00    +0.217 C 
ATOM      2  O   UNL     1     -11.272  16.566  64.276  0.00  0.00    -0.217 OA
ENDROOT
BRANCH   1   3
ATOM      3  C   UNL     1      -9.579  15.453  65.590  0.00  0.00    +0.217 C 
ATOM      4  O   UNL     1      -9.690  15.014  67.042  0.00  0.00    -0.217 OA
BRANCH   3   6
ATOM      5  O   UNL     1      -8.667  17.155  66.011  0.00  0.00    -0.217 OA
ATOM      6  C   UNL     1      -9.264  17.010  66.042  0.00  0.00    +0.217 C 
ENDBRANCH   3   6
ENDBRANCH   1   3
BRANCH   1   7
ATOM      7  C   UNL     1     -11.402  14.160  64.598  0.00  0.00    +0.217 C 
ATOM      8  O   UNL     1     -12.480  14.566  63.632  0.00  0.00    -0.217 OA
BRANCH   7   9
ATOM      9  C   UNL     1     -12.449  13.512  65.814  0.00  0.00    +0.217 C 
ATOM     10  O   UNL     1     -13.246  12.616  64.878  0.00  0.00    -0.217 OA
BRANCH   9  11
ATOM     11  C   UNL     1     -11.395  12.277  66.114  0.00  0.00    +0.217 C 
ATOM     12  O   UNL     1     -11.931  11.530  67.127  0.00  0.00    -0.217 OA
ENDBRANCH   9  11
ENDBRANCH   7   9
ENDBRANCH   1   7
TORSDOF 5
ENDMDL
MODEL 2
REMARK VINA RESULT:      -4.9      1.183      4.274
REMARK  Name = 
REMARK  5 active torsions:
REMARK  status: ('A' for Active; 'I' for Inactive)
REMARK    1  A    between atoms: C_2  and  C_3
REMARK    2  A    between atoms: C_3  and  C_5
REMARK    3  A    between atoms: C_5  and  C_7
REMARK    4  A    between atoms: C_7  and  C_9
REMARK    5  A    between atoms: C_9  and  C_11
REMARK                            x       y       z     vdW  Elec       q    Type
REMARK                         _______ _______ _______ _____ _____    ______ ____
ROOT
ATOM      1  C   UNL     1     -11.402  13.170  65.531  0.00  0.00    +0.217 C 
ATOM      2  O   UNL     1     -12.603  12.404  65.051  0.00  0.00    -0.217 OA
ENDROOT
BRANCH   1   3
ATOM      3  C   UNL     1     -11.750  13.038  67.220  0.00  0.00    +0.217 C 
ATOM      4  O   UNL     1     -10.293  13.280  67.584  0.00  0.00    -0.217 OA
BRANCH   3   6
ATOM      5  O   UNL     1     -11.787  11.155  67.817  0.00  0.00    -0.217 OA
ATOM      6  C   UNL     1     -11.543  11.401  67.310  0.00  0.00    +0.217 C 
ENDBRANCH   3   6
ENDBRANCH   1   3
BRANCH   1   7
ATOM      7  C   UNL     1     -12.109  14.741  65.502  0.00  0.00    +0.217 C 
ATOM      8  O   UNL     1     -12.809  14.626  64.177  0.00  0.00    -0.217 OA
BRANCH   7   9
ATOM      9  C   UNL     1     -10.632  15.410  64.897  0.00  0.00    +0.217 C 
ATOM     10  O   UNL     1     -11.275  16.576  64.160  0.00  0.00    -0.217 OA
BRANCH   9  11
ATOM     11  C   UNL     1     -10.460  16.345  66.246  0.00  0.00    +0.217 C 
ATOM     12  O   UNL     1     -10.076  17.589  65.826  0.00  0.00    -0.217 OA
ENDBRANCH   9  11
ENDBRANCH   7   9
ENDBRANCH   1   7
TORSDOF 5
ENDMDL
MODEL 3
REMARK VINA RESULT:      -4.8      1.386      4.733
REMARK  Name = 
REMARK  5 active torsions:
REMARK  status: ('A' for Active; 'I' for Inactive)
REMARK    1  A    between atoms: C_2  and  C_3
REMARK    2  A    between atoms: C_3  and  C_5
REMARK    3  A    between atoms: C_5  and  C_7
REMARK    4  A    between atoms: C_7  and  C_9
REMARK    5  A    between atoms: C_9  and  C_11
REMARK                            x       y       z     vdW  Elec       q    Type
REMARK                         _______ _______ _______ _____ _____    ______ ____
ROOT
ATOM      1  C   UNL     1     -12.086  13.408  65.955  0.00  0.00    +0.217 C 
ATOM      2  O   UNL     1     -12.040  11.952  66.324  0.00  0.00    -0.217 OA
ENDROOT
BRANCH   1   3
ATOM      3  C   UNL     1     -11.622  13.205  64.301  0.00  0.00    +0.217 C 
ATOM      4  O   UNL     1     -12.490  14.377  63.868  0.00  0.00    -0.217 OA
BRANCH   3   6
ATOM      5  O   UNL     1     -12.895  12.061  63.314  0.00  0.00    -0.217 OA
ATOM      6  C   UNL     1     -12.814  12.128  63.920  0.00  0.00    +0.217 C 
ENDBRANCH   3   6
ENDBRANCH   1   3
BRANCH   1   7
ATOM      7  C   UNL     1     -10.459  13.799  66.370  0.00  0.00    +0.217 C 
ATOM      8  O   UNL     1     -10.449  13.196  67.747  0.00  0.00    -0.217 OA
BRANCH   7   9
ATOM      9  C   UNL     1     -10.947  15.390  66.845  0.00  0.00    +0.217 C 
ATOM     10  O   UNL     1      -9.866  15.581  67.898  0.00  0.00    -0.217 OA
BRANCH   9  11
ATOM     11  C   UNL     1      -9.968  16.070  65.703  0.00  0.00    +0.217 C 
ATOM     12  O   UNL     1     -10.720  16.991  65.027  0.00  0.00    -0.217 OA
ENDBRANCH   9  11
ENDBRANCH   7   9
ENDBRANCH   1   7
TORSDOF 5
ENDMDL
MODEL 4
REMARK VINA RESULT:      -4.7      1.449      3.954
REMARK  Name = 
REMARK  5 active torsions:
REMARK  status: ('A' for Active; 'I' for Inactive)
REMARK    1  A    between atoms: C_2  and  C_3
REMARK    2  A    between atoms: C_3  and  C_5
REMARK    3  A    between atoms: C_5  and  C_7
REMARK    4  A    between atoms: C_7  and  C_9
REMARK    5  A    between atoms: C_9  and  C_11
REMARK                            x       y       z     vdW  Elec       q    Type
REMARK                         _______ _______ _______ _____ _____    ______ ____
ROOT
ATOM      1  C   UNL     1     -10.999  12.583  66.103  0.00  0.00    +0.217 C 
ATOM      2  O   UNL     1     -11.963  11.643  66.773  0.00  0.00    -0.217 OA
ENDROOT
BRANCH   1   3
ATOM      3  C   UNL     1     -10.317  13.229  67.555  0.00  0.00    +0.217 C 
ATOM      4  O   UNL     1      -9.050  13.649  66.825  0.00  0.00    -0.217 OA
BRANCH   3   6
ATOM      5  O   UNL     1      -9.221  11.900  68.522  0.00  0.00    -0.217 OA
ATOM      6  C   UNL     1      -9.612  11.821  68.055  0.00  0.00    +0.217 C 
ENDBRANCH   3   6
ENDBRANCH   1   3
BRANCH   1   7
ATOM      7  C   UNL     1     -12.053  13.942  65.986  0.00  0.00    +0.217 C 
ATOM      8  O   UNL     1     -13.245  13.227  65.414  0.00  0.00    -0.217 OA
BRANCH   7   9
ATOM      9  C   UNL     1     -11.336  14.387  64.476  0.00  0.00    +0.217 C 
ATOM     10  O   UNL     1     -12.594  14.991  63.872  0.00  0.00    -0.217 OA
BRANCH   9  11
ATOM     11  C   UNL     1     -10.902  15.862  65.075  0.00  0.00    +0.217 C 
ATOM     12  O   UNL     1     -11.341  16.802  64.183  0.00  0.00    -0.217 OA
ENDBRANCH   9  11
ENDBRANCH   7   9
ENDBRANCH   1   7
TORSDOF 5
ENDMDL
MODEL 5
REMARK VINA RESULT:      -4.6      1.242      1.559
REMARK  Name = 
REMARK  5 active torsions:
REMARK  status: ('A' for Active; 'I' for Inactive)
REMARK    1  A    between atoms: C_2  and  C_3
REMARK    2  A    between atoms: C_3  and  C_5
REMARK    3  A    between atoms: C_5  and  C_7
REMARK    4  A    between atoms: C_7  and  C_9
REMARK    5  A    between atoms: C_9  and  C_11
REMARK                            x       y       z     vdW  Elec       q    Type
REMARK                         _______ _______ _______ _____ _____    ______ ____
ROOT
ATOM      1  C   UNL     1     -10.729  16.080  66.230  0.00  0.00    +0.217 C 
ATOM      2  O   UNL     1     -10.385  17.466  65.763  0.00  0.00    -0.217 OA
ENDROOT
BRANCH   1   3
ATOM      3  C   UNL     1      -9.101  15.524  66.404  0.00  0.00    +0.217 C 
ATOM      4  O   UNL     1      -9.533  14.419  67.356  0.00  0.00    -0.217 OA
BRANCH   3   6
ATOM      5  O   UNL     1      -8.122  16.485  67.827  0.00  0.00    -0.217 OA
ATOM      6  C   UNL     1      -8.715  16.516  67.667  0.00  0.00    +0.217 C 
ENDBRANCH   3   6
ENDBRANCH   1   3
BRANCH   1   7
ATOM      7  C   UNL     1     -10.824  15.334  64.679  0.00  0.00    +0.217 C 
ATOM      8  O   UNL     1     -11.483  16.470  63.947  0.00  0.00    -0.217 OA
BRANCH   7   9
ATOM      9  C   UNL     1     -12.277  14.518  65.144  0.00  0.00    +0.217 C 
ATOM     10  O   UNL     1     -12.794  14.294  63.731  0.00  0.00    -0.217 OA
BRANCH   9  11
ATOM     11  C   UNL     1     -11.512  13.057  65.107  0.00  0.00    +0.217 C 
ATOM     12  O   UNL     1     -12.122  12.261  66.037  0.00  0.00    -0.217 OA
ENDBRANCH   9  11
ENDBRANCH   7   9
ENDBRANCH   1   7
TORSDOF 5
ENDMDL
MODEL 6
REMARK VINA RESULT:      -4.6      1.426      4.781
REMARK  Name = 
REMARK  5 active torsions:
REMARK  status: ('A' for Active; 'I' for Inactive)
REMARK    1  A    between atoms: C_2  and  C_3
REMARK    2  A    between atoms: C_3  and  C_5
REMARK    3  A    between atoms: C_5  and  C_7
REMARK    4  A    between atoms: C_7  and  C_9
REMARK    5  A    between atoms: C_9  and  C_11
REMARK                            x       y       z     vdW  Elec       q    Type
REMARK                         _______ _______ _______ _____ _____    ______ ____
ROOT
ATOM      1  C   UNL     1     -10.703  13.632  67.359  0.00  0.00    +0.217 C 
ATOM      2  O   UNL     1      -9.542  13.202  68.213  0.00  0.00    -0.217 OA
ENDROOT
BRANCH   1   3
ATOM      3  C   UNL     1     -10.885  12.136  66.511  0.00  0.00    +0.217 C 
ATOM      4  O   UNL     1     -12.295  12.504  66.075  0.00  0.00    -0.217 OA
BRANCH   3   6
ATOM      5  O   UNL     1     -11.727  10.748  67.636  0.00  0.00    -0.217 OA
ATOM      6  C   UNL     1     -11.462  11.278  67.799  0.00  0.00    +0.217 C 
ENDBRANCH   3   6
ENDBRANCH   1   3
BRANCH   1   7
ATOM      7  C   UNL     1      -9.791  14.274  66.044  0.00  0.00    +0.217 C 
ATOM      8  O   UNL     1      -8.621  14.786  66.837  0.00  0.00    -0.217 OA
BRANCH   7   9
ATOM      9  C   UNL     1     -10.724  15.730  66.089  0.00  0.00    +0.217 C 
ATOM     10  O   UNL     1      -9.663  16.620  65.459  0.00  0.00    -0.217 OA
BRANCH   9  11
ATOM     11  C   UNL     1     -11.357  15.414  64.598  0.00  0.00    +0.217 C 
ATOM     12  O   UNL     1     -11.562  16.619  63.985  0.00  0.00    -0.217 OA
ENDBRANCH   9  11
ENDBRANCH   7   9
ENDBRANCH   1   7
TORSDOF 5
ENDMDL
MODEL 7
REMARK VINA RESULT:      -4.5      1.876      3.470
REMARK  Name = 
REMARK  5 active torsions:
REMARK  status: ('A' for Active; 'I' for Inactive)
REMARK    1  A    between atoms: C_2  and  C_3
REMARK    2  A    between atoms: C_3  and  C_5
REMARK    3  A    between atoms: C_5  and  C_7
REMARK    4  A    between atoms: C_7  and  C_9
REMARK    5  A    between atoms: C_9  and  C_11
REMARK                            x       y       z     vdW  Elec       q    Type
REMARK                         _______ _______ _______ _____ _____    ______ ____
ROOT
ATOM      1  C   UNL     1     -10.730  13.957  66.906  0.00  0.00    +0.217 C 
ATOM      2  O   UNL     1     -10.888  12.771  67.816  0.00  0.00    -0.217 OA
ENDROOT
BRANCH   1   3
ATOM      3  C   UNL     1     -11.412  15.123  67.986  0.00  0.00    +0.217 C 
ATOM      4  O   UNL     1     -10.726  16.267  67.254  0.00  0.00    -0.217 OA
BRANCH   3   6
ATOM      5  O   UNL     1     -10.232  15.498  69.526  0.00  0.00    -0.217 OA
ATOM      6  C   UNL     1     -10.196  15.054  69.102  0.00  0.00    +0.217 C 
ENDBRANCH   3   6
ENDBRANCH   1   3
BRANCH   1   7
ATOM      7  C   UNL     1     -12.242  13.820  66.090  0.00  0.00    +0.217 C 
ATOM      8  O   UNL     1     -12.261  12.324  65.945  0.00  0.00    -0.217 OA
BRANCH   7   9
ATOM      9  C   UNL     1     -11.475  14.164  64.578  0.00  0.00    +0.217 C 
ATOM     10  O   UNL     1     -12.457  13.384  63.718  0.00  0.00    -0.217 OA
BRANCH   9  11
ATOM     11  C   UNL     1     -12.379  15.531  64.389  0.00  0.00    +0.217 C 
ATOM     12  O   UNL     1     -11.541  16.505  63.920  0.00  0.00    -0.217 OA
ENDBRANCH   9  11
ENDBRANCH   7   9
ENDBRANCH   1   7
TORSDOF 5
ENDMDL
MODEL 8
REMARK VINA RESULT:      -4.4      1.362      2.427
REMARK  Name = 
REMARK  5 active torsions:
REMARK  status: ('A' for Active; 'I' for Inactive)
REMARK    1  A    between atoms: C_2  and  C_3
REMARK    2  A    between atoms: C_3  and  C_5
REMARK    3  A    between atoms: C_5  and  C_7
REMARK    4  A    between atoms: C_7  and  C_9
REMARK    5  A    between atoms: C_9  and  C_11
REMARK                            x       y       z     vdW  Elec       q    Type
REMARK                         _______ _______ _______ _____ _____    ______ ____
ROOT
ATOM      1  C   UNL     1     -11.997  14.365  65.999  0.00  0.00    +0.217 C 
ATOM      2  O   UNL     1     -12.996  14.232  64.884  0.00  0.00    -0.217 OA
ENDROOT
BRANCH   1   3
ATOM      3  C   UNL     1     -10.700  14.969  65.028  0.00  0.00    +0.217 C 
ATOM      4  O   UNL     1      -9.998  15.548  66.247  0.00  0.00    -0.217 OA
BRANCH   3   6
ATOM      5  O   UNL     1     -11.061  16.781  64.324  0.00  0.00    -0.217 OA
ATOM      6  C   UNL     1     -11.404  16.426  64.691  0.00  0.00    +0.217 C 
ENDBRANCH   3   6
ENDBRANCH   1   3
BRANCH   1   7
ATOM      7  C   UNL     1     -11.336  12.776  65.902  0.00  0.00    +0.217 C 
ATOM      8  O   UNL     1     -12.553  12.081  65.359  0.00  0.00    -0.217 OA
BRANCH   7   9
ATOM      9  C   UNL     1     -11.680  12.514  67.577  0.00  0.00    +0.217 C 
ATOM     10  O   UNL     1     -11.759  10.997  67.490  0.00  0.00    -0.217 OA
BRANCH   9  11
ATOM     11  C   UNL     1     -10.070  12.420  67.931  0.00  0.00    +0.217 C 
ATOM     12  O   UNL     1      -9.914  11.390  68.818  0.00  0.00    -0.217 OA
ENDBRANCH   9  11
ENDBRANCH   7   9
ENDBRANCH   1   7
TORSDOF 5
ENDMDL
MODEL 9
REMARK VINA RESULT:      -4.4      1.238      4.363
REMARK  Name = 
REMARK  5 active torsions:
REMARK  status: ('A' for Active; 'I' for Inactive)
REMARK    1  A    between atoms: C_2  and  C_3
REMARK    2  A    between atoms: C_3  and  C_5
REMARK    3  A    between atoms: C_5  and  C_7
REMARK    4  A    between atoms: C_7  and  C_9
REMARK    5  A    between atoms: C_9  and  C_11
REMARK                            x       y       z     vdW  Elec       q    Type
REMARK                         _______ _______ _______ _____ _____    ______ ____
ROOT
ATOM      1  C   UNL     1     -11.032  14.871  64.758  0.00  0.00    +0.217 C 
ATOM      2  O   UNL     1     -12.149  15.392  63.899  0.00  0.00    -0.217 OA
ENDROOT
BRANCH   1   3
ATOM      3  C   UNL     1     -12.034  14.049  65.903  0.00  0.00    +0.217 C 
ATOM      4  O   UNL     1     -10.879  13.163  66.345  0.00  0.00    -0.217 OA
BRANCH   3   6
ATOM      5  O   UNL     1     -13.054  12.573  65.076  0.00  0.00    -0.217 OA
ATOM      6  C   UNL     1     -12.576  12.892  64.857  0.00  0.00    +0.217 C 
ENDBRANCH   3   6
ENDBRANCH   1   3
BRANCH   1   7
ATOM      7  C   UNL     1     -10.914  16.222  65.821  0.00  0.00    +0.217 C 
ATOM      8  O   UNL     1     -10.975  17.306  64.782  0.00  0.00    -0.217 OA
BRANCH   7   9
ATOM      9  C   UNL     1      -9.192  16.065  65.855  0.00  0.00    +0.217 C 
ATOM     10  O   UNL     1      -8.896  17.553  65.960  0.00  0.00    -0.217 OA
BRANCH   9  11
ATOM     11  C   UNL     1      -9.199  15.940  67.501  0.00  0.00    +0.217 C 
ATOM     12  O   UNL     1      -8.278  16.835  67.975  0.00  0.00    -0.217 OA
ENDBRANCH   9  11
ENDBRANCH   7   9
ENDBRANCH   1   7
TORSDOF 5
ENDMDL
