MODEL 1
REMARK VINA RESULT:      -3.2      0.000      0.000
REMARK  Name = 
REMARK  4 active torsions:
REMARK  status: ('A' for Active; 'I' for Inactive)
REMARK    1  A    between atoms: N_2  and  C_3
REMARK    2  A    between atoms: N_2  and  C_6
REMARK    3  A    between atoms: C_3  and  C_4
REMARK    4  A    between atoms: C_6  and  C_7
REMARK                            x       y       z     vdW  Elec       q    Type
REMARK                         _______ _______ _______ _____ _____    ______ ____
ROOT
ATOM      1  C   UNL     1     -14.299  15.232  71.724  0.00  0.00    +0.090 C 
ATOM      2  N   UNL     1     -13.047  15.840  71.493  0.00  0.00    -0.269 NA
ENDROOT
BRANCH   2   3
ATOM      3  C   UNL     1     -12.422  15.587  70.242  0.00  0.00    +0.090 C 
BRANCH   3   4
ATOM      4  C   UNL     1     -12.099  14.108  70.188  0.00  0.00    +0.112 C 
ATOM      5 CL   UNL     1     -11.985  13.552  68.517  0.00  0.00    -0.112 Cl
ENDBRANCH   3   4
ENDBRANCH   2   3
BRANCH   2   6
ATOM      6  C   UNL     1     -12.194  16.041  72.604  0.00  0.00    +0.090 C 
BRANCH   6   7
ATOM      7  C   UNL     1     -12.437  15.141  73.776  0.00  0.00    +0.112 C 
ATOM      8 CL   UNL     1     -12.428  16.118  75.266  0.00  0.00    -0.112 Cl
ENDBRANCH   6   7
ENDBRANCH   2   6
TORSDOF 4
ENDMDL
MODEL 2
REMARK VINA RESULT:      -3.2      2.001      3.969
REMARK  Name = 
REMARK  4 active torsions:
REMARK  status: ('A' for Active; 'I' for Inactive)
REMARK    1  A    between atoms: N_2  and  C_3
REMARK    2  A    between atoms: N_2  and  C_6
REMARK    3  A    between atoms: C_3  and  C_4
REMARK    4  A    between atoms: C_6  and  C_7
REMARK                            x       y       z     vdW  Elec       q    Type
REMARK                         _______ _______ _______ _____ _____    ______ ____
ROOT
ATOM      1  C   UNL     1     -12.058  15.788  70.834  0.00  0.00    +0.090 C 
ATOM      2  N   UNL     1     -13.035  14.832  71.184  0.00  0.00    -0.269 NA
ENDROOT
BRANCH   2   3
ATOM      3  C   UNL     1     -13.956  15.187  72.207  0.00  0.00    +0.090 C 
BRANCH   3   4
ATOM      4  C   UNL     1     -13.228  16.095  73.177  0.00  0.00    +0.112 C 
ATOM      5 CL   UNL     1     -12.377  15.150  74.401  0.00  0.00    -0.112 Cl
ENDBRANCH   3   4
ENDBRANCH   2   3
BRANCH   2   6
ATOM      6  C   UNL     1     -12.686  13.464  71.085  0.00  0.00    +0.090 C 
BRANCH   6   7
ATOM      7  C   UNL     1     -13.359  12.553  72.064  0.00  0.00    +0.112 C 
ATOM      8 CL   UNL     1     -13.013  10.864  71.614  0.00  0.00    -0.112 Cl
ENDBRANCH   6   7
ENDBRANCH   2   6
TORSDOF 4
ENDMDL
MODEL 3
REMARK VINA RESULT:      -3.1      2.040      2.187
REMARK  Name = 
REMARK  4 active torsions:
REMARK  status: ('A' for Active; 'I' for Inactive)
REMARK    1  A    between atoms: N_2  and  C_3
REMARK    2  A    between atoms: N_2  and  C_6
REMARK    3  A    between atoms: C_3  and  C_4
REMARK    4  A    between atoms: C_6  and  C_7
REMARK                            x       y       z     vdW  Elec       q    Type
REMARK                         _______ _______ _______ _____ _____    ______ ____
ROOT
ATOM      1  C   UNL     1     -14.843  14.730  71.609  0.00  0.00    +0.090 C 
ATOM      2  N   UNL     1     -13.479  14.758  71.252  0.00  0.00    -0.269 NA
ENDROOT
BRANCH   2   3
ATOM      3  C   UNL     1     -12.805  13.510  71.159  0.00  0.00    +0.090 C 
BRANCH   3   4
ATOM      4  C   UNL     1     -13.491  12.553  72.112  0.00  0.00    +0.112 C 
ATOM      5 CL   UNL     1     -13.067  10.882  71.734  0.00  0.00    -0.112 Cl
ENDBRANCH   3   4
ENDBRANCH   2   3
BRANCH   2   6
ATOM      6  C   UNL     1     -12.709  15.870  71.668  0.00  0.00    +0.090 C 
BRANCH   6   7
ATOM      7  C   UNL     1     -11.685  15.590  72.724  0.00  0.00    +0.112 C 
ATOM      8 CL   UNL     1     -12.490  15.552  74.313  0.00  0.00    -0.112 Cl
ENDBRANCH   6   7
ENDBRANCH   2   6
TORSDOF 4
ENDMDL
MODEL 4
REMARK VINA RESULT:      -3.1      2.014      3.727
REMARK  Name = 
REMARK  4 active torsions:
REMARK  status: ('A' for Active; 'I' for Inactive)
REMARK    1  A    between atoms: N_2  and  C_3
REMARK    2  A    between atoms: N_2  and  C_6
REMARK    3  A    between atoms: C_3  and  C_4
REMARK    4  A    between atoms: C_6  and  C_7
REMARK                            x       y       z     vdW  Elec       q    Type
REMARK                         _______ _______ _______ _____ _____    ______ ____
ROOT
ATOM      1  C   UNL     1     -12.123  16.187  72.811  0.00  0.00    +0.090 C 
ATOM      2  N   UNL     1     -12.475  15.860  71.485  0.00  0.00    -0.269 NA
ENDROOT
BRANCH   2   3
ATOM      3  C   UNL     1     -13.687  15.143  71.291  0.00  0.00    +0.090 C 
BRANCH   3   4
ATOM      4  C   UNL     1     -13.799  14.132  72.413  0.00  0.00    +0.112 C 
ATOM      5 CL   UNL     1     -13.259  12.540  71.876  0.00  0.00    -0.112 Cl
ENDBRANCH   3   4
ENDBRANCH   2   3
BRANCH   2   6
ATOM      6  C   UNL     1     -11.429  15.606  70.567  0.00  0.00    +0.090 C 
BRANCH   6   7
ATOM      7  C   UNL     1     -11.779  15.785  69.121  0.00  0.00    +0.112 C 
ATOM      8 CL   UNL     1     -11.886  14.182  68.351  0.00  0.00    -0.112 Cl
ENDBRANCH   6   7
ENDBRANCH   2   6
TORSDOF 4
ENDMDL
MODEL 5
REMARK VINA RESULT:      -3.0      1.278      4.349
REMARK  Name = 
REMARK  4 active torsions:
REMARK  status: ('A' for Active; 'I' for Inactive)
REMARK    1  A    between atoms: N_2  and  C_3
REMARK    2  A    between atoms: N_2  and  C_6
REMARK    3  A    between atoms: C_3  and  C_4
REMARK    4  A    between atoms: C_6  and  C_7
REMARK                            x       y       z     vdW  Elec       q    Type
REMARK                         _______ _______ _______ _____ _____    ______ ____
ROOT
ATOM      1  C   UNL     1     -13.577  13.203  72.202  0.00  0.00    +0.090 C 
ATOM      2  N   UNL     1     -12.756  14.155  71.562  0.00  0.00    -0.269 NA
ENDROOT
BRANCH   2   3
ATOM      3  C   UNL     1     -13.073  15.526  71.760  0.00  0.00    +0.090 C 
BRANCH   3   4
ATOM      4  C   UNL     1     -12.053  16.093  72.726  0.00  0.00    +0.112 C 
ATOM      5 CL   UNL     1     -12.495  15.720  74.393  0.00  0.00    -0.112 Cl
ENDBRANCH   3   4
ENDBRANCH   2   3
BRANCH   2   6
ATOM      6  C   UNL     1     -12.186  13.805  70.315  0.00  0.00    +0.090 C 
BRANCH   6   7
ATOM      7  C   UNL     1     -11.988  14.936  69.354  0.00  0.00    +0.112 C 
ATOM      8 CL   UNL     1     -11.938  14.283  67.697  0.00  0.00    -0.112 Cl
ENDBRANCH   6   7
ENDBRANCH   2   6
TORSDOF 4
ENDMDL
MODEL 6
REMARK VINA RESULT:      -3.0      1.697      2.145
REMARK  Name = 
REMARK  4 active torsions:
REMARK  status: ('A' for Active; 'I' for Inactive)
REMARK    1  A    between atoms: N_2  and  C_3
REMARK    2  A    between atoms: N_2  and  C_6
REMARK    3  A    between atoms: C_3  and  C_4
REMARK    4  A    between atoms: C_6  and  C_7
REMARK                            x       y       z     vdW  Elec       q    Type
REMARK                         _______ _______ _______ _____ _____    ______ ____
ROOT
ATOM      1  C   UNL     1     -12.311  13.387  70.666  0.00  0.00    +0.090 C 
ATOM      2  N   UNL     1     -12.929  14.633  70.903  0.00  0.00    -0.269 NA
ENDROOT
BRANCH   2   3
ATOM      3  C   UNL     1     -12.173  15.799  70.607  0.00  0.00    +0.090 C 
BRANCH   3   4
ATOM      4  C   UNL     1     -11.797  15.737  69.142  0.00  0.00    +0.112 C 
ATOM      5 CL   UNL     1     -10.450  16.821  68.794  0.00  0.00    -0.112 Cl
ENDBRANCH   3   4
ENDBRANCH   2   3
BRANCH   2   6
ATOM      6  C   UNL     1     -13.849  14.721  71.974  0.00  0.00    +0.090 C 
BRANCH   6   7
ATOM      7  C   UNL     1     -13.574  15.801  72.975  0.00  0.00    +0.112 C 
ATOM      8 CL   UNL     1     -12.394  15.197  74.166  0.00  0.00    -0.112 Cl
ENDBRANCH   6   7
ENDBRANCH   2   6
TORSDOF 4
ENDMDL
MODEL 7
REMARK VINA RESULT:      -2.9      3.095      3.635
REMARK  Name = 
REMARK  4 active torsions:
REMARK  status: ('A' for Active; 'I' for Inactive)
REMARK    1  A    between atoms: N_2  and  C_3
REMARK    2  A    between atoms: N_2  and  C_6
REMARK    3  A    between atoms: C_3  and  C_4
REMARK    4  A    between atoms: C_6  and  C_7
REMARK                            x       y       z     vdW  Elec       q    Type
REMARK                         _______ _______ _______ _____ _____    ______ ____
ROOT
ATOM      1  C   UNL     1     -11.746  15.141  68.509  0.00  0.00    +0.090 C 
ATOM      2  N   UNL     1     -11.533  16.214  69.398  0.00  0.00    -0.269 NA
ENDROOT
BRANCH   2   3
ATOM      3  C   UNL     1     -10.458  17.097  69.108  0.00  0.00    +0.090 C 
BRANCH   3   4
ATOM      4  C   UNL     1     -10.543  17.445  67.636  0.00  0.00    +0.112 C 
ATOM      5 CL   UNL     1     -10.654  19.191  67.410  0.00  0.00    -0.112 Cl
ENDBRANCH   3   4
ENDBRANCH   2   3
BRANCH   2   6
ATOM      6  C   UNL     1     -11.842  16.012  70.765  0.00  0.00    +0.090 C 
BRANCH   6   7
ATOM      7  C   UNL     1     -13.170  15.377  71.040  0.00  0.00    +0.112 C 
ATOM      8 CL   UNL     1     -13.652  15.750  72.714  0.00  0.00    -0.112 Cl
ENDBRANCH   6   7
ENDBRANCH   2   6
TORSDOF 4
ENDMDL
MODEL 8
REMARK VINA RESULT:      -2.9      5.878      8.056
REMARK  Name = 
REMARK  4 active torsions:
REMARK  status: ('A' for Active; 'I' for Inactive)
REMARK    1  A    between atoms: N_2  and  C_3
REMARK    2  A    between atoms: N_2  and  C_6
REMARK    3  A    between atoms: C_3  and  C_4
REMARK    4  A    between atoms: C_6  and  C_7
REMARK                            x       y       z     vdW  Elec       q    Type
REMARK                         _______ _______ _______ _____ _____    ______ ____
ROOT
ATOM      1  C   UNL     1     -10.394  14.241  64.850  0.00  0.00    +0.090 C 
ATOM      2  N   UNL     1     -11.669  13.739  64.515  0.00  0.00    -0.269 NA
ENDROOT
BRANCH   2   3
ATOM      3  C   UNL     1     -12.680  13.811  65.511  0.00  0.00    +0.090 C 
BRANCH   3   4
ATOM      4  C   UNL     1     -11.986  13.892  66.855  0.00  0.00    +0.112 C 
ATOM      5 CL   UNL     1     -11.763  12.282  67.542  0.00  0.00    -0.112 Cl
ENDBRANCH   3   4
ENDBRANCH   2   3
BRANCH   2   6
ATOM      6  C   UNL     1     -11.734  12.646  63.617  0.00  0.00    +0.090 C 
BRANCH   6   7
ATOM      7  C   UNL     1     -10.458  11.884  63.432  0.00  0.00    +0.112 C 
ATOM      8 CL   UNL     1     -10.376  10.590  64.654  0.00  0.00    -0.112 Cl
ENDBRANCH   6   7
ENDBRANCH   2   6
TORSDOF 4
ENDMDL
MODEL 9
REMARK VINA RESULT:      -2.9      1.285      4.669
REMARK  Name = 
REMARK  4 active torsions:
REMARK  status: ('A' for Active; 'I' for Inactive)
REMARK    1  A    between atoms: N_2  and  C_3
REMARK    2  A    between atoms: N_2  and  C_6
REMARK    3  A    between atoms: C_3  and  C_4
REMARK    4  A    between atoms: C_6  and  C_7
REMARK                            x       y       z     vdW  Elec       q    Type
REMARK                         _______ _______ _______ _____ _____    ______ ____
ROOT
ATOM      1  C   UNL     1     -11.242  16.273  70.040  0.00  0.00    +0.090 C 
ATOM      2  N   UNL     1     -12.294  15.366  70.287  0.00  0.00    -0.269 NA
ENDROOT
BRANCH   2   3
ATOM      3  C   UNL     1     -13.023  15.528  71.496  0.00  0.00    +0.090 C 
BRANCH   3   4
ATOM      4  C   UNL     1     -12.080  16.133  72.515  0.00  0.00    +0.112 C 
ATOM      5 CL   UNL     1     -12.468  15.565  74.140  0.00  0.00    -0.112 Cl
ENDBRANCH   3   4
ENDBRANCH   2   3
BRANCH   2   6
ATOM      6  C   UNL     1     -12.158  14.046  69.795  0.00  0.00    +0.090 C 
BRANCH   6   7
ATOM      7  C   UNL     1     -11.210  13.878  68.647  0.00  0.00    +0.112 C 
ATOM      8 CL   UNL     1     -12.092  14.157  67.125  0.00  0.00    -0.112 Cl
ENDBRANCH   6   7
ENDBRANCH   2   6
TORSDOF 4
ENDMDL
