MODEL 1
REMARK VINA RESULT:      -5.2      0.000      0.000
REMARK  Name = 
REMARK  3 active torsions:
REMARK  status: ('A' for Active; 'I' for Inactive)
REMARK    1  A    between atoms: C_2  and  C_3
REMARK    2  A    between atoms: C_3  and  N_4
REMARK    3  A    between atoms: N_4  and  C_5
REMARK                            x       y       z     vdW  Elec       q    Type
REMARK                         _______ _______ _______ _____ _____    ______ ____
ROOT
ATOM      1  C   UNL     1     -10.824  15.320  69.483  0.00  0.00    +0.096 C 
ATOM      2  C   UNL     1     -11.977  15.282  70.639  0.00  0.00    -0.010 A 
ATOM      3  C   UNL     1     -12.180  13.923  70.807  0.00  0.00    -0.025 A 
ATOM      4  C   UNL     1     -13.145  13.591  71.749  0.00  0.00    -0.005 A 
ATOM      5  C   UNL     1     -13.458  14.491  72.763  0.00  0.00    -0.000 A 
ATOM      6  C   UNL     1     -12.894  15.762  72.730  0.00  0.00    -0.000 A 
ATOM      7  C   UNL     1     -11.904  13.237  69.507  0.00  0.00    +0.028 C 
ATOM      8  C   UNL     1     -11.934  16.078  71.777  0.00  0.00    -0.003 A 
ATOM      9  C   UNL     1     -11.740  14.348  68.488  0.00  0.00    +0.027 C 
ENDROOT
BRANCH   1  10
ATOM     10  N   UNL     1     -11.446  16.645  68.844  0.00  0.00    -0.201 NA
BRANCH  10  11
ATOM     11  C   UNL     1     -10.235  17.368  68.569  0.00  0.00    +0.165 C 
BRANCH  11  13
ATOM     12  C   UNL     1     -10.613  19.447  67.131  0.00  0.00    -0.013 C 
ATOM     13  C   UNL     1     -10.513  18.363  67.516  0.00  0.00    -0.059 C 
ENDBRANCH  11  13
ENDBRANCH  10  11
ENDBRANCH   1  10
TORSDOF 3
ENDMDL
MODEL 2
REMARK VINA RESULT:      -4.9      1.524      2.901
REMARK  Name = 
REMARK  3 active torsions:
REMARK  status: ('A' for Active; 'I' for Inactive)
REMARK    1  A    between atoms: C_2  and  C_3
REMARK    2  A    between atoms: C_3  and  N_4
REMARK    3  A    between atoms: N_4  and  C_5
REMARK                            x       y       z     vdW  Elec       q    Type
REMARK                         _______ _______ _______ _____ _____    ______ ____
ROOT
ATOM      1  C   UNL     1     -12.318  15.564  70.358  0.00  0.00    +0.096 C 
ATOM      2  C   UNL     1     -12.214  13.986  70.764  0.00  0.00    -0.010 A 
ATOM      3  C   UNL     1     -13.272  13.839  71.644  0.00  0.00    -0.025 A 
ATOM      4  C   UNL     1     -13.419  12.561  72.170  0.00  0.00    -0.005 A 
ATOM      5  C   UNL     1     -12.906  11.468  71.479  0.00  0.00    -0.000 A 
ATOM      6  C   UNL     1     -12.137  11.693  70.342  0.00  0.00    -0.000 A 
ATOM      7  C   UNL     1     -13.494  15.142  72.345  0.00  0.00    +0.028 C 
ATOM      8  C   UNL     1     -11.998  12.978  69.833  0.00  0.00    -0.003 A 
ATOM      9  C   UNL     1     -12.314  16.014  71.962  0.00  0.00    +0.027 C 
ENDROOT
BRANCH   1  10
ATOM     10  N   UNL     1     -10.729  15.692  70.267  0.00  0.00    -0.201 NA
BRANCH  10  11
ATOM     11  C   UNL     1     -10.628  16.691  69.239  0.00  0.00    +0.165 C 
BRANCH  11  13
ATOM     12  C   UNL     1     -10.599  15.640  66.910  0.00  0.00    -0.013 C 
ATOM     13  C   UNL     1     -10.915  16.055  67.940  0.00  0.00    -0.059 C 
ENDBRANCH  11  13
ENDBRANCH  10  11
ENDBRANCH   1  10
TORSDOF 3
ENDMDL
MODEL 3
REMARK VINA RESULT:      -4.9      2.580      2.953
REMARK  Name = 
REMARK  3 active torsions:
REMARK  status: ('A' for Active; 'I' for Inactive)
REMARK    1  A    between atoms: C_2  and  C_3
REMARK    2  A    between atoms: C_3  and  N_4
REMARK    3  A    between atoms: N_4  and  C_5
REMARK                            x       y       z     vdW  Elec       q    Type
REMARK                         _______ _______ _______ _____ _____    ______ ____
ROOT
ATOM      1  C   UNL     1     -11.202  13.718  69.066  0.00  0.00    +0.096 C 
ATOM      2  C   UNL     1     -12.417  14.096  70.089  0.00  0.00    -0.010 A 
ATOM      3  C   UNL     1     -12.417  13.018  70.956  0.00  0.00    -0.025 A 
ATOM      4  C   UNL     1     -13.386  13.071  71.951  0.00  0.00    -0.005 A 
ATOM      5  C   UNL     1     -13.910  14.300  72.338  0.00  0.00    -0.000 A 
ATOM      6  C   UNL     1     -13.551  15.438  71.623  0.00  0.00    -0.000 A 
ATOM      7  C   UNL     1     -11.942  11.809  70.214  0.00  0.00    +0.028 C 
ATOM      8  C   UNL     1     -12.583  15.365  70.629  0.00  0.00    -0.003 A 
ATOM      9  C   UNL     1     -11.877  12.228  68.758  0.00  0.00    +0.027 C 
ENDROOT
BRANCH   1  10
ATOM     10  N   UNL     1     -11.973  14.378  67.834  0.00  0.00    -0.201 NA
BRANCH  10  11
ATOM     11  C   UNL     1     -11.806  13.333  66.861  0.00  0.00    +0.165 C 
BRANCH  11  13
ATOM     12  C   UNL     1     -12.141  13.910  64.393  0.00  0.00    -0.013 C 
ATOM     13  C   UNL     1     -12.222  13.850  65.544  0.00  0.00    -0.059 C 
ENDBRANCH  11  13
ENDBRANCH  10  11
ENDBRANCH   1  10
TORSDOF 3
ENDMDL
MODEL 4
REMARK VINA RESULT:      -4.8      1.974      3.482
REMARK  Name = 
REMARK  3 active torsions:
REMARK  status: ('A' for Active; 'I' for Inactive)
REMARK    1  A    between atoms: C_2  and  C_3
REMARK    2  A    between atoms: C_3  and  N_4
REMARK    3  A    between atoms: N_4  and  C_5
REMARK                            x       y       z     vdW  Elec       q    Type
REMARK                         _______ _______ _______ _____ _____    ______ ____
ROOT
ATOM      1  C   UNL     1     -11.975  14.387  69.110  0.00  0.00    +0.096 C 
ATOM      2  C   UNL     1     -12.174  14.424  70.731  0.00  0.00    -0.010 A 
ATOM      3  C   UNL     1     -11.960  15.759  71.023  0.00  0.00    -0.025 A 
ATOM      4  C   UNL     1     -12.058  16.082  72.371  0.00  0.00    -0.005 A 
ATOM      5  C   UNL     1     -12.807  15.275  73.222  0.00  0.00    -0.000 A 
ATOM      6  C   UNL     1     -13.329  14.084  72.729  0.00  0.00    -0.000 A 
ATOM      7  C   UNL     1     -10.999  16.318  70.022  0.00  0.00    +0.028 C 
ATOM      8  C   UNL     1     -13.218  13.775  71.379  0.00  0.00    -0.003 A 
ATOM      9  C   UNL     1     -10.487  15.123  69.241  0.00  0.00    +0.027 C 
ENDROOT
BRANCH   1  10
ATOM     10  N   UNL     1     -11.317  12.934  69.178  0.00  0.00    -0.201 NA
BRANCH  10  11
ATOM     11  C   UNL     1     -10.681  12.900  67.890  0.00  0.00    +0.165 C 
BRANCH  11  13
ATOM     12  C   UNL     1     -12.073  12.607  65.767  0.00  0.00    -0.013 C 
ATOM     13  C   UNL     1     -11.724  12.759  66.857  0.00  0.00    -0.059 C 
ENDBRANCH  11  13
ENDBRANCH  10  11
ENDBRANCH   1  10
TORSDOF 3
ENDMDL
MODEL 5
REMARK VINA RESULT:      -4.8      3.658      6.462
REMARK  Name = 
REMARK  3 active torsions:
REMARK  status: ('A' for Active; 'I' for Inactive)
REMARK    1  A    between atoms: C_2  and  C_3
REMARK    2  A    between atoms: C_3  and  N_4
REMARK    3  A    between atoms: N_4  and  C_5
REMARK                            x       y       z     vdW  Elec       q    Type
REMARK                         _______ _______ _______ _____ _____    ______ ____
ROOT
ATOM      1  C   UNL     1     -12.722  10.531  70.462  0.00  0.00    +0.096 C 
ATOM      2  C   UNL     1     -12.582  11.991  71.181  0.00  0.00    -0.010 A 
ATOM      3  C   UNL     1     -12.218  12.805  70.124  0.00  0.00    -0.025 A 
ATOM      4  C   UNL     1     -12.014  14.138  70.460  0.00  0.00    -0.005 A 
ATOM      5  C   UNL     1     -12.630  14.667  71.590  0.00  0.00    -0.000 A 
ATOM      6  C   UNL     1     -13.326  13.811  72.437  0.00  0.00    -0.000 A 
ATOM      7  C   UNL     1     -11.445  11.989  69.137  0.00  0.00    +0.028 C 
ATOM      8  C   UNL     1     -13.516  12.480  72.086  0.00  0.00    -0.003 A 
ATOM      9  C   UNL     1     -11.190  10.660  69.823  0.00  0.00    +0.027 C 
ENDROOT
BRANCH   1  10
ATOM     10  N   UNL     1     -12.171   9.787  71.762  0.00  0.00    -0.201 NA
BRANCH  10  11
ATOM     11  C   UNL     1     -12.622   8.452  71.482  0.00  0.00    +0.165 C 
BRANCH  11  13
ATOM     12  C   UNL     1     -15.049   7.785  71.923  0.00  0.00    -0.013 C 
ATOM     13  C   UNL     1     -14.051   8.358  71.835  0.00  0.00    -0.059 C 
ENDBRANCH  11  13
ENDBRANCH  10  11
ENDBRANCH   1  10
TORSDOF 3
ENDMDL
MODEL 6
REMARK VINA RESULT:      -4.7      2.064      5.259
REMARK  Name = 
REMARK  3 active torsions:
REMARK  status: ('A' for Active; 'I' for Inactive)
REMARK    1  A    between atoms: C_2  and  C_3
REMARK    2  A    between atoms: C_3  and  N_4
REMARK    3  A    between atoms: N_4  and  C_5
REMARK                            x       y       z     vdW  Elec       q    Type
REMARK                         _______ _______ _______ _____ _____    ______ ____
ROOT
ATOM      1  C   UNL     1     -10.643  15.724  68.770  0.00  0.00    +0.096 C 
ATOM      2  C   UNL     1     -11.344  15.280  67.363  0.00  0.00    -0.010 A 
ATOM      3  C   UNL     1     -10.403  15.676  66.428  0.00  0.00    -0.025 A 
ATOM      4  C   UNL     1     -10.754  15.424  65.108  0.00  0.00    -0.005 A 
ATOM      5  C   UNL     1     -11.672  14.421  64.817  0.00  0.00    -0.000 A 
ATOM      6  C   UNL     1     -12.324  13.782  65.867  0.00  0.00    -0.000 A 
ATOM      7  C   UNL     1      -9.671  16.865  66.964  0.00  0.00    +0.028 C 
ATOM      8  C   UNL     1     -11.962  14.050  67.182  0.00  0.00    -0.003 A 
ATOM      9  C   UNL     1     -10.426  17.278  68.212  0.00  0.00    +0.027 C 
ENDROOT
BRANCH   1  10
ATOM     10  N   UNL     1     -12.057  16.097  69.409  0.00  0.00    -0.201 NA
BRANCH  10  11
ATOM     11  C   UNL     1     -11.771  15.831  70.792  0.00  0.00    +0.165 C 
BRANCH  11  13
ATOM     12  C   UNL     1     -14.098  15.113  71.568  0.00  0.00    -0.013 C 
ATOM     13  C   UNL     1     -13.044  15.578  71.493  0.00  0.00    -0.059 C 
ENDBRANCH  11  13
ENDBRANCH  10  11
ENDBRANCH   1  10
TORSDOF 3
ENDMDL
MODEL 7
REMARK VINA RESULT:      -4.6      4.508      5.757
REMARK  Name = 
REMARK  3 active torsions:
REMARK  status: ('A' for Active; 'I' for Inactive)
REMARK    1  A    between atoms: C_2  and  C_3
REMARK    2  A    between atoms: C_3  and  N_4
REMARK    3  A    between atoms: N_4  and  C_5
REMARK                            x       y       z     vdW  Elec       q    Type
REMARK                         _______ _______ _______ _____ _____    ______ ____
ROOT
ATOM      1  C   UNL     1     -10.814  15.218  66.283  0.00  0.00    +0.096 C 
ATOM      2  C   UNL     1     -10.936  14.133  65.068  0.00  0.00    -0.010 A 
ATOM      3  C   UNL     1     -10.394  12.994  65.636  0.00  0.00    -0.025 A 
ATOM      4  C   UNL     1     -10.359  11.886  64.797  0.00  0.00    -0.005 A 
ATOM      5  C   UNL     1     -11.248  11.800  63.731  0.00  0.00    -0.000 A 
ATOM      6  C   UNL     1     -12.062  12.891  63.445  0.00  0.00    -0.000 A 
ATOM      7  C   UNL     1      -9.367  13.405  66.642  0.00  0.00    +0.028 C 
ATOM      8  C   UNL     1     -12.080  13.992  64.293  0.00  0.00    -0.003 A 
ATOM      9  C   UNL     1      -9.189  14.899  66.451  0.00  0.00    +0.027 C 
ENDROOT
BRANCH   1  10
ATOM     10  N   UNL     1     -10.526  16.405  65.255  0.00  0.00    -0.201 NA
BRANCH  10  11
ATOM     11  C   UNL     1      -9.755  17.272  66.103  0.00  0.00    +0.165 C 
BRANCH  11  13
ATOM     12  C   UNL     1     -10.461  19.706  66.434  0.00  0.00    -0.013 C 
ATOM     13  C   UNL     1     -10.425  18.585  66.161  0.00  0.00    -0.059 C 
ENDBRANCH  11  13
ENDBRANCH  10  11
ENDBRANCH   1  10
TORSDOF 3
ENDMDL
MODEL 8
REMARK VINA RESULT:      -4.6      3.625      6.841
REMARK  Name = 
REMARK  3 active torsions:
REMARK  status: ('A' for Active; 'I' for Inactive)
REMARK    1  A    between atoms: C_2  and  C_3
REMARK    2  A    between atoms: C_3  and  N_4
REMARK    3  A    between atoms: N_4  and  C_5
REMARK                            x       y       z     vdW  Elec       q    Type
REMARK                         _______ _______ _______ _____ _____    ______ ____
ROOT
ATOM      1  C   UNL     1     -10.996  12.461  67.681  0.00  0.00    +0.096 C 
ATOM      2  C   UNL     1     -11.627  12.548  66.177  0.00  0.00    -0.010 A 
ATOM      3  C   UNL     1     -11.543  13.901  65.901  0.00  0.00    -0.025 A 
ATOM      4  C   UNL     1     -12.034  14.272  64.655  0.00  0.00    -0.005 A 
ATOM      5  C   UNL     1     -12.090  13.335  63.628  0.00  0.00    -0.000 A 
ATOM      6  C   UNL     1     -11.781  12.008  63.913  0.00  0.00    -0.000 A 
ATOM      7  C   UNL     1     -11.659  14.657  67.186  0.00  0.00    +0.028 C 
ATOM      8  C   UNL     1     -11.295  11.656  65.166  0.00  0.00    -0.003 A 
ATOM      9  C   UNL     1     -12.050  13.628  68.229  0.00  0.00    +0.027 C 
ENDROOT
BRANCH   1  10
ATOM     10  N   UNL     1     -12.005  11.291  68.086  0.00  0.00    -0.201 NA
BRANCH  10  11
ATOM     11  C   UNL     1     -11.287  10.731  69.198  0.00  0.00    +0.165 C 
BRANCH  11  13
ATOM     12  C   UNL     1     -12.773  10.922  71.268  0.00  0.00    -0.013 C 
ATOM     13  C   UNL     1     -12.227  10.554  70.320  0.00  0.00    -0.059 C 
ENDBRANCH  11  13
ENDBRANCH  10  11
ENDBRANCH   1  10
TORSDOF 3
ENDMDL
MODEL 9
REMARK VINA RESULT:      -4.5      4.277      7.396
REMARK  Name = 
REMARK  3 active torsions:
REMARK  status: ('A' for Active; 'I' for Inactive)
REMARK    1  A    between atoms: C_2  and  C_3
REMARK    2  A    between atoms: C_3  and  N_4
REMARK    3  A    between atoms: N_4  and  C_5
REMARK                            x       y       z     vdW  Elec       q    Type
REMARK                         _______ _______ _______ _____ _____    ______ ____
ROOT
ATOM      1  C   UNL     1     -10.799  12.093  67.389  0.00  0.00    +0.096 C 
ATOM      2  C   UNL     1     -11.472  12.180  65.904  0.00  0.00    -0.010 A 
ATOM      3  C   UNL     1     -11.509  13.544  65.677  0.00  0.00    -0.025 A 
ATOM      4  C   UNL     1     -12.061  13.916  64.457  0.00  0.00    -0.005 A 
ATOM      5  C   UNL     1     -12.063  13.015  63.397  0.00  0.00    -0.000 A 
ATOM      6  C   UNL     1     -11.635  11.711  63.624  0.00  0.00    -0.000 A 
ATOM      7  C   UNL     1     -11.657  14.241  66.992  0.00  0.00    +0.028 C 
ATOM      8  C   UNL     1     -11.090  11.356  64.852  0.00  0.00    -0.003 A 
ATOM      9  C   UNL     1     -11.934  13.146  68.003  0.00  0.00    +0.027 C 
ENDROOT
BRANCH   1  10
ATOM     10  N   UNL     1     -11.694  10.827  67.771  0.00  0.00    -0.201 NA
BRANCH  10  11
ATOM     11  C   UNL     1     -10.705  10.028  68.439  0.00  0.00    +0.165 C 
BRANCH  11  13
ATOM     12  C   UNL     1     -10.520   7.973  66.931  0.00  0.00    -0.013 C 
ATOM     13  C   UNL     1     -10.304   8.931  67.539  0.00  0.00    -0.059 C 
ENDBRANCH  11  13
ENDBRANCH  10  11
ENDBRANCH   1  10
TORSDOF 3
ENDMDL
