MODEL 1
REMARK VINA RESULT:      -4.0      0.000      0.000
REMARK  Name = 
REMARK  2 active torsions:
REMARK  status: ('A' for Active; 'I' for Inactive)
REMARK    1  A    between atoms: CB_2  and  CA_4
REMARK    2  A    between atoms: CA_4  and  C_6
REMARK                            x       y       z     vdW  Elec       q    Type
REMARK                         _______ _______ _______ _____ _____    ______ ____
ROOT
ATOM      1  CA  THR A   1     -10.801  14.555  65.121  0.00  0.00    +0.224 C 
ATOM      2  N   THR A   1     -10.402  16.087  65.161  0.00  0.00    -0.118 NA
ENDROOT
BRANCH   1   4
ATOM      3  CG2 THR A   1     -11.704  12.960  66.718  0.00  0.00    +0.038 C 
ATOM      4  CB  THR A   1     -11.543  14.612  66.707  0.00  0.00    +0.181 C 
ATOM      5  OG1 THR A   1     -10.179  14.511  67.389  0.00  0.00    -0.221 OA
ENDBRANCH   1   4
BRANCH   1   6
ATOM      6  C   THR A   1     -12.181  14.894  64.340  0.00  0.00    +0.384 C 
ATOM      7  OXT THR A   1     -12.111  16.205  63.871  0.00  0.00    -0.244 OA
ATOM      8  O   THR A   1     -12.600  14.026  63.572  0.00  0.00    -0.244 OA
ENDBRANCH   1   6
TORSDOF 2
ENDMDL
MODEL 2
REMARK VINA RESULT:      -3.9      2.076      2.490
REMARK  Name = 
REMARK  2 active torsions:
REMARK  status: ('A' for Active; 'I' for Inactive)
REMARK    1  A    between atoms: CB_2  and  CA_4
REMARK    2  A    between atoms: CA_4  and  C_6
REMARK                            x       y       z     vdW  Elec       q    Type
REMARK                         _______ _______ _______ _____ _____    ______ ____
ROOT
ATOM      1  CA  THR A   1     -12.778  13.797  65.550  0.00  0.00    +0.224 C 
ATOM      2  N   THR A   1     -13.148  12.482  64.749  0.00  0.00    -0.118 NA
ENDROOT
BRANCH   1   4
ATOM      3  CG2 THR A   1     -11.157  14.311  67.287  0.00  0.00    +0.038 C 
ATOM      4  CB  THR A   1     -11.261  13.132  66.123  0.00  0.00    +0.181 C 
ATOM      5  OG1 THR A   1     -11.993  12.203  67.091  0.00  0.00    -0.221 OA
ENDBRANCH   1   4
BRANCH   1   6
ATOM      6  C   THR A   1     -12.114  14.464  64.228  0.00  0.00    +0.384 C 
ATOM      7  OXT THR A   1     -12.476  13.697  63.120  0.00  0.00    -0.244 OA
ATOM      8  O   THR A   1     -12.196  15.689  64.135  0.00  0.00    -0.244 OA
ENDBRANCH   1   6
TORSDOF 2
ENDMDL
MODEL 3
REMARK VINA RESULT:      -3.9      1.648      2.729
REMARK  Name = 
REMARK  2 active torsions:
REMARK  status: ('A' for Active; 'I' for Inactive)
REMARK    1  A    between atoms: CB_2  and  CA_4
REMARK    2  A    between atoms: CA_4  and  C_6
REMARK                            x       y       z     vdW  Elec       q    Type
REMARK                         _______ _______ _______ _____ _____    ______ ____
ROOT
ATOM      1  CA  THR A   1     -12.094  14.533  65.161  0.00  0.00    +0.224 C 
ATOM      2  N   THR A   1     -12.800  15.128  63.874  0.00  0.00    -0.118 NA
ENDROOT
BRANCH   1   4
ATOM      3  CG2 THR A   1     -11.102  12.371  65.663  0.00  0.00    +0.038 C 
ATOM      4  CB  THR A   1     -11.351  13.225  64.262  0.00  0.00    +0.181 C 
ATOM      5  OG1 THR A   1     -12.706  12.548  64.057  0.00  0.00    -0.221 OA
ENDBRANCH   1   4
BRANCH   1   6
ATOM      6  C   THR A   1     -10.827  15.529  64.976  0.00  0.00    +0.384 C 
ATOM      7  OXT THR A   1     -11.242  16.636  64.236  0.00  0.00    -0.244 OA
ATOM      8  O   THR A   1     -10.139  15.728  65.978  0.00  0.00    -0.244 OA
ENDBRANCH   1   6
TORSDOF 2
ENDMDL
MODEL 4
REMARK VINA RESULT:      -3.8      2.025      2.786
REMARK  Name = 
REMARK  2 active torsions:
REMARK  status: ('A' for Active; 'I' for Inactive)
REMARK    1  A    between atoms: CB_2  and  CA_4
REMARK    2  A    between atoms: CA_4  and  C_6
REMARK                            x       y       z     vdW  Elec       q    Type
REMARK                         _______ _______ _______ _____ _____    ______ ____
ROOT
ATOM      1  CA  THR A   1     -11.153  13.834  64.541  0.00  0.00    +0.224 C 
ATOM      2  N   THR A   1     -12.476  14.382  63.865  0.00  0.00    -0.118 NA
ENDROOT
BRANCH   1   4
ATOM      3  CG2 THR A   1      -9.565  14.766  66.127  0.00  0.00    +0.038 C 
ATOM      4  CB  THR A   1     -11.156  15.080  65.773  0.00  0.00    +0.181 C 
ATOM      5  OG1 THR A   1     -10.747  16.141  64.750  0.00  0.00    -0.221 OA
ENDBRANCH   1   4
BRANCH   1   6
ATOM      6  C   THR A   1     -12.001  12.785  65.443  0.00  0.00    +0.384 C 
ATOM      7  OXT THR A   1     -13.227  12.557  64.817  0.00  0.00    -0.244 OA
ATOM      8  O   THR A   1     -11.382  11.811  65.874  0.00  0.00    -0.244 OA
ENDBRANCH   1   6
TORSDOF 2
ENDMDL
MODEL 5
REMARK VINA RESULT:      -3.7      1.914      2.565
REMARK  Name = 
REMARK  2 active torsions:
REMARK  status: ('A' for Active; 'I' for Inactive)
REMARK    1  A    between atoms: CB_2  and  CA_4
REMARK    2  A    between atoms: CA_4  and  C_6
REMARK                            x       y       z     vdW  Elec       q    Type
REMARK                         _______ _______ _______ _____ _____    ______ ____
ROOT
ATOM      1  CA  THR A   1     -11.825  13.962  66.137  0.00  0.00    +0.224 C 
ATOM      2  N   THR A   1     -12.094  12.476  66.616  0.00  0.00    -0.118 NA
ENDROOT
BRANCH   1   4
ATOM      3  CG2 THR A   1      -9.828  15.279  65.703  0.00  0.00    +0.038 C 
ATOM      4  CB  THR A   1     -10.130  13.650  65.818  0.00  0.00    +0.181 C 
ATOM      5  OG1 THR A   1      -9.809  13.668  67.313  0.00  0.00    -0.221 OA
ENDBRANCH   1   4
BRANCH   1   6
ATOM      6  C   THR A   1     -12.291  13.600  64.626  0.00  0.00    +0.384 C 
ATOM      7  OXT THR A   1     -13.130  12.487  64.678  0.00  0.00    -0.244 OA
ATOM      8  O   THR A   1     -12.633  14.550  63.919  0.00  0.00    -0.244 OA
ENDBRANCH   1   6
TORSDOF 2
ENDMDL
MODEL 6
REMARK VINA RESULT:      -3.7      2.349      3.485
REMARK  Name = 
REMARK  2 active torsions:
REMARK  status: ('A' for Active; 'I' for Inactive)
REMARK    1  A    between atoms: CB_2  and  CA_4
REMARK    2  A    between atoms: CA_4  and  C_6
REMARK                            x       y       z     vdW  Elec       q    Type
REMARK                         _______ _______ _______ _____ _____    ______ ____
ROOT
ATOM      1  CA  THR A   1     -11.967  12.832  65.243  0.00  0.00    +0.224 C 
ATOM      2  N   THR A   1     -13.024  14.010  65.191  0.00  0.00    -0.118 NA
ENDROOT
BRANCH   1   4
ATOM      3  CG2 THR A   1     -10.953  11.347  63.607  0.00  0.00    +0.038 C 
ATOM      4  CB  THR A   1     -11.837  12.748  63.497  0.00  0.00    +0.181 C 
ATOM      5  OG1 THR A   1     -13.139  11.952  63.403  0.00  0.00    -0.221 OA
ENDBRANCH   1   4
BRANCH   1   6
ATOM      6  C   THR A   1     -10.742  13.884  65.394  0.00  0.00    +0.384 C 
ATOM      7  OXT THR A   1     -11.274  15.144  65.669  0.00  0.00    -0.244 OA
ATOM      8  O   THR A   1      -9.777  13.506  66.061  0.00  0.00    -0.244 OA
ENDBRANCH   1   6
TORSDOF 2
ENDMDL
MODEL 7
REMARK VINA RESULT:      -3.6      7.008      7.624
REMARK  Name = 
REMARK  2 active torsions:
REMARK  status: ('A' for Active; 'I' for Inactive)
REMARK    1  A    between atoms: CB_2  and  CA_4
REMARK    2  A    between atoms: CA_4  and  C_6
REMARK                            x       y       z     vdW  Elec       q    Type
REMARK                         _______ _______ _______ _____ _____    ______ ____
ROOT
ATOM      1  CA  THR A   1     -12.759  14.832  72.107  0.00  0.00    +0.224 C 
ATOM      2  N   THR A   1     -13.321  15.673  70.888  0.00  0.00    -0.118 NA
ENDROOT
BRANCH   1   4
ATOM      3  CG2 THR A   1     -12.347  15.248  74.467  0.00  0.00    +0.038 C 
ATOM      4  CB  THR A   1     -13.110  16.100  73.264  0.00  0.00    +0.181 C 
ATOM      5  OG1 THR A   1     -11.810  16.826  72.916  0.00  0.00    -0.221 OA
ENDBRANCH   1   4
BRANCH   1   6
ATOM      6  C   THR A   1     -14.191  14.097  72.312  0.00  0.00    +0.384 C 
ATOM      7  OXT THR A   1     -15.087  14.611  71.375  0.00  0.00    -0.244 OA
ATOM      8  O   THR A   1     -14.159  12.876  72.472  0.00  0.00    -0.244 OA
ENDBRANCH   1   6
TORSDOF 2
ENDMDL
MODEL 8
REMARK VINA RESULT:      -3.5      2.647      3.210
REMARK  Name = 
REMARK  2 active torsions:
REMARK  status: ('A' for Active; 'I' for Inactive)
REMARK    1  A    between atoms: CB_2  and  CA_4
REMARK    2  A    between atoms: CA_4  and  C_6
REMARK                            x       y       z     vdW  Elec       q    Type
REMARK                         _______ _______ _______ _____ _____    ______ ____
ROOT
ATOM      1  CA  THR A   1     -12.003  12.513  64.873  0.00  0.00    +0.224 C 
ATOM      2  N   THR A   1     -12.709  12.641  63.461  0.00  0.00    -0.118 NA
ENDROOT
BRANCH   1   4
ATOM      3  CG2 THR A   1      -9.790  11.852  65.633  0.00  0.00    +0.038 C 
ATOM      4  CB  THR A   1     -10.415  12.304  64.162  0.00  0.00    +0.181 C 
ATOM      5  OG1 THR A   1     -10.723  10.847  63.816  0.00  0.00    -0.221 OA
ENDBRANCH   1   4
BRANCH   1   6
ATOM      6  C   THR A   1     -11.859  14.125  64.992  0.00  0.00    +0.384 C 
ATOM      7  OXT THR A   1     -12.654  14.711  64.006  0.00  0.00    -0.244 OA
ATOM      8  O   THR A   1     -11.908  14.594  66.130  0.00  0.00    -0.244 OA
ENDBRANCH   1   6
TORSDOF 2
ENDMDL
MODEL 9
REMARK VINA RESULT:      -3.5      5.191      6.134
REMARK  Name = 
REMARK  2 active torsions:
REMARK  status: ('A' for Active; 'I' for Inactive)
REMARK    1  A    between atoms: CB_2  and  CA_4
REMARK    2  A    between atoms: CA_4  and  C_6
REMARK                            x       y       z     vdW  Elec       q    Type
REMARK                         _______ _______ _______ _____ _____    ______ ____
ROOT
ATOM      1  CA  THR A   1     -11.994  14.698  71.549  0.00  0.00    +0.224 C 
ATOM      2  N   THR A   1     -11.802  16.262  71.715  0.00  0.00    -0.118 NA
ENDROOT
BRANCH   1   4
ATOM      3  CG2 THR A   1     -13.664  13.086  72.268  0.00  0.00    +0.038 C 
ATOM      4  CB  THR A   1     -13.636  14.742  72.159  0.00  0.00    +0.181 C 
ATOM      5  OG1 THR A   1     -13.135  14.856  73.599  0.00  0.00    -0.221 OA
ENDBRANCH   1   4
BRANCH   1   6
ATOM      6  C   THR A   1     -12.445  14.878  70.001  0.00  0.00    +0.384 C 
ATOM      7  OXT THR A   1     -12.099  16.165  69.588  0.00  0.00    -0.244 OA
ATOM      8  O   THR A   1     -12.189  13.939  69.246  0.00  0.00    -0.244 OA
ENDBRANCH   1   6
TORSDOF 2
ENDMDL
