MODEL 1
REMARK VINA RESULT:      -5.0      0.000      0.000
REMARK  Name = 
REMARK  1 active torsions:
REMARK  status: ('A' for Active; 'I' for Inactive)
REMARK    1  A    between atoms: C_6  and  C_7
REMARK                            x       y       z     vdW  Elec       q    Type
REMARK                         _______ _______ _______ _____ _____    ______ ____
ROOT
ATOM      1  C   UNL     1     -11.731  16.026  71.452  0.00  0.00    +0.090 C 
ATOM      2  N   UNL     1     -11.913  15.753  71.657  0.00  0.00    -0.269 NA
ATOM      3  C   UNL     1     -13.177  15.084  71.008  0.00  0.00    +0.082 C 
ATOM      4  C   UNL     1     -13.921  14.703  72.425  0.00  0.00    +0.022 C 
ATOM      5  C   UNL     1     -13.547  15.938  73.231  0.00  0.00    +0.019 C 
ATOM      6  C   UNL     1     -12.063  15.678  73.036  0.00  0.00    +0.072 C 
ENDROOT
BRANCH   3   7
ATOM      7  C   UNL     1     -12.457  13.644  70.880  0.00  0.00    +0.011 A 
ATOM      8  C   UNL     1     -12.062  13.241  69.652  0.00  0.00    +0.096 A 
ATOM      9  N   UNL     1     -11.512  12.006  69.535  0.00  0.00    -0.243 NA
ATOM     10  C   UNL     1     -11.878  11.067  70.409  0.00  0.00    +0.099 A 
ATOM     11  C   UNL     1     -12.832  11.359  71.375  0.00  0.00    +0.020 A 
ATOM     12  C   UNL     1     -13.156  12.690  71.615  0.00  0.00    +0.000 A 
ENDBRANCH   3   7
TORSDOF 1
ENDMDL
MODEL 2
REMARK VINA RESULT:      -4.9      1.703      2.955
REMARK  Name = 
REMARK  1 active torsions:
REMARK  status: ('A' for Active; 'I' for Inactive)
REMARK    1  A    between atoms: C_6  and  C_7
REMARK                            x       y       z     vdW  Elec       q    Type
REMARK                         _______ _______ _______ _____ _____    ______ ____
ROOT
ATOM      1  C   UNL     1     -13.932  13.938  72.108  0.00  0.00    +0.090 C 
ATOM      2  N   UNL     1     -13.772  14.279  72.017  0.00  0.00    -0.269 NA
ATOM      3  C   UNL     1     -12.207  14.333  71.900  0.00  0.00    +0.082 C 
ATOM      4  C   UNL     1     -12.056  15.923  72.295  0.00  0.00    +0.022 C 
ATOM      5  C   UNL     1     -13.143  16.011  73.355  0.00  0.00    +0.019 C 
ATOM      6  C   UNL     1     -14.208  15.549  72.373  0.00  0.00    +0.072 C 
ENDROOT
BRANCH   3   7
ATOM      7  C   UNL     1     -12.249  14.624  70.312  0.00  0.00    +0.011 A 
ATOM      8  C   UNL     1     -11.969  13.603  69.474  0.00  0.00    +0.096 A 
ATOM      9  N   UNL     1     -11.945  13.862  68.142  0.00  0.00    -0.243 NA
ATOM     10  C   UNL     1     -11.628  15.096  67.745  0.00  0.00    +0.099 A 
ATOM     11  C   UNL     1     -11.292  16.058  68.688  0.00  0.00    +0.020 A 
ATOM     12  C   UNL     1     -11.590  15.817  70.025  0.00  0.00    +0.000 A 
ENDBRANCH   3   7
TORSDOF 1
ENDMDL
MODEL 3
REMARK VINA RESULT:      -4.6      3.115      5.415
REMARK  Name = 
REMARK  1 active torsions:
REMARK  status: ('A' for Active; 'I' for Inactive)
REMARK    1  A    between atoms: C_6  and  C_7
REMARK                            x       y       z     vdW  Elec       q    Type
REMARK                         _______ _______ _______ _____ _____    ______ ____
ROOT
ATOM      1  C   UNL     1     -11.338  14.845  65.533  0.00  0.00    +0.090 C 
ATOM      2  N   UNL     1     -11.531  14.595  65.755  0.00  0.00    -0.269 NA
ATOM      3  C   UNL     1     -10.726  13.868  66.891  0.00  0.00    +0.082 C 
ATOM      4  C   UNL     1     -11.664  12.517  66.936  0.00  0.00    +0.022 C 
ATOM      5  C   UNL     1     -11.955  12.379  65.449  0.00  0.00    +0.019 C 
ATOM      6  C   UNL     1     -12.581  13.762  65.390  0.00  0.00    +0.072 C 
ENDROOT
BRANCH   3   7
ATOM      7  C   UNL     1     -11.551  14.606  68.068  0.00  0.00    +0.011 A 
ATOM      8  C   UNL     1     -11.058  15.764  68.556  0.00  0.00    +0.096 A 
ATOM      9  N   UNL     1     -11.718  16.353  69.585  0.00  0.00    -0.243 NA
ATOM     10  C   UNL     1     -12.411  15.574  70.417  0.00  0.00    +0.099 A 
ATOM     11  C   UNL     1     -12.404  14.197  70.239  0.00  0.00    +0.020 A 
ATOM     12  C   UNL     1     -11.941  13.680  69.033  0.00  0.00    +0.000 A 
ENDBRANCH   3   7
TORSDOF 1
ENDMDL
MODEL 4
REMARK VINA RESULT:      -4.6      1.853      4.070
REMARK  Name = 
REMARK  1 active torsions:
REMARK  status: ('A' for Active; 'I' for Inactive)
REMARK    1  A    between atoms: C_6  and  C_7
REMARK                            x       y       z     vdW  Elec       q    Type
REMARK                         _______ _______ _______ _____ _____    ______ ____
ROOT
ATOM      1  C   UNL     1     -11.495  15.401  68.025  0.00  0.00    +0.090 C 
ATOM      2  N   UNL     1     -11.624  15.052  68.129  0.00  0.00    -0.269 NA
ATOM      3  C   UNL     1     -10.987  14.397  69.407  0.00  0.00    +0.082 C 
ATOM      4  C   UNL     1     -11.237  12.837  68.950  0.00  0.00    +0.022 C 
ATOM      5  C   UNL     1     -10.965  12.978  67.460  0.00  0.00    +0.019 C 
ATOM      6  C   UNL     1     -12.059  14.021  67.306  0.00  0.00    +0.072 C 
ENDROOT
BRANCH   3   7
ATOM      7  C   UNL     1     -12.366  14.482  70.244  0.00  0.00    +0.011 A 
ATOM      8  C   UNL     1     -12.645  15.636  70.887  0.00  0.00    +0.096 A 
ATOM      9  N   UNL     1     -13.773  15.688  71.641  0.00  0.00    -0.243 NA
ATOM     10  C   UNL     1     -14.225  14.553  72.177  0.00  0.00    +0.099 A 
ATOM     11  C   UNL     1     -13.517  13.373  71.991  0.00  0.00    +0.020 A 
ATOM     12  C   UNL     1     -12.536  13.329  71.006  0.00  0.00    +0.000 A 
ENDBRANCH   3   7
TORSDOF 1
ENDMDL
MODEL 5
REMARK VINA RESULT:      -4.3      2.560      3.931
REMARK  Name = 
REMARK  1 active torsions:
REMARK  status: ('A' for Active; 'I' for Inactive)
REMARK    1  A    between atoms: C_6  and  C_7
REMARK                            x       y       z     vdW  Elec       q    Type
REMARK                         _______ _______ _______ _____ _____    ______ ____
ROOT
ATOM      1  C   UNL     1     -12.067  13.313  70.419  0.00  0.00    +0.090 C 
ATOM      2  N   UNL     1     -12.142  13.604  70.176  0.00  0.00    -0.269 NA
ATOM      3  C   UNL     1     -10.980  14.068  69.225  0.00  0.00    +0.082 C 
ATOM      4  C   UNL     1     -11.492  15.624  69.068  0.00  0.00    +0.022 C 
ATOM      5  C   UNL     1     -11.994  15.855  70.485  0.00  0.00    +0.019 C 
ATOM      6  C   UNL     1     -12.973  14.698  70.382  0.00  0.00    +0.072 C 
ENDROOT
BRANCH   3   7
ATOM      7  C   UNL     1     -11.751  13.570  67.896  0.00  0.00    +0.011 A 
ATOM      8  C   UNL     1     -11.411  12.370  67.380  0.00  0.00    +0.096 A 
ATOM      9  N   UNL     1     -12.016  11.978  66.230  0.00  0.00    -0.243 NA
ATOM     10  C   UNL     1     -12.433  12.922  65.384  0.00  0.00    +0.099 A 
ATOM     11  C   UNL     1     -12.204  14.260  65.677  0.00  0.00    +0.020 A 
ATOM     12  C   UNL     1     -11.830  14.608  66.970  0.00  0.00    +0.000 A 
ENDBRANCH   3   7
TORSDOF 1
ENDMDL
MODEL 6
REMARK VINA RESULT:      -4.3      4.654      6.408
REMARK  Name = 
REMARK  1 active torsions:
REMARK  status: ('A' for Active; 'I' for Inactive)
REMARK    1  A    between atoms: C_6  and  C_7
REMARK                            x       y       z     vdW  Elec       q    Type
REMARK                         _______ _______ _______ _____ _____    ______ ____
ROOT
ATOM      1  C   UNL     1     -12.824   9.919  71.435  0.00  0.00    +0.090 C 
ATOM      2  N   UNL     1     -12.823   9.582  71.624  0.00  0.00    -0.269 NA
ATOM      3  C   UNL     1     -12.030   8.392  70.972  0.00  0.00    +0.082 C 
ATOM      4  C   UNL     1     -12.938   7.192  71.635  0.00  0.00    +0.022 C 
ATOM      5  C   UNL     1     -14.305   7.855  71.558  0.00  0.00    +0.019 C 
ATOM      6  C   UNL     1     -13.837   9.033  72.397  0.00  0.00    +0.072 C 
ENDROOT
BRANCH   3   7
ATOM      7  C   UNL     1     -10.934   8.360  72.158  0.00  0.00    +0.011 A 
ATOM      8  C   UNL     1      -9.660   8.689  71.851  0.00  0.00    +0.096 A 
ATOM      9  N   UNL     1      -8.727   8.603  72.833  0.00  0.00    -0.243 NA
ATOM     10  C   UNL     1      -8.921   7.716  73.811  0.00  0.00    +0.099 A 
ATOM     11  C   UNL     1     -10.033   6.885  73.777  0.00  0.00    +0.020 A 
ATOM     12  C   UNL     1     -11.075   7.196  72.910  0.00  0.00    +0.000 A 
ENDBRANCH   3   7
TORSDOF 1
ENDMDL
MODEL 7
REMARK VINA RESULT:      -4.3      4.822      7.281
REMARK  Name = 
REMARK  1 active torsions:
REMARK  status: ('A' for Active; 'I' for Inactive)
REMARK    1  A    between atoms: C_6  and  C_7
REMARK                            x       y       z     vdW  Elec       q    Type
REMARK                         _______ _______ _______ _____ _____    ______ ____
ROOT
ATOM      1  C   UNL     1     -11.316  11.708  65.994  0.00  0.00    +0.090 C 
ATOM      2  N   UNL     1     -11.252  11.969  65.716  0.00  0.00    -0.269 NA
ATOM      3  C   UNL     1     -12.323  13.101  65.527  0.00  0.00    +0.082 C 
ATOM      4  C   UNL     1     -12.032  13.354  63.928  0.00  0.00    +0.022 C 
ATOM      5  C   UNL     1     -11.775  11.917  63.501  0.00  0.00    +0.019 C 
ATOM      6  C   UNL     1     -10.629  11.774  64.489  0.00  0.00    +0.072 C 
ENDROOT
BRANCH   3   7
ATOM      7  C   UNL     1     -11.307  14.263  66.002  0.00  0.00    +0.011 A 
ATOM      8  C   UNL     1     -11.452  14.759  67.250  0.00  0.00    +0.096 A 
ATOM      9  N   UNL     1     -10.638  15.777  67.628  0.00  0.00    -0.243 NA
ATOM     10  C   UNL     1     -10.173  16.597  66.684  0.00  0.00    +0.099 A 
ATOM     11  C   UNL     1     -10.564  16.418  65.364  0.00  0.00    +0.020 A 
ATOM     12  C   UNL     1     -11.171  15.221  65.001  0.00  0.00    +0.000 A 
ENDBRANCH   3   7
TORSDOF 1
ENDMDL
MODEL 8
REMARK VINA RESULT:      -4.3      4.179      6.470
REMARK  Name = 
REMARK  1 active torsions:
REMARK  status: ('A' for Active; 'I' for Inactive)
REMARK    1  A    between atoms: C_6  and  C_7
REMARK                            x       y       z     vdW  Elec       q    Type
REMARK                         _______ _______ _______ _____ _____    ______ ____
ROOT
ATOM      1  C   UNL     1     -12.351  14.069  64.343  0.00  0.00    +0.090 C 
ATOM      2  N   UNL     1     -12.261  13.728  64.501  0.00  0.00    -0.269 NA
ATOM      3  C   UNL     1     -10.857  13.597  65.194  0.00  0.00    +0.082 C 
ATOM      4  C   UNL     1     -10.692  11.979  64.952  0.00  0.00    +0.022 C 
ATOM      5  C   UNL     1     -11.317  11.877  63.569  0.00  0.00    +0.019 C 
ATOM      6  C   UNL     1     -12.630  12.462  64.064  0.00  0.00    +0.072 C 
ENDROOT
BRANCH   3   7
ATOM      7  C   UNL     1     -11.502  13.418  66.663  0.00  0.00    +0.011 A 
ATOM      8  C   UNL     1     -11.496  14.484  67.492  0.00  0.00    +0.096 A 
ATOM      9  N   UNL     1     -11.982  14.317  68.748  0.00  0.00    -0.243 NA
ATOM     10  C   UNL     1     -11.905  13.104  69.297  0.00  0.00    +0.099 A 
ATOM     11  C   UNL     1     -11.298  12.069  68.598  0.00  0.00    +0.020 A 
ATOM     12  C   UNL     1     -11.065  12.226  67.237  0.00  0.00    +0.000 A 
ENDBRANCH   3   7
TORSDOF 1
ENDMDL
MODEL 9
REMARK VINA RESULT:      -4.2      5.316      7.089
REMARK  Name = 
REMARK  1 active torsions:
REMARK  status: ('A' for Active; 'I' for Inactive)
REMARK    1  A    between atoms: C_6  and  C_7
REMARK                            x       y       z     vdW  Elec       q    Type
REMARK                         _______ _______ _______ _____ _____    ______ ____
ROOT
ATOM      1  C   UNL     1     -12.644  13.924  65.567  0.00  0.00    +0.090 C 
ATOM      2  N   UNL     1     -12.303  13.874  65.742  0.00  0.00    -0.269 NA
ATOM      3  C   UNL     1     -11.010  14.005  64.859  0.00  0.00    +0.082 C 
ATOM      4  C   UNL     1     -10.074  13.005  65.770  0.00  0.00    +0.022 C 
ATOM      5  C   UNL     1     -11.122  11.969  66.144  0.00  0.00    +0.019 C 
ATOM      6  C   UNL     1     -12.003  13.022  66.797  0.00  0.00    +0.072 C 
ENDROOT
BRANCH   3   7
ATOM      7  C   UNL     1     -10.516  15.337  65.627  0.00  0.00    +0.011 A 
ATOM      8  C   UNL     1     -10.794  16.532  65.062  0.00  0.00    +0.096 A 
ATOM      9  N   UNL     1     -10.326  17.649  65.675  0.00  0.00    -0.243 NA
ATOM     10  C   UNL     1      -9.212  17.550  66.402  0.00  0.00    +0.099 A 
ATOM     11  C   UNL     1      -8.543  16.335  66.475  0.00  0.00    +0.020 A 
ATOM     12  C   UNL     1      -9.201  15.183  66.058  0.00  0.00    +0.000 A 
ENDBRANCH   3   7
TORSDOF 1
ENDMDL
