MODEL 1
REMARK VINA RESULT:      -7.8      0.000      0.000
REMARK  Name = 
REMARK  3 active torsions:
REMARK  status: ('A' for Active; 'I' for Inactive)
REMARK    1  A    between atoms: C_6  and  N_7
REMARK    2  A    between atoms: C_9  and  C_10
REMARK    3  A    between atoms: C_10  and  C_11
REMARK                            x       y       z     vdW  Elec       q    Type
REMARK                         _______ _______ _______ _____ _____    ______ ____
ROOT
ATOM      1  N   UNL     1     -11.353  13.333  68.568  0.00  0.00    -0.219 N 
ATOM      2  C   UNL     1     -11.805  12.737  69.702  0.00  0.00    +0.276 A 
ATOM      3  O   UNL     1     -11.923  11.476  69.774  0.00  0.00    -0.266 OA
ATOM      4  C   UNL     1     -12.192  13.445  70.835  0.00  0.00    +0.059 A 
ATOM      5  C   UNL     1     -12.115  14.827  70.712  0.00  0.00    +0.020 A 
ATOM      6  C   UNL     1     -13.024  15.648  71.364  0.00  0.00    +0.001 A 
ATOM      7  C   UNL     1     -14.140  15.125  72.008  0.00  0.00    +0.000 A 
ATOM      8  C   UNL     1     -14.246  13.764  72.106  0.00  0.00    +0.000 A 
ATOM      9  C   UNL     1     -11.272  15.288  69.708  0.00  0.00    +0.083 A 
ATOM     10  C   UNL     1     -13.179  12.975  71.697  0.00  0.00    +0.005 A 
ATOM     11  N   UNL     1     -11.286  14.629  68.520  0.00  0.00    -0.171 NA
ENDROOT
BRANCH   1  16
ATOM     12  C   UNL     1     -12.201  13.235  63.603  0.00  0.00    +0.090 C 
ATOM     13  N   UNL     1     -12.376  12.839  64.350  0.00  0.00    -0.271 NA
ATOM     14  C   UNL     1     -12.829  13.726  65.420  0.00  0.00    +0.074 C 
ATOM     15  C   UNL     1     -11.604  13.926  66.305  0.00  0.00    +0.042 C 
ATOM     16  C   UNL     1     -11.787  12.575  67.246  0.00  0.00    +0.110 C 
ATOM     17  C   UNL     1     -10.262  12.045  66.877  0.00  0.00    +0.026 C 
ATOM     18  C   UNL     1     -10.244  12.084  65.349  0.00  0.00    +0.019 C 
ATOM     19  C   UNL     1     -11.618  11.722  64.824  0.00  0.00    +0.072 C 
ENDBRANCH   1  16
BRANCH   9  20
ATOM     20  C   UNL     1     -10.838  16.692  69.813  0.00  0.00    +0.074 C 
BRANCH  20  21
ATOM     21  C   UNL     1      -9.831  17.004  68.754  0.00  0.00    -0.016 A 
ATOM     22  C   UNL     1      -8.515  16.627  68.991  0.00  0.00    -0.003 A 
ATOM     23  C   UNL     1      -7.516  17.081  68.137  0.00  0.00    +0.011 A 
ATOM     24  C   UNL     1      -7.843  17.755  66.968  0.00  0.00    +0.058 A 
ATOM     25 CL   UNL     1      -6.741  17.854  65.627  0.00  0.00    -0.082 Cl
ATOM     26  C   UNL     1      -9.055  18.435  66.956  0.00  0.00    +0.011 A 
ATOM     27  C   UNL     1     -10.002  18.070  67.879  0.00  0.00    -0.003 A 
ENDBRANCH  20  21
ENDBRANCH   9  20
TORSDOF 3
ENDMDL
MODEL 2
REMARK VINA RESULT:      -7.5      3.059      6.156
REMARK  Name = 
REMARK  3 active torsions:
REMARK  status: ('A' for Active; 'I' for Inactive)
REMARK    1  A    between atoms: C_6  and  N_7
REMARK    2  A    between atoms: C_9  and  C_10
REMARK    3  A    between atoms: C_10  and  C_11
REMARK                            x       y       z     vdW  Elec       q    Type
REMARK                         _______ _______ _______ _____ _____    ______ ____
ROOT
ATOM      1  N   UNL     1      -9.229  15.421  68.095  0.00  0.00    -0.219 N 
ATOM      2  C   UNL     1      -8.413  14.363  67.845  0.00  0.00    +0.276 A 
ATOM      3  O   UNL     1      -7.183  14.535  67.588  0.00  0.00    -0.266 OA
ATOM      4  C   UNL     1      -8.856  13.045  67.820  0.00  0.00    +0.059 A 
ATOM      5  C   UNL     1     -10.219  12.886  68.042  0.00  0.00    +0.020 A 
ATOM      6  C   UNL     1     -10.923  11.864  67.418  0.00  0.00    +0.001 A 
ATOM      7  C   UNL     1     -10.341  11.087  66.423  0.00  0.00    +0.000 A 
ATOM      8  C   UNL     1      -9.007  11.259  66.170  0.00  0.00    +0.000 A 
ATOM      9  C   UNL     1     -10.845  13.946  68.683  0.00  0.00    +0.083 A 
ATOM     10  C   UNL     1      -8.265  12.082  67.007  0.00  0.00    +0.005 A 
ATOM     11  N   UNL     1     -10.491  15.205  68.313  0.00  0.00    -0.171 NA
ENDROOT
BRANCH   1  16
ATOM     12  C   UNL     1     -10.406  19.864  66.033  0.00  0.00    +0.090 C 
ATOM     13  N   UNL     1      -9.840  19.211  66.013  0.00  0.00    -0.271 NA
ATOM     14  C   UNL     1     -10.443  17.882  65.926  0.00  0.00    +0.074 C 
ATOM     15  C   UNL     1     -10.379  17.331  67.346  0.00  0.00    +0.042 C 
ATOM     16  C   UNL     1      -8.840  16.720  67.277  0.00  0.00    +0.110 C 
ATOM     17  C   UNL     1      -8.377  17.593  68.606  0.00  0.00    +0.026 C 
ATOM     18  C   UNL     1      -8.798  19.018  68.247  0.00  0.00    +0.019 C 
ATOM     19  C   UNL     1      -8.619  19.230  66.758  0.00  0.00    +0.072 C 
ENDBRANCH   1  16
BRANCH   9  20
ATOM     20  C   UNL     1     -12.150  13.657  69.304  0.00  0.00    +0.074 C 
BRANCH  20  21
ATOM     21  C   UNL     1     -12.204  14.224  70.685  0.00  0.00    -0.016 A 
ATOM     22  C   UNL     1     -13.034  13.593  71.603  0.00  0.00    -0.003 A 
ATOM     23  C   UNL     1     -13.279  14.205  72.828  0.00  0.00    +0.011 A 
ATOM     24  C   UNL     1     -12.569  15.340  73.201  0.00  0.00    +0.058 A 
ATOM     25 CL   UNL     1     -12.410  15.815  74.865  0.00  0.00    -0.082 Cl
ATOM     26  C   UNL     1     -12.077  16.135  72.174  0.00  0.00    +0.011 A 
ATOM     27  C   UNL     1     -11.948  15.567  70.931  0.00  0.00    -0.003 A 
ENDBRANCH  20  21
ENDBRANCH   9  20
TORSDOF 3
ENDMDL
MODEL 3
REMARK VINA RESULT:      -7.3      3.230      5.068
REMARK  Name = 
REMARK  3 active torsions:
REMARK  status: ('A' for Active; 'I' for Inactive)
REMARK    1  A    between atoms: C_6  and  N_7
REMARK    2  A    between atoms: C_9  and  C_10
REMARK    3  A    between atoms: C_10  and  C_11
REMARK                            x       y       z     vdW  Elec       q    Type
REMARK                         _______ _______ _______ _____ _____    ______ ____
ROOT
ATOM      1  N   UNL     1     -10.609  12.751  67.918  0.00  0.00    -0.219 N 
ATOM      2  C   UNL     1      -9.618  11.860  68.180  0.00  0.00    +0.276 A 
ATOM      3  O   UNL     1      -8.533  11.878  67.523  0.00  0.00    -0.266 OA
ATOM      4  C   UNL     1      -9.723  10.862  69.144  0.00  0.00    +0.059 A 
ATOM      5  C   UNL     1     -10.944  10.821  69.807  0.00  0.00    +0.020 A 
ATOM      6  C   UNL     1     -11.477   9.612  70.234  0.00  0.00    +0.001 A 
ATOM      7  C   UNL     1     -10.910   8.398  69.862  0.00  0.00    +0.000 A 
ATOM      8  C   UNL     1      -9.725   8.426  69.177  0.00  0.00    +0.000 A 
ATOM      9  C   UNL     1     -11.685  11.994  69.762  0.00  0.00    +0.083 A 
ATOM     10  C   UNL     1      -9.070   9.640  69.016  0.00  0.00    +0.005 A 
ATOM     11  N   UNL     1     -11.720  12.673  68.585  0.00  0.00    -0.171 NA
ENDROOT
BRANCH   1  16
ATOM     12  C   UNL     1     -12.267  11.953  63.228  0.00  0.00    +0.090 C 
ATOM     13  N   UNL     1     -11.665  12.357  63.697  0.00  0.00    -0.271 NA
ATOM     14  C   UNL     1     -10.976  11.507  64.668  0.00  0.00    +0.074 C 
ATOM     15  C   UNL     1     -11.629  11.836  66.006  0.00  0.00    +0.042 C 
ATOM     16  C   UNL     1     -10.702  13.154  66.388  0.00  0.00    +0.110 C 
ATOM     17  C   UNL     1     -12.040  14.111  66.573  0.00  0.00    +0.026 C 
ATOM     18  C   UNL     1     -12.803  13.893  65.266  0.00  0.00    +0.019 C 
ATOM     19  C   UNL     1     -11.811  13.711  64.135  0.00  0.00    +0.072 C 
ENDBRANCH   1  16
BRANCH   9  20
ATOM     20  C   UNL     1     -12.747  12.137  70.772  0.00  0.00    +0.074 C 
BRANCH  20  21
ATOM     21  C   UNL     1     -12.558  13.398  71.551  0.00  0.00    -0.016 A 
ATOM     22  C   UNL     1     -13.545  13.740  72.465  0.00  0.00    -0.003 A 
ATOM     23  C   UNL     1     -13.518  15.000  73.053  0.00  0.00    +0.011 A 
ATOM     24  C   UNL     1     -12.427  15.839  72.865  0.00  0.00    +0.058 A 
ATOM     25 CL   UNL     1     -12.068  17.136  73.966  0.00  0.00    -0.082 Cl
ATOM     26  C   UNL     1     -11.693  15.659  71.700  0.00  0.00    +0.011 A 
ATOM     27  C   UNL     1     -11.811  14.457  71.049  0.00  0.00    -0.003 A 
ENDBRANCH  20  21
ENDBRANCH   9  20
TORSDOF 3
ENDMDL
MODEL 4
REMARK VINA RESULT:      -7.2      2.924      5.648
REMARK  Name = 
REMARK  3 active torsions:
REMARK  status: ('A' for Active; 'I' for Inactive)
REMARK    1  A    between atoms: C_6  and  N_7
REMARK    2  A    between atoms: C_9  and  C_10
REMARK    3  A    between atoms: C_10  and  C_11
REMARK                            x       y       z     vdW  Elec       q    Type
REMARK                         _______ _______ _______ _____ _____    ______ ____
ROOT
ATOM      1  N   UNL     1     -10.779  15.321  66.172  0.00  0.00    -0.219 N 
ATOM      2  C   UNL     1     -10.511  16.603  65.810  0.00  0.00    +0.276 A 
ATOM      3  O   UNL     1     -10.876  17.052  64.681  0.00  0.00    -0.266 OA
ATOM      4  C   UNL     1      -9.808  17.494  66.614  0.00  0.00    +0.059 A 
ATOM      5  C   UNL     1      -9.364  16.963  67.819  0.00  0.00    +0.020 A 
ATOM      6  C   UNL     1      -8.169  17.390  68.383  0.00  0.00    +0.001 A 
ATOM      7  C   UNL     1      -7.294  18.216  67.687  0.00  0.00    +0.000 A 
ATOM      8  C   UNL     1      -7.706  18.718  66.481  0.00  0.00    +0.000 A 
ATOM      9  C   UNL     1     -10.035  15.826  68.252  0.00  0.00    +0.083 A 
ATOM     10  C   UNL     1      -9.018  18.507  66.079  0.00  0.00    +0.005 A 
ATOM     11  N   UNL     1     -10.352  14.889  67.320  0.00  0.00    -0.171 NA
ENDROOT
BRANCH   1  16
ATOM     12  C   UNL     1     -10.432  10.652  64.313  0.00  0.00    +0.090 C 
ATOM     13  N   UNL     1     -10.350  11.490  64.119  0.00  0.00    -0.271 NA
ATOM     14  C   UNL     1      -9.523  12.254  65.052  0.00  0.00    +0.074 C 
ATOM     15  C   UNL     1     -10.518  12.995  65.938  0.00  0.00    +0.042 C 
ATOM     16  C   UNL     1     -10.755  14.308  64.955  0.00  0.00    +0.110 C 
ATOM     17  C   UNL     1     -12.393  14.066  64.938  0.00  0.00    +0.026 C 
ATOM     18  C   UNL     1     -12.522  12.599  64.529  0.00  0.00    +0.019 C 
ATOM     19  C   UNL     1     -11.417  12.255  63.552  0.00  0.00    +0.072 C 
ENDBRANCH   1  16
BRANCH   9  20
ATOM     20  C   UNL     1      -9.896  15.488  69.678  0.00  0.00    +0.074 C 
BRANCH  20  21
ATOM     21  C   UNL     1     -11.229  15.152  70.264  0.00  0.00    -0.016 A 
ATOM     22  C   UNL     1     -11.771  16.051  71.174  0.00  0.00    -0.003 A 
ATOM     23  C   UNL     1     -12.899  15.682  71.900  0.00  0.00    +0.011 A 
ATOM     24  C   UNL     1     -13.577  14.508  71.597  0.00  0.00    +0.058 A 
ATOM     25 CL   UNL     1     -15.238  14.265  72.050  0.00  0.00    -0.082 Cl
ATOM     26  C   UNL     1     -12.836  13.493  71.004  0.00  0.00    +0.011 A 
ATOM     27  C   UNL     1     -11.658  13.837  70.390  0.00  0.00    -0.003 A 
ENDBRANCH  20  21
ENDBRANCH   9  20
TORSDOF 3
ENDMDL
MODEL 5
REMARK VINA RESULT:      -7.2      2.464      6.394
REMARK  Name = 
REMARK  3 active torsions:
REMARK  status: ('A' for Active; 'I' for Inactive)
REMARK    1  A    between atoms: C_6  and  N_7
REMARK    2  A    between atoms: C_9  and  C_10
REMARK    3  A    between atoms: C_10  and  C_11
REMARK                            x       y       z     vdW  Elec       q    Type
REMARK                         _______ _______ _______ _____ _____    ______ ____
ROOT
ATOM      1  N   UNL     1     -10.724  14.372  69.144  0.00  0.00    -0.219 N 
ATOM      2  C   UNL     1      -9.639  15.161  68.929  0.00  0.00    +0.276 A 
ATOM      3  O   UNL     1      -8.733  15.278  69.808  0.00  0.00    -0.266 OA
ATOM      4  C   UNL     1      -9.456  15.909  67.771  0.00  0.00    +0.059 A 
ATOM      5  C   UNL     1     -10.492  15.816  66.848  0.00  0.00    +0.020 A 
ATOM      6  C   UNL     1     -10.829  16.901  66.051  0.00  0.00    +0.001 A 
ATOM      7  C   UNL     1     -10.277  18.158  66.267  0.00  0.00    +0.000 A 
ATOM      8  C   UNL     1      -9.279  18.271  67.198  0.00  0.00    +0.000 A 
ATOM      9  C   UNL     1     -11.305  14.698  66.979  0.00  0.00    +0.083 A 
ATOM     10  C   UNL     1      -8.764  17.117  67.773  0.00  0.00    +0.005 A 
ATOM     11  N   UNL     1     -11.650  14.312  68.236  0.00  0.00    -0.171 NA
ENDROOT
BRANCH   1  16
ATOM     12  C   UNL     1     -13.674  15.960  72.907  0.00  0.00    +0.090 C 
ATOM     13  N   UNL     1     -12.926  15.570  72.722  0.00  0.00    -0.271 NA
ATOM     14  C   UNL     1     -12.098  16.271  71.742  0.00  0.00    +0.074 C 
ATOM     15  C   UNL     1     -12.321  15.521  70.433  0.00  0.00    +0.042 C 
ATOM     16  C   UNL     1     -11.184  14.337  70.660  0.00  0.00    +0.110 C 
ATOM     17  C   UNL     1     -12.307  13.140  70.442  0.00  0.00    +0.026 C 
ATOM     18  C   UNL     1     -13.416  13.524  71.421  0.00  0.00    +0.019 C 
ATOM     19  C   UNL     1     -12.796  14.147  72.656  0.00  0.00    +0.072 C 
ENDBRANCH   1  16
BRANCH   9  20
ATOM     20  C   UNL     1     -12.122  14.342  65.806  0.00  0.00    +0.074 C 
BRANCH  20  21
ATOM     21  C   UNL     1     -11.456  13.261  65.018  0.00  0.00    -0.016 A 
ATOM     22  C   UNL     1     -12.116  12.793  63.889  0.00  0.00    -0.003 A 
ATOM     23  C   UNL     1     -11.642  11.652  63.251  0.00  0.00    +0.011 A 
ATOM     24  C   UNL     1     -10.430  11.089  63.628  0.00  0.00    +0.058 A 
ATOM     25 CL   UNL     1      -9.530  10.051  62.562  0.00  0.00    -0.082 Cl
ATOM     26  C   UNL     1     -10.016  11.311  64.936  0.00  0.00    +0.011 A 
ATOM     27  C   UNL     1     -10.574  12.367  65.611  0.00  0.00    -0.003 A 
ENDBRANCH  20  21
ENDBRANCH   9  20
TORSDOF 3
ENDMDL
MODEL 6
REMARK VINA RESULT:      -7.1      3.974      6.393
REMARK  Name = 
REMARK  3 active torsions:
REMARK  status: ('A' for Active; 'I' for Inactive)
REMARK    1  A    between atoms: C_6  and  N_7
REMARK    2  A    between atoms: C_9  and  C_10
REMARK    3  A    between atoms: C_10  and  C_11
REMARK                            x       y       z     vdW  Elec       q    Type
REMARK                         _______ _______ _______ _____ _____    ______ ____
ROOT
ATOM      1  N   UNL     1     -11.598  12.559  68.674  0.00  0.00    -0.219 N 
ATOM      2  C   UNL     1     -11.987  13.855  68.802  0.00  0.00    +0.276 A 
ATOM      3  O   UNL     1     -11.862  14.671  67.839  0.00  0.00    -0.266 OA
ATOM      4  C   UNL     1     -12.510  14.384  69.977  0.00  0.00    +0.059 A 
ATOM      5  C   UNL     1     -12.579  13.488  71.037  0.00  0.00    +0.020 A 
ATOM      6  C   UNL     1     -12.402  13.923  72.344  0.00  0.00    +0.001 A 
ATOM      7  C   UNL     1     -11.975  15.216  72.625  0.00  0.00    +0.000 A 
ATOM      8  C   UNL     1     -11.870  16.099  71.584  0.00  0.00    +0.000 A 
ATOM      9  C   UNL     1     -12.558  12.145  70.684  0.00  0.00    +0.083 A 
ATOM     10  C   UNL     1     -12.329  15.718  70.330  0.00  0.00    +0.005 A 
ATOM     11  N   UNL     1     -11.705  11.766  69.697  0.00  0.00    -0.171 NA
ENDROOT
BRANCH   1  16
ATOM     12  C   UNL     1      -7.466  10.045  67.265  0.00  0.00    +0.090 C 
ATOM     13  N   UNL     1      -7.868  10.809  67.224  0.00  0.00    -0.271 NA
ATOM     14  C   UNL     1      -8.328  11.325  68.513  0.00  0.00    +0.074 C 
ATOM     15  C   UNL     1      -9.822  11.022  68.543  0.00  0.00    +0.042 C 
ATOM     16  C   UNL     1     -10.339  12.371  67.732  0.00  0.00    +0.110 C 
ATOM     17  C   UNL     1     -11.136  11.455  66.606  0.00  0.00    +0.026 C 
ATOM     18  C   UNL     1     -10.062  10.476  66.134  0.00  0.00    +0.019 C 
ATOM     19  C   UNL     1      -8.718  11.173  66.133  0.00  0.00    +0.072 C 
ENDBRANCH   1  16
BRANCH   9  20
ATOM     20  C   UNL     1     -13.044  11.194  71.699  0.00  0.00    +0.074 C 
BRANCH  20  21
ATOM     21  C   UNL     1     -12.539   9.819  71.406  0.00  0.00    -0.016 A 
ATOM     22  C   UNL     1     -13.447   8.772  71.492  0.00  0.00    -0.003 A 
ATOM     23  C   UNL     1     -12.980   7.463  71.437  0.00  0.00    +0.011 A 
ATOM     24  C   UNL     1     -11.651   7.204  71.127  0.00  0.00    +0.058 A 
ATOM     25 CL   UNL     1     -11.138   5.662  70.509  0.00  0.00    -0.082 Cl
ATOM     26  C   UNL     1     -10.732   8.201  71.429  0.00  0.00    +0.011 A 
ATOM     27  C   UNL     1     -11.207   9.477  71.604  0.00  0.00    -0.003 A 
ENDBRANCH  20  21
ENDBRANCH   9  20
TORSDOF 3
ENDMDL
MODEL 7
REMARK VINA RESULT:      -7.1      3.115      5.338
REMARK  Name = 
REMARK  3 active torsions:
REMARK  status: ('A' for Active; 'I' for Inactive)
REMARK    1  A    between atoms: C_6  and  N_7
REMARK    2  A    between atoms: C_9  and  C_10
REMARK    3  A    between atoms: C_10  and  C_11
REMARK                            x       y       z     vdW  Elec       q    Type
REMARK                         _______ _______ _______ _____ _____    ______ ____
ROOT
ATOM      1  N   UNL     1     -11.233  11.777  66.170  0.00  0.00    -0.219 N 
ATOM      2  C   UNL     1     -12.053  12.598  65.462  0.00  0.00    +0.276 A 
ATOM      3  O   UNL     1     -12.833  12.134  64.576  0.00  0.00    -0.266 OA
ATOM      4  C   UNL     1     -12.079  13.978  65.627  0.00  0.00    +0.059 A 
ATOM      5  C   UNL     1     -11.172  14.471  66.558  0.00  0.00    +0.020 A 
ATOM      6  C   UNL     1     -10.582  15.715  66.381  0.00  0.00    +0.001 A 
ATOM      7  C   UNL     1     -10.733  16.427  65.196  0.00  0.00    +0.000 A 
ATOM      8  C   UNL     1     -11.597  15.934  64.256  0.00  0.00    +0.000 A 
ATOM      9  C   UNL     1     -10.712  13.546  67.486  0.00  0.00    +0.083 A 
ATOM     10  C   UNL     1     -12.390  14.841  64.580  0.00  0.00    +0.005 A 
ATOM     11  N   UNL     1     -10.420  12.296  67.039  0.00  0.00    -0.171 NA
ENDROOT
BRANCH   1  16
ATOM     12  C   UNL     1      -8.168   9.730  62.735  0.00  0.00    +0.090 C 
ATOM     13  N   UNL     1      -8.915   9.627  63.155  0.00  0.00    -0.271 NA
ATOM     14  C   UNL     1      -9.794  10.796  63.135  0.00  0.00    +0.074 C 
ATOM     15  C   UNL     1      -9.608  11.447  64.502  0.00  0.00    +0.042 C 
ATOM     16  C   UNL     1     -10.713  10.536  65.334  0.00  0.00    +0.110 C 
ATOM     17  C   UNL     1      -9.578  10.077  66.448  0.00  0.00    +0.026 C 
ATOM     18  C   UNL     1      -8.439   9.542  65.580  0.00  0.00    +0.019 C 
ATOM     19  C   UNL     1      -9.021   8.861  64.359  0.00  0.00    +0.072 C 
ENDBRANCH   1  16
BRANCH   9  20
ATOM     20  C   UNL     1     -10.105  14.095  68.710  0.00  0.00    +0.074 C 
BRANCH  20  21
ATOM     21  C   UNL     1     -11.167  14.497  69.681  0.00  0.00    -0.016 A 
ATOM     22  C   UNL     1     -10.944  15.643  70.435  0.00  0.00    -0.003 A 
ATOM     23  C   UNL     1     -11.799  15.935  71.492  0.00  0.00    +0.011 A 
ATOM     24  C   UNL     1     -12.957  15.193  71.685  0.00  0.00    +0.058 A 
ATOM     25 CL   UNL     1     -14.305  15.816  72.590  0.00  0.00    -0.082 Cl
ATOM     26  C   UNL     1     -12.952  13.889  71.206  0.00  0.00    +0.011 A 
ATOM     27  C   UNL     1     -12.027  13.564  70.247  0.00  0.00    -0.003 A 
ENDBRANCH  20  21
ENDBRANCH   9  20
TORSDOF 3
ENDMDL
MODEL 8
REMARK VINA RESULT:      -7.0      4.506      6.365
REMARK  Name = 
REMARK  3 active torsions:
REMARK  status: ('A' for Active; 'I' for Inactive)
REMARK    1  A    between atoms: C_6  and  N_7
REMARK    2  A    between atoms: C_9  and  C_10
REMARK    3  A    between atoms: C_10  and  C_11
REMARK                            x       y       z     vdW  Elec       q    Type
REMARK                         _______ _______ _______ _____ _____    ______ ____
ROOT
ATOM      1  N   UNL     1      -9.205   9.705  69.231  0.00  0.00    -0.219 N 
ATOM      2  C   UNL     1      -8.746   9.267  70.432  0.00  0.00    +0.276 A 
ATOM      3  O   UNL     1      -7.523   8.971  70.594  0.00  0.00    -0.266 OA
ATOM      4  C   UNL     1      -9.563   9.083  71.543  0.00  0.00    +0.059 A 
ATOM      5  C   UNL     1     -10.909   9.353  71.325  0.00  0.00    +0.020 A 
ATOM      6  C   UNL     1     -11.892   8.631  71.989  0.00  0.00    +0.001 A 
ATOM      7  C   UNL     1     -11.579   7.508  72.747  0.00  0.00    +0.000 A 
ATOM      8  C   UNL     1     -10.257   7.211  72.940  0.00  0.00    +0.000 A 
ATOM      9  C   UNL     1     -11.183  10.168  70.234  0.00  0.00    +0.083 A 
ATOM     10  C   UNL     1      -9.295   8.114  72.505  0.00  0.00    +0.005 A 
ATOM     11  N   UNL     1     -10.472   9.958  69.096  0.00  0.00    -0.171 NA
ENDROOT
BRANCH   1  16
ATOM     12  C   UNL     1      -8.743   6.119  65.724  0.00  0.00    +0.090 C 
ATOM     13  N   UNL     1      -8.317   6.734  66.155  0.00  0.00    -0.271 NA
ATOM     14  C   UNL     1      -8.486   6.691  67.606  0.00  0.00    +0.074 C 
ATOM     15  C   UNL     1      -9.507   7.781  67.913  0.00  0.00    +0.042 C 
ATOM     16  C   UNL     1      -8.454   9.056  67.997  0.00  0.00    +0.110 C 
ATOM     17  C   UNL     1      -9.300   9.901  66.852  0.00  0.00    +0.026 C 
ATOM     18  C   UNL     1      -9.416   8.903  65.701  0.00  0.00    +0.019 C 
ATOM     19  C   UNL     1      -8.158   8.061  65.643  0.00  0.00    +0.072 C 
ENDBRANCH   1  16
BRANCH   9  20
ATOM     20  C   UNL     1     -12.508  10.811  70.216  0.00  0.00    +0.074 C 
BRANCH  20  21
ATOM     21  C   UNL     1     -12.437  12.165  70.844  0.00  0.00    -0.016 A 
ATOM     22  C   UNL     1     -13.264  12.409  71.933  0.00  0.00    -0.003 A 
ATOM     23  C   UNL     1     -13.387  13.708  72.413  0.00  0.00    +0.011 A 
ATOM     24  C   UNL     1     -12.565  14.717  71.928  0.00  0.00    +0.058 A 
ATOM     25 CL   UNL     1     -12.273  16.175  72.830  0.00  0.00    -0.082 Cl
ATOM     26  C   UNL     1     -12.066  14.553  70.642  0.00  0.00    +0.011 A 
ATOM     27  C   UNL     1     -12.055  13.286  70.117  0.00  0.00    -0.003 A 
ENDBRANCH  20  21
ENDBRANCH   9  20
TORSDOF 3
ENDMDL
MODEL 9
REMARK VINA RESULT:      -7.0      3.083      4.737
REMARK  Name = 
REMARK  3 active torsions:
REMARK  status: ('A' for Active; 'I' for Inactive)
REMARK    1  A    between atoms: C_6  and  N_7
REMARK    2  A    between atoms: C_9  and  C_10
REMARK    3  A    between atoms: C_10  and  C_11
REMARK                            x       y       z     vdW  Elec       q    Type
REMARK                         _______ _______ _______ _____ _____    ______ ____
ROOT
ATOM      1  N   UNL     1      -9.941  15.270  67.636  0.00  0.00    -0.219 N 
ATOM      2  C   UNL     1     -10.591  16.410  67.990  0.00  0.00    +0.276 A 
ATOM      3  O   UNL     1     -11.779  16.372  68.432  0.00  0.00    -0.266 OA
ATOM      4  C   UNL     1     -10.031  17.677  67.871  0.00  0.00    +0.059 A 
ATOM      5  C   UNL     1      -8.753  17.699  67.326  0.00  0.00    +0.020 A 
ATOM      6  C   UNL     1      -8.339  18.762  66.534  0.00  0.00    +0.001 A 
ATOM      7  C   UNL     1      -9.231  19.741  66.112  0.00  0.00    +0.000 A 
ATOM      8  C   UNL     1     -10.505  19.710  66.614  0.00  0.00    +0.000 A 
ATOM      9  C   UNL     1      -8.054  16.501  67.399  0.00  0.00    +0.083 A 
ATOM     10  C   UNL     1     -10.806  18.807  67.625  0.00  0.00    +0.005 A 
ATOM     11  N   UNL     1      -8.740  15.355  67.150  0.00  0.00    -0.171 NA
ENDROOT
BRANCH   1  16
ATOM     12  C   UNL     1     -12.062  12.929  63.712  0.00  0.00    +0.090 C 
ATOM     13  N   UNL     1     -12.136  13.081  64.559  0.00  0.00    -0.271 NA
ATOM     14  C   UNL     1     -12.029  14.488  64.939  0.00  0.00    +0.074 C 
ATOM     15  C   UNL     1     -10.607  14.642  65.470  0.00  0.00    +0.042 C 
ATOM     16  C   UNL     1     -10.899  14.164  67.029  0.00  0.00    +0.110 C 
ATOM     17  C   UNL     1      -9.732  12.993  66.946  0.00  0.00    +0.026 C 
ATOM     18  C   UNL     1     -10.108  12.220  65.682  0.00  0.00    +0.019 C 
ATOM     19  C   UNL     1     -11.616  12.187  65.547  0.00  0.00    +0.072 C 
ENDBRANCH   1  16
BRANCH   9  20
ATOM     20  C   UNL     1      -6.593  16.584  67.232  0.00  0.00    +0.074 C 
BRANCH  20  21
ATOM     21  C   UNL     1      -5.995  17.434  68.305  0.00  0.00    -0.016 A 
ATOM     22  C   UNL     1      -5.023  18.351  67.927  0.00  0.00    -0.003 A 
ATOM     23  C   UNL     1      -4.292  19.009  68.912  0.00  0.00    +0.011 A 
ATOM     24  C   UNL     1      -4.645  18.884  70.249  0.00  0.00    +0.058 A 
ATOM     25 CL   UNL     1      -4.167  20.061  71.437  0.00  0.00    -0.082 Cl
ATOM     26  C   UNL     1      -5.313  17.722  70.615  0.00  0.00    +0.011 A 
ATOM     27  C   UNL     1      -5.934  17.003  69.625  0.00  0.00    -0.003 A 
ENDBRANCH  20  21
ENDBRANCH   9  20
TORSDOF 3
ENDMDL
