MODEL 1
REMARK VINA RESULT:      -4.9      0.000      0.000
REMARK  Name = 
REMARK  1 active torsions:
REMARK  status: ('A' for Active; 'I' for Inactive)
REMARK    1  A    between atoms: C_3  and  C_4
REMARK                            x       y       z     vdW  Elec       q    Type
REMARK                         _______ _______ _______ _____ _____    ______ ____
ROOT
ATOM      1  C   UNL     1     -11.355  12.206  67.232  0.00  0.00    +0.020 C 
ATOM      2  C   UNL     1     -11.840  12.193  65.668  0.00  0.00    +0.089 C 
ATOM      3  N   UNL     1     -10.415  12.564  65.117  0.00  0.00    -0.268 NA
ATOM      4  C   UNL     1      -9.579  11.492  65.566  0.00  0.00    +0.090 C 
ATOM      5  C   UNL     1     -10.712  12.284  63.705  0.00  0.00    +0.105 C 
ATOM      6  C   UNL     1     -12.077  12.958  63.534  0.00  0.00    +0.160 C 
ATOM      7  O   UNL     1     -11.978  14.116  64.246  0.00  0.00    -0.349 OA
ATOM      8  C   UNL     1     -12.453  13.828  65.668  0.00  0.00    +0.152 C 
ENDROOT
BRANCH   8   9
ATOM      9  C   UNL     1     -11.142  14.486  66.377  0.00  0.00    +0.006 A 
ATOM     10  C   UNL     1     -11.620  15.028  67.575  0.00  0.00    -0.002 A 
ATOM     11  C   UNL     1     -10.990  16.055  68.225  0.00  0.00    -0.000 A 
ATOM     12  C   UNL     1     -10.347  16.967  67.436  0.00  0.00    -0.000 A 
ATOM     13  C   UNL     1     -10.239  16.742  66.070  0.00  0.00    -0.000 A 
ATOM     14  C   UNL     1     -10.489  15.459  65.642  0.00  0.00    -0.002 A 
ENDBRANCH   8   9
TORSDOF 1
ENDMDL
MODEL 2
REMARK VINA RESULT:      -4.8      3.478      5.061
REMARK  Name = 
REMARK  1 active torsions:
REMARK  status: ('A' for Active; 'I' for Inactive)
REMARK    1  A    between atoms: C_3  and  C_4
REMARK                            x       y       z     vdW  Elec       q    Type
REMARK                         _______ _______ _______ _____ _____    ______ ____
ROOT
ATOM      1  C   UNL     1     -10.032  13.662  68.455  0.00  0.00    +0.020 C 
ATOM      2  C   UNL     1     -10.036  15.193  67.876  0.00  0.00    +0.089 C 
ATOM      3  N   UNL     1      -9.265  15.773  69.117  0.00  0.00    -0.268 NA
ATOM      4  C   UNL     1      -8.022  15.063  69.116  0.00  0.00    +0.090 C 
ATOM      5  C   UNL     1      -8.980  17.089  68.526  0.00  0.00    +0.105 C 
ATOM      6  C   UNL     1     -10.335  17.452  67.908  0.00  0.00    +0.160 C 
ATOM      7  O   UNL     1     -11.252  17.028  68.821  0.00  0.00    -0.349 OA
ATOM      8  C   UNL     1     -11.631  15.592  68.465  0.00  0.00    +0.152 C 
ENDROOT
BRANCH   8   9
ATOM      9  C   UNL     1     -11.388  15.018  69.971  0.00  0.00    +0.006 A 
ATOM     10  C   UNL     1     -12.344  14.008  70.124  0.00  0.00    -0.002 A 
ATOM     11  C   UNL     1     -12.806  13.607  71.349  0.00  0.00    -0.000 A 
ATOM     12  C   UNL     1     -12.876  14.571  72.315  0.00  0.00    -0.000 A 
ATOM     13  C   UNL     1     -12.358  15.835  72.066  0.00  0.00    -0.000 A 
ATOM     14  C   UNL     1     -11.507  15.945  70.991  0.00  0.00    -0.002 A 
ENDBRANCH   8   9
TORSDOF 1
ENDMDL
MODEL 3
REMARK VINA RESULT:      -4.7      3.004      5.551
REMARK  Name = 
REMARK  1 active torsions:
REMARK  status: ('A' for Active; 'I' for Inactive)
REMARK    1  A    between atoms: C_3  and  C_4
REMARK                            x       y       z     vdW  Elec       q    Type
REMARK                         _______ _______ _______ _____ _____    ______ ____
ROOT
ATOM      1  C   UNL     1      -7.951  17.109  66.177  0.00  0.00    +0.020 C 
ATOM      2  C   UNL     1      -8.669  18.494  66.673  0.00  0.00    +0.089 C 
ATOM      3  N   UNL     1      -8.641  18.085  68.191  0.00  0.00    -0.268 NA
ATOM      4  C   UNL     1      -7.248  17.915  68.479  0.00  0.00    +0.090 C 
ATOM      5  C   UNL     1      -9.004  19.409  68.719  0.00  0.00    +0.105 C 
ATOM      6  C   UNL     1     -10.158  19.806  67.793  0.00  0.00    +0.160 C 
ATOM      7  O   UNL     1     -10.866  18.656  67.614  0.00  0.00    -0.349 OA
ATOM      8  C   UNL     1     -10.303  17.952  66.381  0.00  0.00    +0.152 C 
ENDROOT
BRANCH   8   9
ATOM      9  C   UNL     1     -10.124  16.514  67.126  0.00  0.00    +0.006 A 
ATOM     10  C   UNL     1     -10.453  15.565  66.150  0.00  0.00    -0.002 A 
ATOM     11  C   UNL     1     -10.895  14.308  66.461  0.00  0.00    -0.000 A 
ATOM     12  C   UNL     1     -11.638  14.192  67.602  0.00  0.00    -0.000 A 
ATOM     13  C   UNL     1     -11.784  15.286  68.444  0.00  0.00    -0.000 A 
ATOM     14  C   UNL     1     -10.901  16.323  68.255  0.00  0.00    -0.002 A 
ENDBRANCH   8   9
TORSDOF 1
ENDMDL
MODEL 4
REMARK VINA RESULT:      -4.7      2.713      4.282
REMARK  Name = 
REMARK  1 active torsions:
REMARK  status: ('A' for Active; 'I' for Inactive)
REMARK    1  A    between atoms: C_3  and  C_4
REMARK                            x       y       z     vdW  Elec       q    Type
REMARK                         _______ _______ _______ _____ _____    ______ ____
ROOT
ATOM      1  C   UNL     1      -8.166  15.532  67.591  0.00  0.00    +0.020 C 
ATOM      2  C   UNL     1      -9.603  15.069  68.224  0.00  0.00    +0.089 C 
ATOM      3  N   UNL     1     -10.412  15.453  66.931  0.00  0.00    -0.268 NA
ATOM      4  C   UNL     1      -9.838  14.633  65.907  0.00  0.00    +0.090 C 
ATOM      5  C   UNL     1     -11.665  14.792  67.325  0.00  0.00    +0.105 C 
ATOM      6  C   UNL     1     -11.806  15.238  68.784  0.00  0.00    +0.160 C 
ATOM      7  O   UNL     1     -11.409  16.541  68.784  0.00  0.00    -0.349 OA
ATOM      8  C   UNL     1      -9.908  16.568  69.066  0.00  0.00    +0.152 C 
ENDROOT
BRANCH   8   9
ATOM      9  C   UNL     1      -9.557  17.531  67.800  0.00  0.00    +0.006 A 
ATOM     10  C   UNL     1      -8.504  18.337  68.248  0.00  0.00    -0.002 A 
ATOM     11  C   UNL     1      -8.232  19.566  67.709  0.00  0.00    -0.000 A 
ATOM     12  C   UNL     1      -9.306  20.279  67.257  0.00  0.00    -0.000 A 
ATOM     13  C   UNL     1     -10.563  19.690  67.229  0.00  0.00    -0.000 A 
ATOM     14  C   UNL     1     -10.597  18.320  67.341  0.00  0.00    -0.002 A 
ENDBRANCH   8   9
TORSDOF 1
ENDMDL
MODEL 5
REMARK VINA RESULT:      -4.6      2.693      5.016
REMARK  Name = 
REMARK  1 active torsions:
REMARK  status: ('A' for Active; 'I' for Inactive)
REMARK    1  A    between atoms: C_3  and  C_4
REMARK                            x       y       z     vdW  Elec       q    Type
REMARK                         _______ _______ _______ _____ _____    ______ ____
ROOT
ATOM      1  C   UNL     1     -10.326  17.175  68.882  0.00  0.00    +0.020 C 
ATOM      2  C   UNL     1      -8.980  17.561  68.035  0.00  0.00    +0.089 C 
ATOM      3  N   UNL     1      -9.783  18.289  66.895  0.00  0.00    -0.268 NA
ATOM      4  C   UNL     1     -10.470  19.346  67.575  0.00  0.00    +0.090 C 
ATOM      5  C   UNL     1      -8.617  18.912  66.252  0.00  0.00    +0.105 C 
ATOM      6  C   UNL     1      -7.623  17.746  66.213  0.00  0.00    +0.160 C 
ATOM      7  O   UNL     1      -8.383  16.659  65.897  0.00  0.00    -0.349 OA
ATOM      8  C   UNL     1      -8.857  16.030  67.205  0.00  0.00    +0.152 C 
ENDROOT
BRANCH   8   9
ATOM      9  C   UNL     1     -10.423  15.970  66.758  0.00  0.00    +0.006 A 
ATOM     10  C   UNL     1     -10.930  14.830  67.392  0.00  0.00    -0.002 A 
ATOM     11  C   UNL     1     -12.025  14.151  66.928  0.00  0.00    -0.000 A 
ATOM     12  C   UNL     1     -12.202  14.142  65.572  0.00  0.00    -0.000 A 
ATOM     13  C   UNL     1     -11.378  14.915  64.765  0.00  0.00    -0.000 A 
ATOM     14  C   UNL     1     -10.654  15.899  65.396  0.00  0.00    -0.002 A 
ENDBRANCH   8   9
TORSDOF 1
ENDMDL
MODEL 6
REMARK VINA RESULT:      -4.6      2.518      3.970
REMARK  Name = 
REMARK  1 active torsions:
REMARK  status: ('A' for Active; 'I' for Inactive)
REMARK    1  A    between atoms: C_3  and  C_4
REMARK                            x       y       z     vdW  Elec       q    Type
REMARK                         _______ _______ _______ _____ _____    ______ ____
ROOT
ATOM      1  C   UNL     1     -10.937  15.926  65.003  0.00  0.00    +0.020 C 
ATOM      2  C   UNL     1      -9.798  14.983  65.705  0.00  0.00    +0.089 C 
ATOM      3  N   UNL     1     -10.573  14.890  67.071  0.00  0.00    -0.268 NA
ATOM      4  C   UNL     1     -11.821  14.281  66.721  0.00  0.00    +0.090 C 
ATOM      5  C   UNL     1      -9.747  13.819  67.649  0.00  0.00    +0.105 C 
ATOM      6  C   UNL     1      -8.332  14.302  67.312  0.00  0.00    +0.160 C 
ATOM      7  O   UNL     1      -8.373  15.649  67.513  0.00  0.00    -0.349 OA
ATOM      8  C   UNL     1      -8.762  16.303  66.189  0.00  0.00    +0.152 C 
ENDROOT
BRANCH   8   9
ATOM      9  C   UNL     1      -9.953  17.206  66.838  0.00  0.00    +0.006 A 
ATOM     10  C   UNL     1      -9.964  18.380  66.075  0.00  0.00    -0.002 A 
ATOM     11  C   UNL     1     -10.451  19.567  66.552  0.00  0.00    -0.000 A 
ATOM     12  C   UNL     1     -10.293  19.792  67.891  0.00  0.00    -0.000 A 
ATOM     13  C   UNL     1      -9.797  18.783  68.705  0.00  0.00    -0.000 A 
ATOM     14  C   UNL     1      -9.809  17.513  68.179  0.00  0.00    -0.002 A 
ENDBRANCH   8   9
TORSDOF 1
ENDMDL
MODEL 7
REMARK VINA RESULT:      -4.6      4.547      6.451
REMARK  Name = 
REMARK  1 active torsions:
REMARK  status: ('A' for Active; 'I' for Inactive)
REMARK    1  A    between atoms: C_3  and  C_4
REMARK                            x       y       z     vdW  Elec       q    Type
REMARK                         _______ _______ _______ _____ _____    ______ ____
ROOT
ATOM      1  C   UNL     1      -8.256  17.016  68.697  0.00  0.00    +0.020 C 
ATOM      2  C   UNL     1      -9.600  17.764  68.136  0.00  0.00    +0.089 C 
ATOM      3  N   UNL     1      -9.005  17.975  66.696  0.00  0.00    -0.268 NA
ATOM      4  C   UNL     1      -8.737  16.646  66.233  0.00  0.00    +0.090 C 
ATOM      5  C   UNL     1     -10.267  18.379  66.060  0.00  0.00    +0.105 C 
ATOM      6  C   UNL     1     -10.828  19.370  67.085  0.00  0.00    +0.160 C 
ATOM      7  O   UNL     1      -9.742  20.073  67.512  0.00  0.00    -0.349 OA
ATOM      8  C   UNL     1      -9.172  19.349  68.730  0.00  0.00    +0.152 C 
ENDROOT
BRANCH   8   9
ATOM      9  C   UNL     1      -7.646  19.322  68.160  0.00  0.00    +0.006 A 
ATOM     10  C   UNL     1      -6.841  19.504  69.291  0.00  0.00    -0.002 A 
ATOM     11  C   UNL     1      -5.573  20.014  69.221  0.00  0.00    -0.000 A 
ATOM     12  C   UNL     1      -5.344  20.936  68.238  0.00  0.00    -0.000 A 
ATOM     13  C   UNL     1      -6.330  21.197  67.295  0.00  0.00    -0.000 A 
ATOM     14  C   UNL     1      -7.346  20.276  67.205  0.00  0.00    -0.002 A 
ENDBRANCH   8   9
TORSDOF 1
ENDMDL
MODEL 8
REMARK VINA RESULT:      -4.6      1.808      4.316
REMARK  Name = 
REMARK  1 active torsions:
REMARK  status: ('A' for Active; 'I' for Inactive)
REMARK    1  A    between atoms: C_3  and  C_4
REMARK                            x       y       z     vdW  Elec       q    Type
REMARK                         _______ _______ _______ _____ _____    ______ ____
ROOT
ATOM      1  C   UNL     1      -9.646  11.698  67.799  0.00  0.00    +0.020 C 
ATOM      2  C   UNL     1     -10.122  13.198  68.250  0.00  0.00    +0.089 C 
ATOM      3  N   UNL     1     -11.643  12.806  68.316  0.00  0.00    -0.268 NA
ATOM      4  C   UNL     1     -11.691  11.766  69.300  0.00  0.00    +0.090 C 
ATOM      5  C   UNL     1     -12.093  14.029  68.997  0.00  0.00    +0.105 C 
ATOM      6  C   UNL     1     -11.355  15.114  68.207  0.00  0.00    +0.160 C 
ATOM      7  O   UNL     1     -11.422  14.700  66.911  0.00  0.00    -0.349 OA
ATOM      8  C   UNL     1     -10.185  13.850  66.631  0.00  0.00    +0.152 C 
ENDROOT
BRANCH   8   9
ATOM      9  C   UNL     1     -11.025  12.606  65.996  0.00  0.00    +0.006 A 
ATOM     10  C   UNL     1     -10.190  12.086  65.000  0.00  0.00    -0.002 A 
ATOM     11  C   UNL     1     -10.668  11.377  63.931  0.00  0.00    -0.000 A 
ATOM     12  C   UNL     1     -11.903  11.737  63.470  0.00  0.00    -0.000 A 
ATOM     13  C   UNL     1     -12.656  12.670  64.170  0.00  0.00    -0.000 A 
ATOM     14  C   UNL     1     -12.259  12.929  65.461  0.00  0.00    -0.002 A 
ENDBRANCH   8   9
TORSDOF 1
ENDMDL
MODEL 9
REMARK VINA RESULT:      -4.6      1.760      4.621
REMARK  Name = 
REMARK  1 active torsions:
REMARK  status: ('A' for Active; 'I' for Inactive)
REMARK    1  A    between atoms: C_3  and  C_4
REMARK                            x       y       z     vdW  Elec       q    Type
REMARK                         _______ _______ _______ _____ _____    ______ ____
ROOT
ATOM      1  C   UNL     1     -10.572  14.826  65.094  0.00  0.00    +0.020 C 
ATOM      2  C   UNL     1     -11.337  14.405  66.479  0.00  0.00    +0.089 C 
ATOM      3  N   UNL     1     -10.052  13.753  67.110  0.00  0.00    -0.268 NA
ATOM      4  C   UNL     1      -9.110  14.830  67.168  0.00  0.00    +0.090 C 
ATOM      5  C   UNL     1     -10.595  13.615  68.469  0.00  0.00    +0.105 C 
ATOM      6  C   UNL     1     -11.991  13.049  68.191  0.00  0.00    +0.160 C 
ATOM      7  O   UNL     1     -11.804  12.161  67.175  0.00  0.00    -0.349 OA
ATOM      8  C   UNL     1     -11.998  12.912  65.860  0.00  0.00    +0.152 C 
ENDROOT
BRANCH   8   9
ATOM      9  C   UNL     1     -10.602  12.384  65.205  0.00  0.00    +0.006 A 
ATOM     10  C   UNL     1     -10.877  12.256  63.838  0.00  0.00    -0.002 A 
ATOM     11  C   UNL     1     -10.174  11.415  63.018  0.00  0.00    -0.000 A 
ATOM     12  C   UNL     1      -9.710  10.263  63.588  0.00  0.00    -0.000 A 
ATOM     13  C   UNL     1      -9.837  10.071  64.957  0.00  0.00    -0.000 A 
ATOM     14  C   UNL     1     -10.120  11.189  65.706  0.00  0.00    -0.002 A 
ENDBRANCH   8   9
TORSDOF 1
ENDMDL
