MODEL 1
REMARK VINA RESULT:      -7.6      0.000      0.000
REMARK  Name = 
REMARK  3 active torsions:
REMARK  status: ('A' for Active; 'I' for Inactive)
REMARK    1  A    between atoms: C_2  and  O_3
REMARK    2  A    between atoms: C_2  and  C_16
REMARK    3  A    between atoms: O_3  and  C_4
REMARK                            x       y       z     vdW  Elec       q    Type
REMARK                         _______ _______ _______ _____ _____    ______ ____
ROOT
ATOM      1  O   UNL     1     -10.003  14.564  67.922  0.00  0.00    -0.449 OA
ENDROOT
BRANCH   1   2
ATOM      2  C   UNL     1      -9.652  15.861  67.588  0.00  0.00    +0.172 C 
ATOM      3  C   UNL     1      -8.683  16.322  68.572  0.00  0.00    +0.060 C 
ATOM      4  C   UNL     1      -8.240  17.889  68.204  0.00  0.00    +0.062 C 
ATOM      5  N   UNL     1      -8.703  17.890  66.711  0.00  0.00    -0.269 NA
ATOM      6  C   UNL     1     -10.232  17.807  66.404  0.00  0.00    +0.062 C 
ATOM      7  C   UNL     1     -10.698  19.278  67.056  0.00  0.00    +0.024 C 
ATOM      8  C   UNL     1      -9.718  19.735  68.000  0.00  0.00    +0.062 C 
ATOM      9  C   UNL     1      -8.465  20.113  67.272  0.00  0.00    +0.166 C 
ATOM     10  O   UNL     1      -7.517  20.405  67.994  0.00  0.00    -0.295 OA
ATOM     11  C   UNL     1      -8.229  19.129  66.158  0.00  0.00    +0.137 C 
ATOM     12  C   UNL     1      -9.583  18.593  68.915  0.00  0.00    +0.024 C 
ATOM     13  C   UNL     1     -10.724  16.888  67.718  0.00  0.00    +0.060 C 
ENDBRANCH   1   2
BRANCH   1  15
ATOM     14  O   UNL     1     -12.115  14.213  67.328  0.00  0.00    -0.245 OA
ATOM     15  C   UNL     1     -11.318  14.253  68.283  0.00  0.00    +0.343 C 
BRANCH  15  16
ATOM     16  C   UNL     1     -11.671  13.710  69.595  0.00  0.00    +0.096 A 
ATOM     17  C   UNL     1     -11.988  14.409  70.725  0.00  0.00    +0.025 A 
ATOM     18  C   UNL     1     -12.840  13.606  71.458  0.00  0.00    +0.082 A 
ATOM     19  C   UNL     1     -13.597  14.204  72.457  0.00  0.00    +0.019 A 
ATOM     20  C   UNL     1     -13.370  15.547  72.738  0.00  0.00    +0.002 A 
ATOM     21  C   UNL     1     -12.207  16.150  72.271  0.00  0.00    +0.000 A 
ATOM     22  N   UNL     1     -12.681  12.345  70.995  0.00  0.00    -0.244 NA
ATOM     23  C   UNL     1     -11.513  15.605  71.213  0.00  0.00    +0.002 A 
ATOM     24  C   UNL     1     -11.937  12.373  69.864  0.00  0.00    +0.105 A 
ENDBRANCH  15  16
ENDBRANCH   1  15
TORSDOF 3
ENDMDL
MODEL 2
REMARK VINA RESULT:      -7.3      1.744      2.686
REMARK  Name = 
REMARK  3 active torsions:
REMARK  status: ('A' for Active; 'I' for Inactive)
REMARK    1  A    between atoms: C_2  and  O_3
REMARK    2  A    between atoms: C_2  and  C_16
REMARK    3  A    between atoms: O_3  and  C_4
REMARK                            x       y       z     vdW  Elec       q    Type
REMARK                         _______ _______ _______ _____ _____    ______ ____
ROOT
ATOM      1  O   UNL     1     -10.327  12.457  68.391  0.00  0.00    -0.449 OA
ENDROOT
BRANCH   1   2
ATOM      2  C   UNL     1     -10.110  13.804  68.156  0.00  0.00    +0.172 C 
ATOM      3  C   UNL     1     -10.863  14.171  66.966  0.00  0.00    +0.060 C 
ATOM      4  C   UNL     1     -10.619  15.792  66.648  0.00  0.00    +0.062 C 
ATOM      5  N   UNL     1     -10.116  16.208  68.068  0.00  0.00    -0.269 NA
ATOM      6  C   UNL     1      -8.735  15.668  68.559  0.00  0.00    +0.062 C 
ATOM      7  C   UNL     1      -7.753  16.449  67.450  0.00  0.00    +0.024 C 
ATOM      8  C   UNL     1      -8.515  16.833  66.295  0.00  0.00    +0.062 C 
ATOM      9  C   UNL     1      -9.470  17.924  66.671  0.00  0.00    +0.166 C 
ATOM     10  O   UNL     1     -10.257  18.246  65.787  0.00  0.00    -0.295 OA
ATOM     11  C   UNL     1     -10.023  17.642  68.042  0.00  0.00    +0.137 C 
ATOM     12  C   UNL     1      -9.146  15.571  65.882  0.00  0.00    +0.024 C 
ATOM     13  C   UNL     1      -8.724  14.190  67.767  0.00  0.00    +0.060 C 
ENDBRANCH   1   2
BRANCH   1  15
ATOM     14  O   UNL     1     -12.140  11.230  68.008  0.00  0.00    -0.245 OA
ATOM     15  C   UNL     1     -11.582  12.000  68.810  0.00  0.00    +0.343 C 
BRANCH  15  16
ATOM     16  C   UNL     1     -12.057  12.144  70.186  0.00  0.00    +0.096 A 
ATOM     17  C   UNL     1     -12.435  13.295  70.818  0.00  0.00    +0.025 A 
ATOM     18  C   UNL     1     -13.372  12.933  71.766  0.00  0.00    +0.082 A 
ATOM     19  C   UNL     1     -14.181  13.931  72.292  0.00  0.00    +0.019 A 
ATOM     20  C   UNL     1     -13.925  15.248  71.923  0.00  0.00    +0.002 A 
ATOM     21  C   UNL     1     -12.707  15.560  71.330  0.00  0.00    +0.000 A 
ATOM     22  N   UNL     1     -13.226  11.605  71.970  0.00  0.00    -0.244 NA
ATOM     23  C   UNL     1     -11.953  14.581  70.721  0.00  0.00    +0.002 A 
ATOM     24  C   UNL     1     -12.395  11.094  71.031  0.00  0.00    +0.105 A 
ENDBRANCH  15  16
ENDBRANCH   1  15
TORSDOF 3
ENDMDL
MODEL 3
REMARK VINA RESULT:      -7.1      1.225      1.822
REMARK  Name = 
REMARK  3 active torsions:
REMARK  status: ('A' for Active; 'I' for Inactive)
REMARK    1  A    between atoms: C_2  and  O_3
REMARK    2  A    between atoms: C_2  and  C_16
REMARK    3  A    between atoms: O_3  and  C_4
REMARK                            x       y       z     vdW  Elec       q    Type
REMARK                         _______ _______ _______ _____ _____    ______ ____
ROOT
ATOM      1  O   UNL     1     -11.286  16.887  68.338  0.00  0.00    -0.449 OA
ENDROOT
BRANCH   1   2
ATOM      2  C   UNL     1     -10.015  17.414  68.180  0.00  0.00    +0.172 C 
ATOM      3  C   UNL     1      -9.974  18.685  68.889  0.00  0.00    +0.060 C 
ATOM      4  C   UNL     1      -8.454  19.354  68.715  0.00  0.00    +0.062 C 
ATOM      5  N   UNL     1      -7.698  18.048  68.308  0.00  0.00    -0.269 NA
ATOM      6  C   UNL     1      -8.026  17.394  66.927  0.00  0.00    +0.062 C 
ATOM      7  C   UNL     1      -7.454  18.614  65.932  0.00  0.00    +0.024 C 
ATOM      8  C   UNL     1      -7.389  19.854  66.653  0.00  0.00    +0.062 C 
ATOM      9  C   UNL     1      -6.303  19.773  67.682  0.00  0.00    +0.166 C 
ATOM     10  O   UNL     1      -6.238  20.737  68.439  0.00  0.00    -0.295 OA
ATOM     11  C   UNL     1      -6.304  18.395  68.289  0.00  0.00    +0.137 C 
ATOM     12  C   UNL     1      -8.748  19.993  67.195  0.00  0.00    +0.024 C 
ATOM     13  C   UNL     1      -9.640  17.828  66.799  0.00  0.00    +0.060 C 
ENDBRANCH   1   2
BRANCH   1  15
ATOM     14  O   UNL     1     -11.346  15.098  67.023  0.00  0.00    -0.245 OA
ATOM     15  C   UNL     1     -11.513  15.516  68.183  0.00  0.00    +0.343 C 
BRANCH  15  16
ATOM     16  C   UNL     1     -11.620  14.597  69.317  0.00  0.00    +0.096 A 
ATOM     17  C   UNL     1     -11.946  14.906  70.607  0.00  0.00    +0.025 A 
ATOM     18  C   UNL     1     -12.549  13.783  71.138  0.00  0.00    +0.082 A 
ATOM     19  C   UNL     1     -13.299  13.936  72.297  0.00  0.00    +0.019 A 
ATOM     20  C   UNL     1     -13.303  15.181  72.917  0.00  0.00    +0.002 A 
ATOM     21  C   UNL     1     -12.331  16.113  72.572  0.00  0.00    +0.000 A 
ATOM     22  N   UNL     1     -12.203  12.743  70.347  0.00  0.00    -0.244 NA
ATOM     23  C   UNL     1     -11.658  16.012  71.374  0.00  0.00    +0.002 A 
ATOM     24  C   UNL     1     -11.597  13.211  69.230  0.00  0.00    +0.105 A 
ENDBRANCH  15  16
ENDBRANCH   1  15
TORSDOF 3
ENDMDL
MODEL 4
REMARK VINA RESULT:      -7.1      3.227      6.744
REMARK  Name = 
REMARK  3 active torsions:
REMARK  status: ('A' for Active; 'I' for Inactive)
REMARK    1  A    between atoms: C_2  and  O_3
REMARK    2  A    between atoms: C_2  and  C_16
REMARK    3  A    between atoms: O_3  and  C_4
REMARK                            x       y       z     vdW  Elec       q    Type
REMARK                         _______ _______ _______ _____ _____    ______ ____
ROOT
ATOM      1  O   UNL     1      -9.319  16.061  67.926  0.00  0.00    -0.449 OA
ENDROOT
BRANCH   1   2
ATOM      2  C   UNL     1      -9.790  15.170  66.978  0.00  0.00    +0.172 C 
ATOM      3  C   UNL     1     -10.668  15.905  66.079  0.00  0.00    +0.060 C 
ATOM      4  C   UNL     1     -11.262  14.857  64.923  0.00  0.00    +0.062 C 
ATOM      5  N   UNL     1     -10.185  13.736  65.087  0.00  0.00    -0.269 NA
ATOM      6  C   UNL     1     -10.156  12.916  66.416  0.00  0.00    +0.062 C 
ATOM      7  C   UNL     1     -11.636  12.146  66.266  0.00  0.00    +0.024 C 
ATOM      8  C   UNL     1     -12.480  12.865  65.353  0.00  0.00    +0.062 C 
ATOM      9  C   UNL     1     -11.932  12.735  63.965  0.00  0.00    +0.166 C 
ATOM     10  O   UNL     1     -12.508  13.412  63.118  0.00  0.00    -0.295 OA
ATOM     11  C   UNL     1     -10.429  12.803  64.021  0.00  0.00    +0.137 C 
ATOM     12  C   UNL     1     -12.470  14.230  65.898  0.00  0.00    +0.024 C 
ATOM     13  C   UNL     1     -10.699  14.097  67.475  0.00  0.00    +0.060 C 
ENDBRANCH   1   2
BRANCH   1  15
ATOM     14  O   UNL     1     -10.966  16.840  69.199  0.00  0.00    -0.245 OA
ATOM     15  C   UNL     1     -10.109  17.137  68.347  0.00  0.00    +0.343 C 
BRANCH  15  16
ATOM     16  C   UNL     1      -9.761  18.531  68.067  0.00  0.00    +0.096 A 
ATOM     17  C   UNL     1      -8.539  19.125  68.204  0.00  0.00    +0.025 A 
ATOM     18  C   UNL     1      -8.493  20.145  67.274  0.00  0.00    +0.082 A 
ATOM     19  C   UNL     1      -7.249  20.669  66.947  0.00  0.00    +0.019 A 
ATOM     20  C   UNL     1      -6.140  20.220  67.655  0.00  0.00    +0.002 A 
ATOM     21  C   UNL     1      -6.331  19.538  68.852  0.00  0.00    +0.000 A 
ATOM     22  N   UNL     1      -9.771  20.407  66.920  0.00  0.00    -0.244 NA
ATOM     23  C   UNL     1      -7.538  18.935  69.129  0.00  0.00    +0.002 A 
ATOM     24  C   UNL     1     -10.583  19.447  67.421  0.00  0.00    +0.105 A 
ENDBRANCH  15  16
ENDBRANCH   1  15
TORSDOF 3
ENDMDL
MODEL 5
REMARK VINA RESULT:      -7.0      2.083      3.948
REMARK  Name = 
REMARK  3 active torsions:
REMARK  status: ('A' for Active; 'I' for Inactive)
REMARK    1  A    between atoms: C_2  and  O_3
REMARK    2  A    between atoms: C_2  and  C_16
REMARK    3  A    between atoms: O_3  and  C_4
REMARK                            x       y       z     vdW  Elec       q    Type
REMARK                         _______ _______ _______ _____ _____    ______ ____
ROOT
ATOM      1  O   UNL     1     -11.306  17.112  68.121  0.00  0.00    -0.449 OA
ENDROOT
BRANCH   1   2
ATOM      2  C   UNL     1     -10.101  17.795  68.121  0.00  0.00    +0.172 C 
ATOM      3  C   UNL     1     -10.364  19.152  67.664  0.00  0.00    +0.060 C 
ATOM      4  C   UNL     1      -8.929  20.006  67.646  0.00  0.00    +0.062 C 
ATOM      5  N   UNL     1      -8.121  19.072  68.604  0.00  0.00    -0.269 NA
ATOM      6  C   UNL     1      -7.755  17.635  68.114  0.00  0.00    +0.062 C 
ATOM      7  C   UNL     1      -6.725  18.052  66.862  0.00  0.00    +0.024 C 
ATOM      8  C   UNL     1      -6.973  19.402  66.443  0.00  0.00    +0.062 C 
ATOM      9  C   UNL     1      -6.534  20.345  67.520  0.00  0.00    +0.166 C 
ATOM     10  O   UNL     1      -6.811  21.524  67.318  0.00  0.00    -0.295 OA
ATOM     11  C   UNL     1      -6.883  19.757  68.861  0.00  0.00    +0.137 C 
ATOM     12  C   UNL     1      -8.417  19.402  66.169  0.00  0.00    +0.024 C 
ATOM     13  C   UNL     1      -9.083  17.337  67.134  0.00  0.00    +0.060 C 
ENDBRANCH   1   2
BRANCH   1  15
ATOM     14  O   UNL     1     -11.750  16.310  70.144  0.00  0.00    -0.245 OA
ATOM     15  C   UNL     1     -11.501  16.012  68.962  0.00  0.00    +0.343 C 
BRANCH  15  16
ATOM     16  C   UNL     1     -11.715  14.656  68.455  0.00  0.00    +0.096 A 
ATOM     17  C   UNL     1     -11.465  14.192  67.195  0.00  0.00    +0.025 A 
ATOM     18  C   UNL     1     -11.179  12.847  67.322  0.00  0.00    +0.082 A 
ATOM     19  C   UNL     1     -10.538  12.217  66.263  0.00  0.00    +0.019 A 
ATOM     20  C   UNL     1     -10.327  12.944  65.096  0.00  0.00    +0.002 A 
ATOM     21  C   UNL     1     -11.031  14.126  64.898  0.00  0.00    +0.000 A 
ATOM     22  N   UNL     1     -11.660  12.458  68.524  0.00  0.00    -0.244 NA
ATOM     23  C   UNL     1     -11.582  14.800  65.966  0.00  0.00    +0.002 A 
ATOM     24  C   UNL     1     -12.030  13.550  69.234  0.00  0.00    +0.105 A 
ENDBRANCH  15  16
ENDBRANCH   1  15
TORSDOF 3
ENDMDL
MODEL 6
REMARK VINA RESULT:      -7.0      2.399      3.758
REMARK  Name = 
REMARK  3 active torsions:
REMARK  status: ('A' for Active; 'I' for Inactive)
REMARK    1  A    between atoms: C_2  and  O_3
REMARK    2  A    between atoms: C_2  and  C_16
REMARK    3  A    between atoms: O_3  and  C_4
REMARK                            x       y       z     vdW  Elec       q    Type
REMARK                         _______ _______ _______ _____ _____    ______ ____
ROOT
ATOM      1  O   UNL     1     -10.277  18.280  65.770  0.00  0.00    -0.449 OA
ENDROOT
BRANCH   1   2
ATOM      2  C   UNL     1      -9.175  18.459  66.588  0.00  0.00    +0.172 C 
ATOM      3  C   UNL     1      -9.502  19.504  67.547  0.00  0.00    +0.060 C 
ATOM      4  C   UNL     1      -8.190  19.752  68.549  0.00  0.00    +0.062 C 
ATOM      5  N   UNL     1      -7.462  18.395  68.276  0.00  0.00    -0.269 NA
ATOM      6  C   UNL     1      -6.860  18.142  66.857  0.00  0.00    +0.062 C 
ATOM      7  C   UNL     1      -5.680  19.330  66.871  0.00  0.00    +0.024 C 
ATOM      8  C   UNL     1      -6.000  20.337  67.844  0.00  0.00    +0.062 C 
ATOM      9  C   UNL     1      -5.862  19.760  69.219  0.00  0.00    +0.166 C 
ATOM     10  O   UNL     1      -6.228  20.501  70.127  0.00  0.00    -0.295 OA
ATOM     11  C   UNL     1      -6.372  18.344  69.211  0.00  0.00    +0.137 C 
ATOM     12  C   UNL     1      -7.365  20.733  67.471  0.00  0.00    +0.024 C 
ATOM     13  C   UNL     1      -7.956  19.018  65.938  0.00  0.00    +0.060 C 
ENDBRANCH   1   2
BRANCH   1  15
ATOM     14  O   UNL     1     -11.244  16.880  64.341  0.00  0.00    -0.245 OA
ATOM     15  C   UNL     1     -10.744  16.994  65.475  0.00  0.00    +0.343 C 
BRANCH  15  16
ATOM     16  C   UNL     1     -10.396  15.822  66.277  0.00  0.00    +0.096 A 
ATOM     17  C   UNL     1     -10.871  15.491  67.514  0.00  0.00    +0.025 A 
ATOM     18  C   UNL     1     -10.826  14.114  67.597  0.00  0.00    +0.082 A 
ATOM     19  C   UNL     1     -11.580  13.498  68.587  0.00  0.00    +0.019 A 
ATOM     20  C   UNL     1     -12.242  14.304  69.506  0.00  0.00    +0.002 A 
ATOM     21  C   UNL     1     -11.879  15.642  69.619  0.00  0.00    +0.000 A 
ATOM     22  N   UNL     1      -9.971  13.694  66.637  0.00  0.00    -0.244 NA
ATOM     23  C   UNL     1     -11.215  16.276  68.591  0.00  0.00    +0.002 A 
ATOM     24  C   UNL     1      -9.661  14.732  65.826  0.00  0.00    +0.105 A 
ENDBRANCH  15  16
ENDBRANCH   1  15
TORSDOF 3
ENDMDL
MODEL 7
REMARK VINA RESULT:      -7.0      4.078      8.332
REMARK  Name = 
REMARK  3 active torsions:
REMARK  status: ('A' for Active; 'I' for Inactive)
REMARK    1  A    between atoms: C_2  and  O_3
REMARK    2  A    between atoms: C_2  and  C_16
REMARK    3  A    between atoms: O_3  and  C_4
REMARK                            x       y       z     vdW  Elec       q    Type
REMARK                         _______ _______ _______ _____ _____    ______ ____
ROOT
ATOM      1  O   UNL     1     -10.520  11.565  69.519  0.00  0.00    -0.449 OA
ENDROOT
BRANCH   1   2
ATOM      2  C   UNL     1     -10.646  10.213  69.787  0.00  0.00    +0.172 C 
ATOM      3  C   UNL     1     -11.526  10.072  70.938  0.00  0.00    +0.060 C 
ATOM      4  C   UNL     1     -11.697   8.450  71.295  0.00  0.00    +0.062 C 
ATOM      5  N   UNL     1     -11.235   7.884  69.914  0.00  0.00    -0.269 NA
ATOM      6  C   UNL     1      -9.740   8.063  69.495  0.00  0.00    +0.062 C 
ATOM      7  C   UNL     1      -9.035   7.103  70.672  0.00  0.00    +0.024 C 
ATOM      8  C   UNL     1      -9.927   6.946  71.786  0.00  0.00    +0.062 C 
ATOM      9  C   UNL     1     -11.095   6.105  71.373  0.00  0.00    +0.166 C 
ATOM     10  O   UNL     1     -11.983   6.007  72.215  0.00  0.00    -0.295 OA
ATOM     11  C   UNL     1     -11.491   6.471  69.968  0.00  0.00    +0.137 C 
ATOM     12  C   UNL     1     -10.257   8.334  72.142  0.00  0.00    +0.024 C 
ATOM     13  C   UNL     1      -9.416   9.518  70.263  0.00  0.00    +0.060 C 
ENDBRANCH   1   2
BRANCH   1  15
ATOM     14  O   UNL     1     -12.175  11.531  68.036  0.00  0.00    -0.245 OA
ATOM     15  C   UNL     1     -11.516  12.248  68.812  0.00  0.00    +0.343 C 
BRANCH  15  16
ATOM     16  C   UNL     1     -11.964  13.592  69.175  0.00  0.00    +0.096 A 
ATOM     17  C   UNL     1     -12.363  14.031  70.406  0.00  0.00    +0.025 A 
ATOM     18  C   UNL     1     -12.066  15.378  70.457  0.00  0.00    +0.082 A 
ATOM     19  C   UNL     1     -12.027  15.987  71.705  0.00  0.00    +0.019 A 
ATOM     20  C   UNL     1     -12.402  15.236  72.814  0.00  0.00    +0.002 A 
ATOM     21  C   UNL     1     -13.102  14.050  72.624  0.00  0.00    +0.000 A 
ATOM     22  N   UNL     1     -11.905  15.791  69.180  0.00  0.00    -0.244 NA
ATOM     23  C   UNL     1     -13.057  13.398  71.411  0.00  0.00    +0.002 A 
ATOM     24  C   UNL     1     -11.872  14.714  68.360  0.00  0.00    +0.105 A 
ENDBRANCH  15  16
ENDBRANCH   1  15
TORSDOF 3
ENDMDL
MODEL 8
REMARK VINA RESULT:      -6.9      4.603      6.115
REMARK  Name = 
REMARK  3 active torsions:
REMARK  status: ('A' for Active; 'I' for Inactive)
REMARK    1  A    between atoms: C_2  and  O_3
REMARK    2  A    between atoms: C_2  and  C_16
REMARK    3  A    between atoms: O_3  and  C_4
REMARK                            x       y       z     vdW  Elec       q    Type
REMARK                         _______ _______ _______ _____ _____    ______ ____
ROOT
ATOM      1  O   UNL     1     -10.465  11.155  69.076  0.00  0.00    -0.449 OA
ENDROOT
BRANCH   1   2
ATOM      2  C   UNL     1     -10.903  11.963  68.041  0.00  0.00    +0.172 C 
ATOM      3  C   UNL     1     -11.212  11.101  66.910  0.00  0.00    +0.060 C 
ATOM      4  C   UNL     1     -11.739  12.044  65.637  0.00  0.00    +0.062 C 
ATOM      5  N   UNL     1     -12.113  13.316  66.464  0.00  0.00    -0.269 NA
ATOM      6  C   UNL     1     -10.965  14.133  67.139  0.00  0.00    +0.062 C 
ATOM      7  C   UNL     1     -10.190  14.667  65.753  0.00  0.00    +0.024 C 
ATOM      8  C   UNL     1     -10.529  13.826  64.639  0.00  0.00    +0.062 C 
ATOM      9  C   UNL     1     -11.968  14.037  64.279  0.00  0.00    +0.166 C 
ATOM     10  O   UNL     1     -12.398  13.279  63.415  0.00  0.00    -0.295 OA
ATOM     11  C   UNL     1     -12.772  14.200  65.541  0.00  0.00    +0.137 C 
ATOM     12  C   UNL     1     -10.203  12.480  65.131  0.00  0.00    +0.024 C 
ATOM     13  C   UNL     1      -9.891  12.884  67.450  0.00  0.00    +0.060 C 
ENDBRANCH   1   2
BRANCH   1  15
ATOM     14  O   UNL     1     -12.133  11.840  70.374  0.00  0.00    -0.245 OA
ATOM     15  C   UNL     1     -11.246  10.980  70.224  0.00  0.00    +0.343 C 
BRANCH  15  16
ATOM     16  C   UNL     1     -11.244   9.741  71.002  0.00  0.00    +0.096 A 
ATOM     17  C   UNL     1     -12.327   9.027  71.429  0.00  0.00    +0.025 A 
ATOM     18  C   UNL     1     -11.921   7.710  71.512  0.00  0.00    +0.082 A 
ATOM     19  C   UNL     1     -12.903   6.730  71.565  0.00  0.00    +0.019 A 
ATOM     20  C   UNL     1     -14.231   7.134  71.647  0.00  0.00    +0.002 A 
ATOM     21  C   UNL     1     -14.519   8.447  72.003  0.00  0.00    +0.000 A 
ATOM     22  N   UNL     1     -10.569   7.721  71.553  0.00  0.00    -0.244 NA
ATOM     23  C   UNL     1     -13.570   9.436  71.856  0.00  0.00    +0.002 A 
ATOM     24  C   UNL     1     -10.122   8.968  71.274  0.00  0.00    +0.105 A 
ENDBRANCH  15  16
ENDBRANCH   1  15
TORSDOF 3
ENDMDL
MODEL 9
REMARK VINA RESULT:      -6.9      4.575      5.996
REMARK  Name = 
REMARK  3 active torsions:
REMARK  status: ('A' for Active; 'I' for Inactive)
REMARK    1  A    between atoms: C_2  and  O_3
REMARK    2  A    between atoms: C_2  and  C_16
REMARK    3  A    between atoms: O_3  and  C_4
REMARK                            x       y       z     vdW  Elec       q    Type
REMARK                         _______ _______ _______ _____ _____    ______ ____
ROOT
ATOM      1  O   UNL     1      -9.733   9.846  67.122  0.00  0.00    -0.449 OA
ENDROOT
BRANCH   1   2
ATOM      2  C   UNL     1     -10.418  10.965  66.682  0.00  0.00    +0.172 C 
ATOM      3  C   UNL     1     -10.658  10.802  65.256  0.00  0.00    +0.060 C 
ATOM      4  C   UNL     1     -11.480  12.140  64.687  0.00  0.00    +0.062 C 
ATOM      5  N   UNL     1     -12.016  12.653  66.063  0.00  0.00    -0.269 NA
ATOM      6  C   UNL     1     -10.991  13.206  67.104  0.00  0.00    +0.062 C 
ATOM      7  C   UNL     1     -10.472  14.552  66.254  0.00  0.00    +0.024 C 
ATOM      8  C   UNL     1     -10.744  14.391  64.853  0.00  0.00    +0.062 C 
ATOM      9  C   UNL     1     -12.224  14.444  64.626  0.00  0.00    +0.166 C 
ATOM     10  O   UNL     1     -12.578  14.196  63.478  0.00  0.00    -0.295 OA
ATOM     11  C   UNL     1     -12.920  13.726  65.752  0.00  0.00    +0.137 C 
ATOM     12  C   UNL     1     -10.115  13.099  64.542  0.00  0.00    +0.024 C 
ATOM     13  C   UNL     1      -9.668  12.252  66.715  0.00  0.00    +0.060 C 
ENDBRANCH   1   2
BRANCH   1  15
ATOM     14  O   UNL     1     -10.750   7.873  67.023  0.00  0.00    -0.245 OA
ATOM     15  C   UNL     1     -10.408   8.806  67.771  0.00  0.00    +0.343 C 
BRANCH  15  16
ATOM     16  C   UNL     1     -10.430   8.664  69.227  0.00  0.00    +0.096 A 
ATOM     17  C   UNL     1     -11.218   9.340  70.115  0.00  0.00    +0.025 A 
ATOM     18  C   UNL     1     -11.400   8.501  71.196  0.00  0.00    +0.082 A 
ATOM     19  C   UNL     1     -12.443   8.783  72.068  0.00  0.00    +0.019 A 
ATOM     20  C   UNL     1     -13.169   9.953  71.869  0.00  0.00    +0.002 A 
ATOM     21  C   UNL     1     -12.644  10.943  71.046  0.00  0.00    +0.000 A 
ATOM     22  N   UNL     1     -10.422   7.569  71.135  0.00  0.00    -0.244 NA
ATOM     23  C   UNL     1     -11.677  10.638  70.113  0.00  0.00    +0.002 A 
ATOM     24  C   UNL     1      -9.784   7.666  69.945  0.00  0.00    +0.105 A 
ENDBRANCH  15  16
ENDBRANCH   1  15
TORSDOF 3
ENDMDL
