MODEL 1
REMARK VINA RESULT:      -5.6      0.000      0.000
REMARK  Name = 
REMARK  4 active torsions:
REMARK  status: ('A' for Active; 'I' for Inactive)
REMARK    1  A    between atoms: O_2  and  C_3
REMARK    2  A    between atoms: C_3  and  C_5
REMARK    3  A    between atoms: C_5  and  C_6
REMARK    4  A    between atoms: C_5  and  C_12
REMARK                            x       y       z     vdW  Elec       q    Type
REMARK                         _______ _______ _______ _____ _____    ______ ____
ROOT
ATOM      1  C   UNL     1      -9.744  16.222  66.071  0.00  0.00    +0.137 C 
ENDROOT
BRANCH   1   2
ATOM      2  C   UNL     1     -10.483  17.444  67.037  0.00  0.00    +0.087 C 
ATOM      3  N   UNL     1      -9.175  17.607  67.887  0.00  0.00    -0.219 NA
ATOM      4  C   UNL     1      -9.327  18.749  68.712  0.00  0.00    +0.089 C 
ATOM      5  C   UNL     1     -10.070  19.897  68.171  0.00  0.00    +0.019 C 
ATOM      6  C   UNL     1     -10.405  19.869  66.727  0.00  0.00    +0.003 C 
ATOM      7  C   UNL     1     -10.017  18.620  65.996  0.00  0.00    +0.018 C 
ENDBRANCH   1   2
BRANCH   1   8
ATOM      8  C   UNL     1     -10.061  15.051  67.117  0.00  0.00    -0.011 A 
ATOM      9  C   UNL     1     -11.339  15.005  67.621  0.00  0.00    -0.004 A 
ATOM     10  C   UNL     1     -11.768  13.874  68.307  0.00  0.00    -0.000 A 
ATOM     11  C   UNL     1     -10.920  12.784  68.273  0.00  0.00    -0.000 A 
ATOM     12  C   UNL     1      -9.557  12.994  68.105  0.00  0.00    -0.000 A 
ATOM     13  C   UNL     1      -9.138  14.113  67.388  0.00  0.00    -0.004 A 
ENDBRANCH   1   8
BRANCH   1  14
ATOM     14  C   UNL     1     -11.075  15.931  65.210  0.00  0.00    +0.322 C 
ATOM     15  O   UNL     1     -11.262  16.746  64.251  0.00  0.00    -0.250 OA
BRANCH  14  17
ATOM     16  C   UNL     1     -11.990  13.938  64.268  0.00  0.00    +0.256 C 
ATOM     17  O   UNL     1     -10.980  14.619  64.713  0.00  0.00    -0.444 OA
ENDBRANCH  14  17
ENDBRANCH   1  14
TORSDOF 4
ENDMDL
MODEL 2
REMARK VINA RESULT:      -5.4      3.118      4.351
REMARK  Name = 
REMARK  4 active torsions:
REMARK  status: ('A' for Active; 'I' for Inactive)
REMARK    1  A    between atoms: O_2  and  C_3
REMARK    2  A    between atoms: C_3  and  C_5
REMARK    3  A    between atoms: C_5  and  C_6
REMARK    4  A    between atoms: C_5  and  C_12
REMARK                            x       y       z     vdW  Elec       q    Type
REMARK                         _______ _______ _______ _____ _____    ______ ____
ROOT
ATOM      1  C   UNL     1     -10.870  14.635  69.603  0.00  0.00    +0.137 C 
ENDROOT
BRANCH   1   2
ATOM      2  C   UNL     1     -11.344  15.897  68.527  0.00  0.00    +0.087 C 
ATOM      3  N   UNL     1     -10.318  16.885  69.184  0.00  0.00    -0.219 NA
ATOM      4  C   UNL     1     -10.255  18.051  68.382  0.00  0.00    +0.089 C 
ATOM      5  C   UNL     1     -10.383  17.893  66.925  0.00  0.00    +0.019 C 
ATOM      6  C   UNL     1     -10.337  16.513  66.385  0.00  0.00    +0.003 C 
ATOM      7  C   UNL     1     -10.248  15.421  67.406  0.00  0.00    +0.018 C 
ENDBRANCH   1   2
BRANCH   1   8
ATOM      8  C   UNL     1     -11.818  15.144  70.789  0.00  0.00    -0.011 A 
ATOM      9  C   UNL     1     -13.164  15.216  70.516  0.00  0.00    -0.004 A 
ATOM     10  C   UNL     1     -14.070  15.377  71.557  0.00  0.00    -0.000 A 
ATOM     11  C   UNL     1     -13.555  15.268  72.835  0.00  0.00    -0.000 A 
ATOM     12  C   UNL     1     -12.218  15.576  73.051  0.00  0.00    -0.000 A 
ATOM     13  C   UNL     1     -11.312  15.380  72.012  0.00  0.00    -0.004 A 
ENDBRANCH   1   8
BRANCH   1  14
ATOM     14  C   UNL     1     -11.971  13.593  69.055  0.00  0.00    +0.322 C 
ATOM     15  O   UNL     1     -11.685  13.081  67.926  0.00  0.00    -0.250 OA
BRANCH  14  17
ATOM     16  C   UNL     1     -11.722  11.355  69.847  0.00  0.00    +0.256 C 
ATOM     17  O   UNL     1     -12.113  12.580  70.020  0.00  0.00    -0.444 OA
ENDBRANCH  14  17
ENDBRANCH   1  14
TORSDOF 4
ENDMDL
MODEL 3
REMARK VINA RESULT:      -5.4      2.104      4.794
REMARK  Name = 
REMARK  4 active torsions:
REMARK  status: ('A' for Active; 'I' for Inactive)
REMARK    1  A    between atoms: O_2  and  C_3
REMARK    2  A    between atoms: C_3  and  C_5
REMARK    3  A    between atoms: C_5  and  C_6
REMARK    4  A    between atoms: C_5  and  C_12
REMARK                            x       y       z     vdW  Elec       q    Type
REMARK                         _______ _______ _______ _____ _____    ______ ____
ROOT
ATOM      1  C   UNL     1     -11.144  15.212  66.157  0.00  0.00    +0.137 C 
ENDROOT
BRANCH   1   2
ATOM      2  C   UNL     1     -10.566  13.994  65.081  0.00  0.00    +0.087 C 
ATOM      3  N   UNL     1     -10.941  12.867  66.105  0.00  0.00    -0.219 NA
ATOM      4  C   UNL     1     -10.800  11.616  65.453  0.00  0.00    +0.089 C 
ATOM      5  C   UNL     1     -11.146  11.540  64.026  0.00  0.00    +0.019 C 
ATOM      6  C   UNL     1     -11.835  12.710  63.430  0.00  0.00    +0.003 C 
ATOM      7  C   UNL     1     -12.024  13.883  64.343  0.00  0.00    +0.018 C 
ENDBRANCH   1   2
BRANCH   1   8
ATOM      8  C   UNL     1      -9.869  15.116  67.122  0.00  0.00    -0.011 A 
ATOM      9  C   UNL     1      -8.634  15.199  66.523  0.00  0.00    -0.004 A 
ATOM     10  C   UNL     1      -7.503  15.403  67.304  0.00  0.00    -0.000 A 
ATOM     11  C   UNL     1      -7.727  15.695  68.635  0.00  0.00    -0.000 A 
ATOM     12  C   UNL     1      -8.890  15.235  69.240  0.00  0.00    -0.000 A 
ATOM     13  C   UNL     1     -10.028  15.065  68.455  0.00  0.00    -0.004 A 
ENDBRANCH   1   8
BRANCH   1  14
ATOM     14  C   UNL     1     -10.517  16.428  65.306  0.00  0.00    +0.322 C 
ATOM     15  O   UNL     1     -11.270  16.853  64.373  0.00  0.00    -0.250 OA
BRANCH  14  17
ATOM     16  C   UNL     1     -10.514  18.718  65.981  0.00  0.00    +0.256 C 
ATOM     17  O   UNL     1     -10.233  17.472  66.206  0.00  0.00    -0.444 OA
ENDBRANCH  14  17
ENDBRANCH   1  14
TORSDOF 4
ENDMDL
MODEL 4
REMARK VINA RESULT:      -5.3      3.202      5.075
REMARK  Name = 
REMARK  4 active torsions:
REMARK  status: ('A' for Active; 'I' for Inactive)
REMARK    1  A    between atoms: O_2  and  C_3
REMARK    2  A    between atoms: C_3  and  C_5
REMARK    3  A    between atoms: C_5  and  C_6
REMARK    4  A    between atoms: C_5  and  C_12
REMARK                            x       y       z     vdW  Elec       q    Type
REMARK                         _______ _______ _______ _____ _____    ______ ____
ROOT
ATOM      1  C   UNL     1     -11.897  15.332  69.281  0.00  0.00    +0.137 C 
ENDROOT
BRANCH   1   2
ATOM      2  C   UNL     1     -11.645  14.823  70.910  0.00  0.00    +0.087 C 
ATOM      3  N   UNL     1     -11.964  16.263  71.442  0.00  0.00    -0.219 NA
ATOM      4  C   UNL     1     -12.072  16.196  72.854  0.00  0.00    +0.089 C 
ATOM      5  C   UNL     1     -12.659  14.984  73.444  0.00  0.00    +0.019 C 
ATOM      6  C   UNL     1     -13.306  14.023  72.517  0.00  0.00    +0.003 C 
ATOM      7  C   UNL     1     -13.210  14.362  71.062  0.00  0.00    +0.018 C 
ENDBRANCH   1   2
BRANCH   1   8
ATOM      8  C   UNL     1     -10.484  16.078  69.181  0.00  0.00    -0.011 A 
ATOM      9  C   UNL     1      -9.368  15.326  69.467  0.00  0.00    -0.004 A 
ATOM     10  C   UNL     1      -8.108  15.812  69.137  0.00  0.00    -0.000 A 
ATOM     11  C   UNL     1      -8.080  16.958  68.367  0.00  0.00    -0.000 A 
ATOM     12  C   UNL     1      -9.147  17.845  68.438  0.00  0.00    -0.000 A 
ATOM     13  C   UNL     1     -10.412  17.344  68.736  0.00  0.00    -0.004 A 
ENDBRANCH   1   8
BRANCH   1  14
ATOM     14  C   UNL     1     -11.322  13.970  68.642  0.00  0.00    +0.322 C 
ATOM     15  O   UNL     1     -12.069  12.955  68.818  0.00  0.00    -0.250 OA
BRANCH  14  17
ATOM     16  C   UNL     1     -12.072  14.072  66.378  0.00  0.00    +0.256 C 
ATOM     17  O   UNL     1     -11.134  14.194  67.265  0.00  0.00    -0.444 OA
ENDBRANCH  14  17
ENDBRANCH   1  14
TORSDOF 4
ENDMDL
MODEL 5
REMARK VINA RESULT:      -5.3      3.722      6.264
REMARK  Name = 
REMARK  4 active torsions:
REMARK  status: ('A' for Active; 'I' for Inactive)
REMARK    1  A    between atoms: O_2  and  C_3
REMARK    2  A    between atoms: C_3  and  C_5
REMARK    3  A    between atoms: C_5  and  C_6
REMARK    4  A    between atoms: C_5  and  C_12
REMARK                            x       y       z     vdW  Elec       q    Type
REMARK                         _______ _______ _______ _____ _____    ______ ____
ROOT
ATOM      1  C   UNL     1     -12.390  14.234  69.367  0.00  0.00    +0.137 C 
ENDROOT
BRANCH   1   2
ATOM      2  C   UNL     1     -11.510  12.906  70.024  0.00  0.00    +0.087 C 
ATOM      3  N   UNL     1     -12.818  12.309  70.652  0.00  0.00    -0.219 NA
ATOM      4  C   UNL     1     -12.521  11.011  71.136  0.00  0.00    +0.089 C 
ATOM      5  C   UNL     1     -11.562  10.195  70.376  0.00  0.00    +0.019 C 
ATOM      6  C   UNL     1     -11.152  10.694  69.041  0.00  0.00    +0.003 C 
ATOM      7  C   UNL     1     -11.705  12.031  68.653  0.00  0.00    +0.018 C 
ENDBRANCH   1   2
BRANCH   1   8
ATOM      8  C   UNL     1     -12.575  14.954  70.785  0.00  0.00    -0.011 A 
ATOM      9  C   UNL     1     -13.866  15.215  71.181  0.00  0.00    -0.004 A 
ATOM     10  C   UNL     1     -14.123  15.576  72.498  0.00  0.00    -0.000 A 
ATOM     11  C   UNL     1     -13.061  15.468  73.377  0.00  0.00    -0.000 A 
ATOM     12  C   UNL     1     -11.766  15.579  72.887  0.00  0.00    -0.000 A 
ATOM     13  C   UNL     1     -11.513  15.184  71.575  0.00  0.00    -0.004 A 
ENDBRANCH   1   8
BRANCH   1  14
ATOM     14  C   UNL     1     -11.069  15.086  69.010  0.00  0.00    +0.322 C 
ATOM     15  O   UNL     1     -10.443  14.670  67.983  0.00  0.00    -0.250 OA
BRANCH  14  17
ATOM     16  C   UNL     1     -10.721  17.326  68.262  0.00  0.00    +0.256 C 
ATOM     17  O   UNL     1     -11.464  16.423  68.822  0.00  0.00    -0.444 OA
ENDBRANCH  14  17
ENDBRANCH   1  14
TORSDOF 4
ENDMDL
MODEL 6
REMARK VINA RESULT:      -5.3      2.966      4.590
REMARK  Name = 
REMARK  4 active torsions:
REMARK  status: ('A' for Active; 'I' for Inactive)
REMARK    1  A    between atoms: O_2  and  C_3
REMARK    2  A    between atoms: C_3  and  C_5
REMARK    3  A    between atoms: C_5  and  C_6
REMARK    4  A    between atoms: C_5  and  C_12
REMARK                            x       y       z     vdW  Elec       q    Type
REMARK                         _______ _______ _______ _____ _____    ______ ____
ROOT
ATOM      1  C   UNL     1     -10.805  14.703  69.282  0.00  0.00    +0.137 C 
ENDROOT
BRANCH   1   2
ATOM      2  C   UNL     1     -12.422  14.643  69.880  0.00  0.00    +0.087 C 
ATOM      3  N   UNL     1     -12.095  13.364  70.726  0.00  0.00    -0.219 NA
ATOM      4  C   UNL     1     -13.194  13.110  71.583  0.00  0.00    +0.089 C 
ATOM      5  C   UNL     1     -13.916  14.265  72.138  0.00  0.00    +0.019 C 
ATOM      6  C   UNL     1     -13.305  15.603  71.950  0.00  0.00    +0.003 C 
ATOM      7  C   UNL     1     -12.050  15.632  71.132  0.00  0.00    +0.018 C 
ENDBRANCH   1   2
BRANCH   1   8
ATOM      8  C   UNL     1     -11.043  13.536  68.212  0.00  0.00    -0.011 A 
ATOM      9  C   UNL     1     -12.022  13.752  67.271  0.00  0.00    -0.004 A 
ATOM     10  C   UNL     1     -12.099  12.925  66.156  0.00  0.00    -0.000 A 
ATOM     11  C   UNL     1     -11.052  12.041  65.980  0.00  0.00    -0.000 A 
ATOM     12  C   UNL     1     -10.340  11.609  67.092  0.00  0.00    -0.000 A 
ATOM     13  C   UNL     1     -10.241  12.458  68.192  0.00  0.00    -0.004 A 
ENDBRANCH   1   8
BRANCH   1  14
ATOM     14  C   UNL     1     -11.119  15.867  68.212  0.00  0.00    +0.322 C 
ATOM     15  O   UNL     1     -11.245  17.025  68.724  0.00  0.00    -0.250 OA
BRANCH  14  17
ATOM     16  C   UNL     1     -10.017  16.673  66.254  0.00  0.00    +0.256 C 
ATOM     17  O   UNL     1     -10.074  15.869  67.270  0.00  0.00    -0.444 OA
ENDBRANCH  14  17
ENDBRANCH   1  14
TORSDOF 4
ENDMDL
MODEL 7
REMARK VINA RESULT:      -5.3      2.621      4.244
REMARK  Name = 
REMARK  4 active torsions:
REMARK  status: ('A' for Active; 'I' for Inactive)
REMARK    1  A    between atoms: O_2  and  C_3
REMARK    2  A    between atoms: C_3  and  C_5
REMARK    3  A    between atoms: C_5  and  C_6
REMARK    4  A    between atoms: C_5  and  C_12
REMARK                            x       y       z     vdW  Elec       q    Type
REMARK                         _______ _______ _______ _____ _____    ______ ____
ROOT
ATOM      1  C   UNL     1     -12.016  13.587  67.071  0.00  0.00    +0.137 C 
ENDROOT
BRANCH   1   2
ATOM      2  C   UNL     1     -10.612  14.569  66.875  0.00  0.00    +0.087 C 
ATOM      3  N   UNL     1     -11.266  15.317  65.662  0.00  0.00    -0.219 NA
ATOM      4  C   UNL     1     -10.444  16.423  65.332  0.00  0.00    +0.089 C 
ATOM      5  C   UNL     1      -9.768  17.131  66.430  0.00  0.00    +0.019 C 
ATOM      6  C   UNL     1     -10.175  16.785  67.814  0.00  0.00    +0.003 C 
ATOM      7  C   UNL     1     -11.180  15.681  67.936  0.00  0.00    +0.018 C 
ENDBRANCH   1   2
BRANCH   1   8
ATOM      8  C   UNL     1     -11.640  12.617  65.853  0.00  0.00    -0.011 A 
ATOM      9  C   UNL     1     -12.535  12.559  64.811  0.00  0.00    -0.004 A 
ATOM     10  C   UNL     1     -12.156  11.968  63.611  0.00  0.00    -0.000 A 
ATOM     11  C   UNL     1     -10.820  11.636  63.491  0.00  0.00    -0.000 A 
ATOM     12  C   UNL     1     -10.087  11.362  64.638  0.00  0.00    -0.000 A 
ATOM     13  C   UNL     1     -10.454  11.985  65.829  0.00  0.00    -0.004 A 
ENDBRANCH   1   8
BRANCH   1  14
ATOM     14  C   UNL     1     -11.333  12.621  68.165  0.00  0.00    +0.322 C 
ATOM     15  O   UNL     1     -11.247  13.131  69.327  0.00  0.00    -0.250 OA
BRANCH  14  17
ATOM     16  C   UNL     1     -12.090  10.619  69.223  0.00  0.00    +0.256 C 
ATOM     17  O   UNL     1     -12.089  11.436  68.215  0.00  0.00    -0.444 OA
ENDBRANCH  14  17
ENDBRANCH   1  14
TORSDOF 4
ENDMDL
MODEL 8
REMARK VINA RESULT:      -5.2      1.972      3.081
REMARK  Name = 
REMARK  4 active torsions:
REMARK  status: ('A' for Active; 'I' for Inactive)
REMARK    1  A    between atoms: O_2  and  C_3
REMARK    2  A    between atoms: C_3  and  C_5
REMARK    3  A    between atoms: C_5  and  C_6
REMARK    4  A    between atoms: C_5  and  C_12
REMARK                            x       y       z     vdW  Elec       q    Type
REMARK                         _______ _______ _______ _____ _____    ______ ____
ROOT
ATOM      1  C   UNL     1     -10.820  13.477  65.330  0.00  0.00    +0.137 C 
ENDROOT
BRANCH   1   2
ATOM      2  C   UNL     1     -10.736  14.717  66.526  0.00  0.00    +0.087 C 
ATOM      3  N   UNL     1      -9.227  14.392  66.802  0.00  0.00    -0.219 NA
ATOM      4  C   UNL     1      -8.703  15.410  67.638  0.00  0.00    +0.089 C 
ATOM      5  C   UNL     1      -9.197  16.782  67.445  0.00  0.00    +0.019 C 
ATOM      6  C   UNL     1     -10.028  17.042  66.245  0.00  0.00    +0.003 C 
ATOM      7  C   UNL     1     -10.343  15.844  65.403  0.00  0.00    +0.018 C 
ENDBRANCH   1   2
BRANCH   1   8
ATOM      8  C   UNL     1     -11.063  12.312  66.401  0.00  0.00    -0.011 A 
ATOM      9  C   UNL     1     -10.365  11.142  66.209  0.00  0.00    -0.004 A 
ATOM     10  C   UNL     1     -10.306  10.201  67.229  0.00  0.00    -0.000 A 
ATOM     11  C   UNL     1     -10.812  10.596  68.453  0.00  0.00    -0.000 A 
ATOM     12  C   UNL     1     -11.802  11.570  68.490  0.00  0.00    -0.000 A 
ATOM     13  C   UNL     1     -11.833  12.529  67.481  0.00  0.00    -0.004 A 
ENDBRANCH   1   8
BRANCH   1  14
ATOM     14  C   UNL     1     -12.397  13.679  65.063  0.00  0.00    +0.322 C 
ATOM     15  O   UNL     1     -12.670  14.588  64.217  0.00  0.00    -0.250 OA
BRANCH  14  17
ATOM     16  C   UNL     1     -12.720  11.958  63.440  0.00  0.00    +0.256 C 
ATOM     17  O   UNL     1     -12.914  12.445  64.627  0.00  0.00    -0.444 OA
ENDBRANCH  14  17
ENDBRANCH   1  14
TORSDOF 4
ENDMDL
MODEL 9
REMARK VINA RESULT:      -5.1      2.703      5.311
REMARK  Name = 
REMARK  4 active torsions:
REMARK  status: ('A' for Active; 'I' for Inactive)
REMARK    1  A    between atoms: O_2  and  C_3
REMARK    2  A    between atoms: C_3  and  C_5
REMARK    3  A    between atoms: C_5  and  C_6
REMARK    4  A    between atoms: C_5  and  C_12
REMARK                            x       y       z     vdW  Elec       q    Type
REMARK                         _______ _______ _______ _____ _____    ______ ____
ROOT
ATOM      1  C   UNL     1     -10.487  14.938  68.648  0.00  0.00    +0.137 C 
ENDROOT
BRANCH   1   2
ATOM      2  C   UNL     1     -11.294  15.014  67.126  0.00  0.00    +0.087 C 
ATOM      3  N   UNL     1      -9.963  14.673  66.369  0.00  0.00    -0.219 NA
ATOM      4  C   UNL     1     -10.281  14.423  65.011  0.00  0.00    +0.089 C 
ATOM      5  C   UNL     1     -11.556  13.754  64.714  0.00  0.00    +0.019 C 
ATOM      6  C   UNL     1     -12.307  13.184  65.858  0.00  0.00    +0.003 C 
ATOM      7  C   UNL     1     -11.713  13.433  67.211  0.00  0.00    +0.018 C 
ENDBRANCH   1   2
BRANCH   1   8
ATOM      8  C   UNL     1      -9.906  16.426  68.538  0.00  0.00    -0.011 A 
ATOM      9  C   UNL     1      -8.559  16.581  68.765  0.00  0.00    -0.004 A 
ATOM     10  C   UNL     1      -7.936  17.774  68.420  0.00  0.00    -0.000 A 
ATOM     11  C   UNL     1      -8.696  18.669  67.692  0.00  0.00    -0.000 A 
ATOM     12  C   UNL     1     -10.078  18.645  67.824  0.00  0.00    -0.000 A 
ATOM     13  C   UNL     1     -10.697  17.436  68.138  0.00  0.00    -0.004 A 
ENDBRANCH   1   8
BRANCH   1  14
ATOM     14  C   UNL     1     -11.778  15.411  69.489  0.00  0.00    +0.322 C 
ATOM     15  O   UNL     1     -12.544  14.460  69.846  0.00  0.00    -0.250 OA
BRANCH  14  17
ATOM     16  C   UNL     1     -11.889  16.060  71.783  0.00  0.00    +0.256 C 
ATOM     17  O   UNL     1     -11.315  16.106  70.621  0.00  0.00    -0.444 OA
ENDBRANCH  14  17
ENDBRANCH   1  14
TORSDOF 4
ENDMDL
