MODEL 1
REMARK VINA RESULT:      -7.4      0.000      0.000
REMARK  Name = 
REMARK  8 active torsions:
REMARK  status: ('A' for Active; 'I' for Inactive)
REMARK    1  A    between atoms: C_2  and  C_3
REMARK    2  A    between atoms: C_3  and  N_4
REMARK    3  A    between atoms: N_4  and  C_5
REMARK    4  A    between atoms: C_5  and  C_6
REMARK    5  A    between atoms: N_14  and  C_15
REMARK    6  A    between atoms: N_14  and  C_18
REMARK    7  A    between atoms: C_15  and  C_16
REMARK    8  A    between atoms: C_18  and  C_19
REMARK                            x       y       z     vdW  Elec       q    Type
REMARK                         _______ _______ _______ _____ _____    ______ ____
ROOT
ATOM      1  N   UNL     1     -11.714  13.756  65.707  0.00  0.00    -0.273 N 
ATOM      2  C   UNL     1     -11.242  13.377  67.006  0.00  0.00    +0.222 A 
ATOM      3  N   UNL     1     -11.953  13.720  68.107  0.00  0.00    -0.197 NA
ATOM      4  C   UNL     1     -11.902  12.991  69.249  0.00  0.00    +0.154 A 
ATOM      5  N   UNL     1     -12.158  13.572  70.533  0.00  0.00    -0.292 N 
ATOM      6  C   UNL     1     -13.321  13.220  71.298  0.00  0.00    +0.092 C 
ATOM      7  C   UNL     1     -13.422  14.069  72.528  0.00  0.00    +0.022 C 
ATOM      8  C   UNL     1     -13.263  15.538  72.272  0.00  0.00    +0.004 C 
ATOM      9  C   UNL     1     -12.314  15.859  71.152  0.00  0.00    +0.022 C 
ATOM     10  C   UNL     1     -11.340  14.705  70.941  0.00  0.00    +0.092 C 
ATOM     11  C   UNL     1     -11.084  11.867  69.185  0.00  0.00    +0.136 A 
ATOM     12  N   UNL     1     -11.143  10.957  70.168  0.00  0.00    -0.209 NA
ATOM     13  C   UNL     1     -10.307   9.893  70.085  0.00  0.00    +0.222 A 
ATOM     14  N   UNL     1      -9.137  10.049  69.417  0.00  0.00    -0.197 NA
ATOM     15  C   UNL     1      -9.042  10.880  68.350  0.00  0.00    +0.154 A 
ATOM     16  N   UNL     1      -7.751  11.246  67.849  0.00  0.00    -0.292 N 
ATOM     17  C   UNL     1      -6.777  10.200  67.540  0.00  0.00    +0.092 C 
ATOM     18  C   UNL     1      -5.398  10.575  68.072  0.00  0.00    +0.022 C 
ATOM     19  C   UNL     1      -5.493  11.215  69.432  0.00  0.00    +0.004 C 
ATOM     20  C   UNL     1      -6.308  12.503  69.396  0.00  0.00    +0.022 C 
ATOM     21  C   UNL     1      -7.157  12.549  68.132  0.00  0.00    +0.092 C 
ATOM     22  N   UNL     1     -10.591   8.655  70.746  0.00  0.00    -0.273 N 
ATOM     23  C   UNL     1     -10.135  11.724  68.179  0.00  0.00    +0.136 A 
ATOM     24  N   UNL     1     -10.141  12.598  67.155  0.00  0.00    -0.209 NA
ENDROOT
BRANCH   1  25
ATOM     25  C   UNL     1     -12.581  12.775  65.056  0.00  0.00    +0.129 C 
BRANCH  25  27
ATOM     26  O   UNL     1     -11.294  11.339  63.611  0.00  0.00    -0.219 OA
ATOM     27  C   UNL     1     -12.067  12.488  63.651  0.00  0.00    +0.203 C 
ENDBRANCH  25  27
ENDBRANCH   1  25
BRANCH  22  28
ATOM     28  C   UNL     1     -11.527   7.683  70.218  0.00  0.00    +0.129 C 
BRANCH  28  29
ATOM     29  C   UNL     1     -10.828   6.699  69.313  0.00  0.00    +0.203 C 
ATOM     30  O   UNL     1     -10.740   5.425  69.897  0.00  0.00    -0.219 OA
ENDBRANCH  28  29
ENDBRANCH  22  28
BRANCH   1  31
ATOM     31  C   UNL     1     -10.890  14.547  64.799  0.00  0.00    +0.129 C 
BRANCH  31  32
ATOM     32  C   UNL     1     -10.824  15.994  65.270  0.00  0.00    +0.203 C 
ATOM     33  O   UNL     1     -11.260  16.826  64.252  0.00  0.00    -0.219 OA
ENDBRANCH  31  32
ENDBRANCH   1  31
BRANCH  22  34
ATOM     34  C   UNL     1     -10.044   8.459  72.082  0.00  0.00    +0.129 C 
BRANCH  34  35
ATOM     35  C   UNL     1     -11.003   7.628  72.893  0.00  0.00    +0.203 C 
ATOM     36  O   UNL     1     -10.389   6.980  73.959  0.00  0.00    -0.219 OA
ENDBRANCH  34  35
ENDBRANCH  22  34
TORSDOF 8
ENDMDL
MODEL 2
REMARK VINA RESULT:      -7.2      2.983      5.814
REMARK  Name = 
REMARK  8 active torsions:
REMARK  status: ('A' for Active; 'I' for Inactive)
REMARK    1  A    between atoms: C_2  and  C_3
REMARK    2  A    between atoms: C_3  and  N_4
REMARK    3  A    between atoms: N_4  and  C_5
REMARK    4  A    between atoms: C_5  and  C_6
REMARK    5  A    between atoms: N_14  and  C_15
REMARK    6  A    between atoms: N_14  and  C_18
REMARK    7  A    between atoms: C_15  and  C_16
REMARK    8  A    between atoms: C_18  and  C_19
REMARK                            x       y       z     vdW  Elec       q    Type
REMARK                         _______ _______ _______ _____ _____    ______ ____
ROOT
ATOM      1  N   UNL     1     -11.356  12.285  65.113  0.00  0.00    -0.273 N 
ATOM      2  C   UNL     1     -10.932  12.496  66.467  0.00  0.00    +0.222 A 
ATOM      3  N   UNL     1     -10.031  13.469  66.745  0.00  0.00    -0.197 NA
ATOM      4  C   UNL     1      -9.988  14.078  67.955  0.00  0.00    +0.154 A 
ATOM      5  N   UNL     1      -8.785  14.663  68.469  0.00  0.00    -0.292 N 
ATOM      6  C   UNL     1      -8.651  16.084  68.633  0.00  0.00    +0.092 C 
ATOM      7  C   UNL     1      -7.257  16.439  69.049  0.00  0.00    +0.022 C 
ATOM      8  C   UNL     1      -6.188  15.804  68.210  0.00  0.00    +0.004 C 
ATOM      9  C   UNL     1      -6.549  14.436  67.702  0.00  0.00    +0.022 C 
ATOM     10  C   UNL     1      -7.615  13.808  68.595  0.00  0.00    +0.092 C 
ATOM     11  C   UNL     1     -10.946  13.639  68.864  0.00  0.00    +0.136 A 
ATOM     12  N   UNL     1     -11.142  14.330  69.996  0.00  0.00    -0.209 NA
ATOM     13  C   UNL     1     -12.061  13.849  70.869  0.00  0.00    +0.222 A 
ATOM     14  N   UNL     1     -12.303  12.515  70.875  0.00  0.00    -0.197 NA
ATOM     15  C   UNL     1     -12.219  11.780  69.739  0.00  0.00    +0.154 A 
ATOM     16  N   UNL     1     -12.191  10.350  69.820  0.00  0.00    -0.292 N 
ATOM     17  C   UNL     1     -13.222   9.653  70.588  0.00  0.00    +0.092 C 
ATOM     18  C   UNL     1     -12.603   8.559  71.452  0.00  0.00    +0.022 C 
ATOM     19  C   UNL     1     -11.308   9.018  72.067  0.00  0.00    +0.004 C 
ATOM     20  C   UNL     1     -10.270   9.371  71.008  0.00  0.00    +0.022 C 
ATOM     21  C   UNL     1     -10.952   9.594  69.663  0.00  0.00    +0.092 C 
ATOM     22  N   UNL     1     -12.712  14.696  71.824  0.00  0.00    -0.273 N 
ATOM     23  C   UNL     1     -11.626  12.441  68.668  0.00  0.00    +0.136 A 
ATOM     24  N   UNL     1     -11.484  11.801  67.493  0.00  0.00    -0.209 NA
ENDROOT
BRANCH   1  25
ATOM     25  C   UNL     1     -12.539  13.046  64.713  0.00  0.00    +0.129 C 
BRANCH  25  27
ATOM     26  O   UNL     1     -12.692  15.285  63.835  0.00  0.00    -0.219 OA
ATOM     27  C   UNL     1     -12.289  14.534  64.928  0.00  0.00    +0.203 C 
ENDBRANCH  25  27
ENDBRANCH   1  25
BRANCH  22  28
ATOM     28  C   UNL     1     -13.818  15.564  71.474  0.00  0.00    +0.129 C 
BRANCH  28  29
ATOM     29  C   UNL     1     -15.129  14.818  71.539  0.00  0.00    +0.203 C 
ATOM     30  O   UNL     1     -16.205  15.619  71.127  0.00  0.00    -0.219 OA
ENDBRANCH  28  29
ENDBRANCH  22  28
BRANCH   1  31
ATOM     31  C   UNL     1     -11.210  10.987  64.464  0.00  0.00    +0.129 C 
BRANCH  31  32
ATOM     32  C   UNL     1      -9.773  10.784  64.004  0.00  0.00    +0.203 C 
ATOM     33  O   UNL     1      -9.517  11.617  62.927  0.00  0.00    -0.219 OA
ENDBRANCH  31  32
ENDBRANCH   1  31
BRANCH  22  34
ATOM     34  C   UNL     1     -12.116  14.807  73.148  0.00  0.00    +0.129 C 
BRANCH  34  35
ATOM     35  C   UNL     1     -12.474  16.143  73.742  0.00  0.00    +0.203 C 
ATOM     36  O   UNL     1     -12.487  16.130  75.133  0.00  0.00    -0.219 OA
ENDBRANCH  34  35
ENDBRANCH  22  34
TORSDOF 8
ENDMDL
MODEL 3
REMARK VINA RESULT:      -6.8      2.874      4.401
REMARK  Name = 
REMARK  8 active torsions:
REMARK  status: ('A' for Active; 'I' for Inactive)
REMARK    1  A    between atoms: C_2  and  C_3
REMARK    2  A    between atoms: C_3  and  N_4
REMARK    3  A    between atoms: N_4  and  C_5
REMARK    4  A    between atoms: C_5  and  C_6
REMARK    5  A    between atoms: N_14  and  C_15
REMARK    6  A    between atoms: N_14  and  C_18
REMARK    7  A    between atoms: C_15  and  C_16
REMARK    8  A    between atoms: C_18  and  C_19
REMARK                            x       y       z     vdW  Elec       q    Type
REMARK                         _______ _______ _______ _____ _____    ______ ____
ROOT
ATOM      1  N   UNL     1      -9.863  18.725  68.122  0.00  0.00    -0.273 N 
ATOM      2  C   UNL     1      -9.859  17.417  68.708  0.00  0.00    +0.222 A 
ATOM      3  N   UNL     1     -10.917  17.009  69.450  0.00  0.00    -0.197 NA
ATOM      4  C   UNL     1     -11.243  15.700  69.572  0.00  0.00    +0.154 A 
ATOM      5  N   UNL     1     -11.944  15.194  70.715  0.00  0.00    -0.292 N 
ATOM      6  C   UNL     1     -13.290  14.704  70.615  0.00  0.00    +0.092 C 
ATOM      7  C   UNL     1     -13.833  14.370  71.970  0.00  0.00    +0.022 C 
ATOM      8  C   UNL     1     -13.637  15.451  72.992  0.00  0.00    +0.004 C 
ATOM      9  C   UNL     1     -12.368  16.235  72.807  0.00  0.00    +0.022 C 
ATOM     10  C   UNL     1     -11.350  15.411  72.026  0.00  0.00    +0.092 C 
ATOM     11  C   UNL     1     -10.424  14.826  68.864  0.00  0.00    +0.136 A 
ATOM     12  N   UNL     1     -10.794  13.545  68.726  0.00  0.00    -0.209 NA
ATOM     13  C   UNL     1      -9.952  12.720  68.057  0.00  0.00    +0.222 A 
ATOM     14  N   UNL     1      -8.628  13.014  68.064  0.00  0.00    -0.197 NA
ATOM     15  C   UNL     1      -8.193  14.298  68.100  0.00  0.00    +0.154 A 
ATOM     16  N   UNL     1      -6.818  14.572  68.397  0.00  0.00    -0.292 N 
ATOM     17  C   UNL     1      -5.769  13.889  67.642  0.00  0.00    +0.092 C 
ATOM     18  C   UNL     1      -4.670  13.392  68.576  0.00  0.00    +0.022 C 
ATOM     19  C   UNL     1      -5.248  12.830  69.848  0.00  0.00    +0.004 C 
ATOM     20  C   UNL     1      -6.035  13.878  70.626  0.00  0.00    +0.022 C 
ATOM     21  C   UNL     1      -6.395  15.044  69.713  0.00  0.00    +0.092 C 
ATOM     22  N   UNL     1     -10.413  11.522  67.422  0.00  0.00    -0.273 N 
ATOM     23  C   UNL     1      -9.181  15.233  68.388  0.00  0.00    +0.136 A 
ATOM     24  N   UNL     1      -8.857  16.537  68.458  0.00  0.00    -0.209 NA
ENDROOT
BRANCH   1  25
ATOM     25  C   UNL     1     -10.424  18.795  66.774  0.00  0.00    +0.129 C 
BRANCH  25  27
ATOM     26  O   UNL     1     -10.942  17.412  64.868  0.00  0.00    -0.219 OA
ATOM     27  C   UNL     1     -10.297  17.436  66.094  0.00  0.00    +0.203 C 
ENDBRANCH  25  27
ENDBRANCH   1  25
BRANCH  22  28
ATOM     28  C   UNL     1     -11.081  11.525  66.136  0.00  0.00    +0.129 C 
BRANCH  28  29
ATOM     29  C   UNL     1     -11.993  12.720  66.007  0.00  0.00    +0.203 C 
ATOM     30  O   UNL     1     -12.936  12.549  64.981  0.00  0.00    -0.219 OA
ENDBRANCH  28  29
ENDBRANCH  22  28
BRANCH   1  31
ATOM     31  C   UNL     1      -8.798  19.684  68.396  0.00  0.00    +0.129 C 
BRANCH  31  32
ATOM     32  C   UNL     1      -7.993  19.955  67.132  0.00  0.00    +0.203 C 
ATOM     33  O   UNL     1      -7.319  21.157  67.268  0.00  0.00    -0.219 OA
ENDBRANCH  31  32
ENDBRANCH   1  31
BRANCH  22  34
ATOM     34  C   UNL     1     -10.357  10.284  68.188  0.00  0.00    +0.129 C 
BRANCH  34  35
ATOM     35  C   UNL     1     -11.480  10.272  69.191  0.00  0.00    +0.203 C 
ATOM     36  O   UNL     1     -11.031  10.290  70.506  0.00  0.00    -0.219 OA
ENDBRANCH  34  35
ENDBRANCH  22  34
TORSDOF 8
ENDMDL
MODEL 4
REMARK VINA RESULT:      -6.3      4.177      7.633
REMARK  Name = 
REMARK  8 active torsions:
REMARK  status: ('A' for Active; 'I' for Inactive)
REMARK    1  A    between atoms: C_2  and  C_3
REMARK    2  A    between atoms: C_3  and  N_4
REMARK    3  A    between atoms: N_4  and  C_5
REMARK    4  A    between atoms: C_5  and  C_6
REMARK    5  A    between atoms: N_14  and  C_15
REMARK    6  A    between atoms: N_14  and  C_18
REMARK    7  A    between atoms: C_15  and  C_16
REMARK    8  A    between atoms: C_18  and  C_19
REMARK                            x       y       z     vdW  Elec       q    Type
REMARK                         _______ _______ _______ _____ _____    ______ ____
ROOT
ATOM      1  N   UNL     1      -5.259  14.452  68.581  0.00  0.00    -0.273 N 
ATOM      2  C   UNL     1      -6.668  14.530  68.328  0.00  0.00    +0.222 A 
ATOM      3  N   UNL     1      -7.369  13.398  68.075  0.00  0.00    -0.197 NA
ATOM      4  C   UNL     1      -8.691  13.298  68.356  0.00  0.00    +0.154 A 
ATOM      5  N   UNL     1      -9.554  12.405  67.641  0.00  0.00    -0.292 N 
ATOM      6  C   UNL     1     -10.141  11.258  68.276  0.00  0.00    +0.092 C 
ATOM      7  C   UNL     1     -10.880  10.421  67.278  0.00  0.00    +0.022 C 
ATOM      8  C   UNL     1     -10.095  10.114  66.037  0.00  0.00    +0.004 C 
ATOM      9  C   UNL     1      -9.159  11.216  65.624  0.00  0.00    +0.022 C 
ATOM     10  C   UNL     1      -9.631  12.549  66.195  0.00  0.00    +0.092 C 
ATOM     11  C   UNL     1      -9.252  14.432  68.935  0.00  0.00    +0.136 A 
ATOM     12  N   UNL     1     -10.482  14.359  69.463  0.00  0.00    -0.209 NA
ATOM     13  C   UNL     1     -11.004  15.495  69.987  0.00  0.00    +0.222 A 
ATOM     14  N   UNL     1     -10.583  16.684  69.488  0.00  0.00    -0.197 NA
ATOM     15  C   UNL     1      -9.316  16.846  69.033  0.00  0.00    +0.154 A 
ATOM     16  N   UNL     1      -8.985  18.002  68.255  0.00  0.00    -0.292 N 
ATOM     17  C   UNL     1      -9.327  19.331  68.761  0.00  0.00    +0.092 C 
ATOM     18  C   UNL     1      -9.933  20.189  67.655  0.00  0.00    +0.022 C 
ATOM     19  C   UNL     1     -10.872  19.385  66.794  0.00  0.00    +0.004 C 
ATOM     20  C   UNL     1     -10.159  18.229  66.103  0.00  0.00    +0.022 C 
ATOM     21  C   UNL     1      -8.838  17.937  66.804  0.00  0.00    +0.092 C 
ATOM     22  N   UNL     1     -12.033  15.464  70.984  0.00  0.00    -0.273 N 
ATOM     23  C   UNL     1      -8.603  15.661  68.882  0.00  0.00    +0.136 A 
ATOM     24  N   UNL     1      -7.337  15.706  68.426  0.00  0.00    -0.209 NA
ENDROOT
BRANCH   1  25
ATOM     25  C   UNL     1      -4.894  14.298  69.988  0.00  0.00    +0.129 C 
BRANCH  25  27
ATOM     26  O   UNL     1      -4.781  15.798  71.871  0.00  0.00    -0.219 OA
ATOM     27  C   UNL     1      -4.418  15.635  70.544  0.00  0.00    +0.203 C 
ENDBRANCH  25  27
ENDBRANCH   1  25
BRANCH  22  28
ATOM     28  C   UNL     1     -11.759  15.203  72.383  0.00  0.00    +0.129 C 
BRANCH  28  29
ATOM     29  C   UNL     1     -12.040  16.424  73.223  0.00  0.00    +0.203 C 
ATOM     30  O   UNL     1     -12.707  16.096  74.414  0.00  0.00    -0.219 OA
ENDBRANCH  28  29
ENDBRANCH  22  28
BRANCH   1  31
ATOM     31  C   UNL     1      -4.300  15.199  67.774  0.00  0.00    +0.129 C 
BRANCH  31  32
ATOM     32  C   UNL     1      -3.155  14.293  67.341  0.00  0.00    +0.203 C 
ATOM     33  O   UNL     1      -3.673  13.120  66.816  0.00  0.00    -0.219 OA
ENDBRANCH  31  32
ENDBRANCH   1  31
BRANCH  22  34
ATOM     34  C   UNL     1     -13.416  15.526  70.532  0.00  0.00    +0.129 C 
BRANCH  34  35
ATOM     35  C   UNL     1     -14.271  14.680  71.437  0.00  0.00    +0.203 C 
ATOM     36  O   UNL     1     -15.625  14.982  71.339  0.00  0.00    -0.219 OA
ENDBRANCH  34  35
ENDBRANCH  22  34
TORSDOF 8
ENDMDL
MODEL 5
REMARK VINA RESULT:      -6.2      3.312      6.419
REMARK  Name = 
REMARK  8 active torsions:
REMARK  status: ('A' for Active; 'I' for Inactive)
REMARK    1  A    between atoms: C_2  and  C_3
REMARK    2  A    between atoms: C_3  and  N_4
REMARK    3  A    between atoms: N_4  and  C_5
REMARK    4  A    between atoms: C_5  and  C_6
REMARK    5  A    between atoms: N_14  and  C_15
REMARK    6  A    between atoms: N_14  and  C_18
REMARK    7  A    between atoms: C_15  and  C_16
REMARK    8  A    between atoms: C_18  and  C_19
REMARK                            x       y       z     vdW  Elec       q    Type
REMARK                         _______ _______ _______ _____ _____    ______ ____
ROOT
ATOM      1  N   UNL     1      -8.181  18.616  67.287  0.00  0.00    -0.273 N 
ATOM      2  C   UNL     1      -8.341  17.200  67.444  0.00  0.00    +0.222 A 
ATOM      3  N   UNL     1      -7.493  16.513  68.247  0.00  0.00    -0.197 NA
ATOM      4  C   UNL     1      -7.863  15.363  68.862  0.00  0.00    +0.154 A 
ATOM      5  N   UNL     1      -6.911  14.359  69.234  0.00  0.00    -0.292 N 
ATOM      6  C   UNL     1      -6.621  14.072  70.611  0.00  0.00    +0.092 C 
ATOM      7  C   UNL     1      -5.495  13.090  70.721  0.00  0.00    +0.022 C 
ATOM      8  C   UNL     1      -4.296  13.437  69.890  0.00  0.00    +0.004 C 
ATOM      9  C   UNL     1      -4.634  14.129  68.598  0.00  0.00    +0.022 C 
ATOM     10  C   UNL     1      -6.067  13.804  68.187  0.00  0.00    +0.092 C 
ATOM     11  C   UNL     1      -9.175  14.968  68.617  0.00  0.00    +0.136 A 
ATOM     12  N   UNL     1      -9.711  13.984  69.354  0.00  0.00    -0.209 NA
ATOM     13  C   UNL     1     -10.980  13.607  69.061  0.00  0.00    +0.222 A 
ATOM     14  N   UNL     1     -11.423  13.780  67.791  0.00  0.00    -0.197 NA
ATOM     15  C   UNL     1     -10.992  14.817  67.031  0.00  0.00    +0.154 A 
ATOM     16  N   UNL     1     -11.243  14.815  65.621  0.00  0.00    -0.292 N 
ATOM     17  C   UNL     1     -12.603  14.592  65.133  0.00  0.00    +0.092 C 
ATOM     18  C   UNL     1     -12.603  13.614  63.963  0.00  0.00    +0.022 C 
ATOM     19  C   UNL     1     -11.632  12.486  64.196  0.00  0.00    +0.004 C 
ATOM     20  C   UNL     1     -10.201  12.990  64.339  0.00  0.00    +0.022 C 
ATOM     21  C   UNL     1     -10.201  14.481  64.654  0.00  0.00    +0.092 C 
ATOM     22  N   UNL     1     -11.821  12.966  70.028  0.00  0.00    -0.273 N 
ATOM     23  C   UNL     1      -9.899  15.500  67.556  0.00  0.00    +0.136 A 
ATOM     24  N   UNL     1      -9.383  16.542  66.878  0.00  0.00    -0.209 NA
ENDROOT
BRANCH   1  25
ATOM     25  C   UNL     1      -8.936  19.430  68.237  0.00  0.00    +0.129 C 
BRANCH  25  27
ATOM     26  O   UNL     1     -11.200  19.367  67.411  0.00  0.00    -0.219 OA
ATOM     27  C   UNL     1     -10.064  20.154  67.511  0.00  0.00    +0.203 C 
ENDBRANCH  25  27
ENDBRANCH   1  25
BRANCH  22  28
ATOM     28  C   UNL     1     -12.511  13.697  71.072  0.00  0.00    +0.129 C 
BRANCH  28  29
ATOM     29  C   UNL     1     -12.789  15.116  70.641  0.00  0.00    +0.203 C 
ATOM     30  O   UNL     1     -13.643  15.775  71.539  0.00  0.00    -0.219 OA
ENDBRANCH  28  29
ENDBRANCH  22  28
BRANCH   1  31
ATOM     31  C   UNL     1      -7.996  19.218  65.970  0.00  0.00    +0.129 C 
BRANCH  31  32
ATOM     32  C   UNL     1      -6.513  19.358  65.657  0.00  0.00    +0.203 C 
ATOM     33  O   UNL     1      -6.236  18.716  64.461  0.00  0.00    -0.219 OA
ENDBRANCH  31  32
ENDBRANCH   1  31
BRANCH  22  34
ATOM     34  C   UNL     1     -11.831  11.509  70.056  0.00  0.00    +0.129 C 
BRANCH  34  35
ATOM     35  C   UNL     1     -12.771  11.043  71.136  0.00  0.00    +0.203 C 
ATOM     36  O   UNL     1     -12.331   9.887  71.773  0.00  0.00    -0.219 OA
ENDBRANCH  34  35
ENDBRANCH  22  34
TORSDOF 8
ENDMDL
MODEL 6
REMARK VINA RESULT:      -6.0      3.347      5.620
REMARK  Name = 
REMARK  8 active torsions:
REMARK  status: ('A' for Active; 'I' for Inactive)
REMARK    1  A    between atoms: C_2  and  C_3
REMARK    2  A    between atoms: C_3  and  N_4
REMARK    3  A    between atoms: N_4  and  C_5
REMARK    4  A    between atoms: C_5  and  C_6
REMARK    5  A    between atoms: N_14  and  C_15
REMARK    6  A    between atoms: N_14  and  C_18
REMARK    7  A    between atoms: C_15  and  C_16
REMARK    8  A    between atoms: C_18  and  C_19
REMARK                            x       y       z     vdW  Elec       q    Type
REMARK                         _______ _______ _______ _____ _____    ______ ____
ROOT
ATOM      1  N   UNL     1     -10.732  11.157  64.504  0.00  0.00    -0.273 N 
ATOM      2  C   UNL     1     -10.391  11.670  65.799  0.00  0.00    +0.222 A 
ATOM      3  N   UNL     1     -10.595  10.905  66.900  0.00  0.00    -0.197 NA
ATOM      4  C   UNL     1      -9.850  11.055  68.022  0.00  0.00    +0.154 A 
ATOM      5  N   UNL     1     -10.350  10.704  69.318  0.00  0.00    -0.292 N 
ATOM      6  C   UNL     1      -9.808   9.599  70.059  0.00  0.00    +0.092 C 
ATOM      7  C   UNL     1     -10.599   9.362  71.309  0.00  0.00    +0.022 C 
ATOM      8  C   UNL     1     -12.082   9.302  71.094  0.00  0.00    +0.004 C 
ATOM      9  C   UNL     1     -12.571  10.203  69.994  0.00  0.00    +0.022 C 
ATOM     10  C   UNL     1     -11.580  11.340  69.766  0.00  0.00    +0.092 C 
ATOM     11  C   UNL     1      -8.862  12.031  67.940  0.00  0.00    +0.136 A 
ATOM     12  N   UNL     1      -7.927  12.100  68.899  0.00  0.00    -0.209 NA
ATOM     13  C   UNL     1      -7.002  13.086  68.799  0.00  0.00    +0.222 A 
ATOM     14  N   UNL     1      -7.348  14.225  68.150  0.00  0.00    -0.197 NA
ATOM     15  C   UNL     1      -8.214  14.205  67.106  0.00  0.00    +0.154 A 
ATOM     16  N   UNL     1      -8.781  15.431  66.631  0.00  0.00    -0.292 N 
ATOM     17  C   UNL     1      -7.901  16.553  66.308  0.00  0.00    +0.092 C 
ATOM     18  C   UNL     1      -8.462  17.857  66.867  0.00  0.00    +0.022 C 
ATOM     19  C   UNL     1      -9.043  17.655  68.241  0.00  0.00    +0.004 C 
ATOM     20  C   UNL     1     -10.196  16.658  68.229  0.00  0.00    +0.022 C 
ATOM     21  C   UNL     1     -10.150  15.822  66.956  0.00  0.00    +0.092 C 
ATOM     22  N   UNL     1      -5.717  12.984  69.423  0.00  0.00    -0.273 N 
ATOM     23  C   UNL     1      -8.890  13.000  66.943  0.00  0.00    +0.136 A 
ATOM     24  N   UNL     1      -9.781  12.873  65.942  0.00  0.00    -0.209 NA
ENDROOT
BRANCH   1  25
ATOM     25  C   UNL     1      -9.651  10.452  63.818  0.00  0.00    +0.129 C 
BRANCH  25  27
ATOM     26  O   UNL     1      -8.093  10.863  62.025  0.00  0.00    -0.219 OA
ATOM     27  C   UNL     1      -9.381  11.114  62.472  0.00  0.00    +0.203 C 
ENDBRANCH  25  27
ENDBRANCH   1  25
BRANCH  22  28
ATOM     28  C   UNL     1      -4.632  12.208  68.858  0.00  0.00    +0.129 C 
BRANCH  28  29
ATOM     29  C   UNL     1      -4.140  12.827  67.573  0.00  0.00    +0.203 C 
ATOM     30  O   UNL     1      -4.541  12.086  66.450  0.00  0.00    -0.219 OA
ENDBRANCH  28  29
ENDBRANCH  22  28
BRANCH   1  31
ATOM     31  C   UNL     1     -11.662  11.862  63.628  0.00  0.00    +0.129 C 
BRANCH  31  32
ATOM     32  C   UNL     1     -12.714  12.591  64.452  0.00  0.00    +0.203 C 
ATOM     33  O   UNL     1     -12.694  13.939  64.131  0.00  0.00    -0.219 OA
ENDBRANCH  31  32
ENDBRANCH   1  31
BRANCH  22  34
ATOM     34  C   UNL     1      -5.568  13.543  70.761  0.00  0.00    +0.129 C 
BRANCH  34  35
ATOM     35  C   UNL     1      -4.823  14.848  70.672  0.00  0.00    +0.203 C 
ATOM     36  O   UNL     1      -4.409  15.320  71.912  0.00  0.00    -0.219 OA
ENDBRANCH  34  35
ENDBRANCH  22  34
TORSDOF 8
ENDMDL
MODEL 7
REMARK VINA RESULT:      -5.9      1.910      2.482
REMARK  Name = 
REMARK  8 active torsions:
REMARK  status: ('A' for Active; 'I' for Inactive)
REMARK    1  A    between atoms: C_2  and  C_3
REMARK    2  A    between atoms: C_3  and  N_4
REMARK    3  A    between atoms: N_4  and  C_5
REMARK    4  A    between atoms: C_5  and  C_6
REMARK    5  A    between atoms: N_14  and  C_15
REMARK    6  A    between atoms: N_14  and  C_18
REMARK    7  A    between atoms: C_15  and  C_16
REMARK    8  A    between atoms: C_18  and  C_19
REMARK                            x       y       z     vdW  Elec       q    Type
REMARK                         _______ _______ _______ _____ _____    ______ ____
ROOT
ATOM      1  N   UNL     1     -10.714  16.370  66.283  0.00  0.00    -0.273 N 
ATOM      2  C   UNL     1     -10.443  15.466  67.363  0.00  0.00    +0.222 A 
ATOM      3  N   UNL     1     -11.370  15.281  68.333  0.00  0.00    -0.197 NA
ATOM      4  C   UNL     1     -11.447  14.125  69.038  0.00  0.00    +0.154 A 
ATOM      5  N   UNL     1     -11.986  14.079  70.365  0.00  0.00    -0.292 N 
ATOM      6  C   UNL     1     -13.223  13.410  70.650  0.00  0.00    +0.092 C 
ATOM      7  C   UNL     1     -13.628  13.631  72.075  0.00  0.00    +0.022 C 
ATOM      8  C   UNL     1     -13.580  15.065  72.510  0.00  0.00    +0.004 C 
ATOM      9  C   UNL     1     -12.485  15.860  71.854  0.00  0.00    +0.022 C 
ATOM     10  C   UNL     1     -11.375  14.930  71.375  0.00  0.00    +0.092 C 
ATOM     11  C   UNL     1     -10.519  13.156  68.670  0.00  0.00    +0.136 A 
ATOM     12  N   UNL     1     -10.658  11.906  69.135  0.00  0.00    -0.209 NA
ATOM     13  C   UNL     1      -9.714  10.999  68.780  0.00  0.00    +0.222 A 
ATOM     14  N   UNL     1      -8.467  11.450  68.497  0.00  0.00    -0.197 NA
ATOM     15  C   UNL     1      -8.271  12.667  67.931  0.00  0.00    +0.154 A 
ATOM     16  N   UNL     1      -6.956  13.235  67.911  0.00  0.00    -0.292 N 
ATOM     17  C   UNL     1      -5.839  12.446  67.392  0.00  0.00    +0.092 C 
ATOM     18  C   UNL     1      -4.623  12.571  68.304  0.00  0.00    +0.022 C 
ATOM     19  C   UNL     1      -5.024  12.547  69.755  0.00  0.00    +0.004 C 
ATOM     20  C   UNL     1      -5.948  13.708  70.107  0.00  0.00    +0.022 C 
ATOM     21  C   UNL     1      -6.559  14.291  68.838  0.00  0.00    +0.092 C 
ATOM     22  N   UNL     1      -9.982   9.592  68.775  0.00  0.00    -0.273 N 
ATOM     23  C   UNL     1      -9.397  13.484  67.917  0.00  0.00    +0.136 A 
ATOM     24  N   UNL     1      -9.311  14.718  67.387  0.00  0.00    -0.209 NA
ENDROOT
BRANCH   1  25
ATOM     25  C   UNL     1     -11.345  15.761  65.114  0.00  0.00    +0.129 C 
BRANCH  25  27
ATOM     26  O   UNL     1     -13.161  14.182  65.252  0.00  0.00    -0.219 OA
ATOM     27  C   UNL     1     -11.800  14.347  65.455  0.00  0.00    +0.203 C 
ENDBRANCH  25  27
ENDBRANCH   1  25
BRANCH  22  28
ATOM     28  C   UNL     1     -10.704   8.937  67.703  0.00  0.00    +0.129 C 
BRANCH  28  29
ATOM     29  C   UNL     1      -9.820   8.749  66.495  0.00  0.00    +0.203 C 
ATOM     30  O   UNL     1     -10.098   9.691  65.493  0.00  0.00    -0.219 OA
ENDBRANCH  28  29
ENDBRANCH  22  28
BRANCH   1  31
ATOM     31  C   UNL     1      -9.827  17.492  65.991  0.00  0.00    +0.129 C 
BRANCH  31  32
ATOM     32  C   UNL     1      -9.728  18.416  67.197  0.00  0.00    +0.203 C 
ATOM     33  O   UNL     1     -10.967  18.989  67.437  0.00  0.00    -0.219 OA
ENDBRANCH  31  32
ENDBRANCH   1  31
BRANCH  22  34
ATOM     34  C   UNL     1      -9.663   8.838  69.980  0.00  0.00    +0.129 C 
BRANCH  34  35
ATOM     35  C   UNL     1     -10.856   8.846  70.898  0.00  0.00    +0.203 C 
ATOM     36  O   UNL     1     -11.541   7.635  70.905  0.00  0.00    -0.219 OA
ENDBRANCH  34  35
ENDBRANCH  22  34
TORSDOF 8
ENDMDL
MODEL 8
REMARK VINA RESULT:      -5.8      6.482     10.048
REMARK  Name = 
REMARK  8 active torsions:
REMARK  status: ('A' for Active; 'I' for Inactive)
REMARK    1  A    between atoms: C_2  and  C_3
REMARK    2  A    between atoms: C_3  and  N_4
REMARK    3  A    between atoms: N_4  and  C_5
REMARK    4  A    between atoms: C_5  and  C_6
REMARK    5  A    between atoms: N_14  and  C_15
REMARK    6  A    between atoms: N_14  and  C_18
REMARK    7  A    between atoms: C_15  and  C_16
REMARK    8  A    between atoms: C_18  and  C_19
REMARK                            x       y       z     vdW  Elec       q    Type
REMARK                         _______ _______ _______ _____ _____    ______ ____
ROOT
ATOM      1  N   UNL     1      -9.406  17.203  66.480  0.00  0.00    -0.273 N 
ATOM      2  C   UNL     1      -7.998  17.460  66.553  0.00  0.00    +0.222 A 
ATOM      3  N   UNL     1      -7.436  18.370  65.720  0.00  0.00    -0.197 NA
ATOM      4  C   UNL     1      -6.310  19.046  66.054  0.00  0.00    +0.154 A 
ATOM      5  N   UNL     1      -5.410  19.559  65.064  0.00  0.00    -0.292 N 
ATOM      6  C   UNL     1      -5.246  20.970  64.856  0.00  0.00    +0.092 C 
ATOM      7  C   UNL     1      -4.361  21.231  63.677  0.00  0.00    +0.022 C 
ATOM      8  C   UNL     1      -4.735  20.458  62.447  0.00  0.00    +0.004 C 
ATOM      9  C   UNL     1      -5.303  19.097  62.737  0.00  0.00    +0.022 C 
ATOM     10  C   UNL     1      -4.844  18.617  64.110  0.00  0.00    +0.092 C 
ATOM     11  C   UNL     1      -5.802  18.745  67.314  0.00  0.00    +0.136 A 
ATOM     12  N   UNL     1      -4.837  19.518  67.834  0.00  0.00    -0.209 NA
ATOM     13  C   UNL     1      -4.347  19.171  69.049  0.00  0.00    +0.222 A 
ATOM     14  N   UNL     1      -4.393  17.865  69.409  0.00  0.00    -0.197 NA
ATOM     15  C   UNL     1      -5.401  17.057  68.996  0.00  0.00    +0.154 A 
ATOM     16  N   UNL     1      -5.277  15.637  69.144  0.00  0.00    -0.292 N 
ATOM     17  C   UNL     1      -4.919  15.079  70.446  0.00  0.00    +0.092 C 
ATOM     18  C   UNL     1      -3.860  13.991  70.293  0.00  0.00    +0.022 C 
ATOM     19  C   UNL     1      -2.828  14.376  69.267  0.00  0.00    +0.004 C 
ATOM     20  C   UNL     1      -3.446  14.576  67.887  0.00  0.00    +0.022 C 
ATOM     21  C   UNL     1      -4.951  14.772  68.014  0.00  0.00    +0.092 C 
ATOM     22  N   UNL     1      -3.717  20.127  69.911  0.00  0.00    -0.273 N 
ATOM     23  C   UNL     1      -6.199  17.599  67.995  0.00  0.00    +0.136 A 
ATOM     24  N   UNL     1      -7.225  16.878  67.503  0.00  0.00    -0.209 NA
ENDROOT
BRANCH   1  25
ATOM     25  C   UNL     1     -10.230  18.034  67.356  0.00  0.00    +0.129 C 
BRANCH  25  27
ATOM     26  O   UNL     1      -9.846  20.404  67.140  0.00  0.00    -0.219 OA
ATOM     27  C   UNL     1     -10.580  19.337  66.648  0.00  0.00    +0.203 C 
ENDBRANCH  25  27
ENDBRANCH   1  25
BRANCH  22  28
ATOM     28  C   UNL     1      -4.469  21.061  70.724  0.00  0.00    +0.129 C 
BRANCH  28  29
ATOM     29  C   UNL     1      -5.356  20.331  71.702  0.00  0.00    +0.203 C 
ATOM     30  O   UNL     1      -6.712  20.433  71.353  0.00  0.00    -0.219 OA
ENDBRANCH  28  29
ENDBRANCH  22  28
BRANCH   1  31
ATOM     31  C   UNL     1      -9.923  15.859  66.242  0.00  0.00    +0.129 C 
BRANCH  31  32
ATOM     32  C   UNL     1     -11.227  15.925  65.459  0.00  0.00    +0.203 C 
ATOM     33  O   UNL     1     -11.029  16.661  64.301  0.00  0.00    -0.219 OA
ENDBRANCH  31  32
ENDBRANCH   1  31
BRANCH  22  34
ATOM     34  C   UNL     1      -2.270  20.268  69.824  0.00  0.00    +0.129 C 
BRANCH  34  35
ATOM     35  C   UNL     1      -1.939  21.620  69.251  0.00  0.00    +0.203 C 
ATOM     36  O   UNL     1      -2.077  21.670  67.868  0.00  0.00    -0.219 OA
ENDBRANCH  34  35
ENDBRANCH  22  34
TORSDOF 8
ENDMDL
MODEL 9
REMARK VINA RESULT:      -5.8      2.597      5.886
REMARK  Name = 
REMARK  8 active torsions:
REMARK  status: ('A' for Active; 'I' for Inactive)
REMARK    1  A    between atoms: C_2  and  C_3
REMARK    2  A    between atoms: C_3  and  N_4
REMARK    3  A    between atoms: N_4  and  C_5
REMARK    4  A    between atoms: C_5  and  C_6
REMARK    5  A    between atoms: N_14  and  C_15
REMARK    6  A    between atoms: N_14  and  C_18
REMARK    7  A    between atoms: C_15  and  C_16
REMARK    8  A    between atoms: C_18  and  C_19
REMARK                            x       y       z     vdW  Elec       q    Type
REMARK                         _______ _______ _______ _____ _____    ______ ____
ROOT
ATOM      1  N   UNL     1      -8.158  16.650  67.647  0.00  0.00    -0.273 N 
ATOM      2  C   UNL     1      -8.157  15.232  67.435  0.00  0.00    +0.222 A 
ATOM      3  N   UNL     1      -7.147  14.478  67.933  0.00  0.00    -0.197 NA
ATOM      4  C   UNL     1      -7.319  13.172  68.253  0.00  0.00    +0.154 A 
ATOM      5  N   UNL     1      -6.233  12.238  68.242  0.00  0.00    -0.292 N 
ATOM      6  C   UNL     1      -5.735  11.650  69.454  0.00  0.00    +0.092 C 
ATOM      7  C   UNL     1      -4.516  10.825  69.179  0.00  0.00    +0.022 C 
ATOM      8  C   UNL     1      -3.477  11.524  68.353  0.00  0.00    +0.004 C 
ATOM      9  C   UNL     1      -4.050  12.471  67.336  0.00  0.00    +0.022 C 
ATOM     10  C   UNL     1      -5.486  12.080  67.003  0.00  0.00    +0.092 C 
ATOM     11  C   UNL     1      -8.607  12.687  68.048  0.00  0.00    +0.136 A 
ATOM     12  N   UNL     1      -8.943  11.488  68.545  0.00  0.00    -0.209 NA
ATOM     13  C   UNL     1     -10.197  11.038  68.295  0.00  0.00    +0.222 A 
ATOM     14  N   UNL     1     -10.820  11.470  67.171  0.00  0.00    -0.197 NA
ATOM     15  C   UNL     1     -10.596  12.712  66.676  0.00  0.00    +0.154 A 
ATOM     16  N   UNL     1     -11.032  13.036  65.350  0.00  0.00    -0.292 N 
ATOM     17  C   UNL     1     -12.418  12.772  64.964  0.00  0.00    +0.092 C 
ATOM     18  C   UNL     1     -12.478  12.131  63.581  0.00  0.00    +0.022 C 
ATOM     19  C   UNL     1     -11.381  11.115  63.402  0.00  0.00    +0.004 C 
ATOM     20  C   UNL     1      -9.998  11.746  63.526  0.00  0.00    +0.022 C 
ATOM     21  C   UNL     1     -10.101  13.095  64.227  0.00  0.00    +0.092 C 
ATOM     22  N   UNL     1     -10.835  10.070  69.137  0.00  0.00    -0.273 N 
ATOM     23  C   UNL     1      -9.515  13.374  67.249  0.00  0.00    +0.136 A 
ATOM     24  N   UNL     1      -9.197  14.611  66.824  0.00  0.00    -0.209 NA
ENDROOT
BRANCH   1  25
ATOM     25  C   UNL     1      -8.854  17.092  68.853  0.00  0.00    +0.129 C 
BRANCH  25  27
ATOM     26  O   UNL     1     -11.258  16.977  68.710  0.00  0.00    -0.219 OA
ATOM     27  C   UNL     1     -10.157  17.784  68.469  0.00  0.00    +0.203 C 
ENDBRANCH  25  27
ENDBRANCH   1  25
BRANCH  22  28
ATOM     28  C   UNL     1     -11.447  10.417  70.403  0.00  0.00    +0.129 C 
BRANCH  28  29
ATOM     29  C   UNL     1     -12.140  11.754  70.318  0.00  0.00    +0.203 C 
ATOM     30  O   UNL     1     -12.914  12.014  71.459  0.00  0.00    -0.219 OA
ENDBRANCH  28  29
ENDBRANCH  22  28
BRANCH   1  31
ATOM     31  C   UNL     1      -8.210  17.585  66.528  0.00  0.00    +0.129 C 
BRANCH  31  32
ATOM     32  C   UNL     1      -6.803  17.908  66.044  0.00  0.00    +0.203 C 
ATOM     33  O   UNL     1      -6.876  18.803  64.989  0.00  0.00    -0.219 OA
ENDBRANCH  31  32
ENDBRANCH   1  31
BRANCH  22  34
ATOM     34  C   UNL     1     -10.701   8.665  68.775  0.00  0.00    +0.129 C 
BRANCH  34  35
ATOM     35  C   UNL     1     -10.806   7.822  70.018  0.00  0.00    +0.203 C 
ATOM     36  O   UNL     1      -9.763   6.911  70.143  0.00  0.00    -0.219 OA
ENDBRANCH  34  35
ENDBRANCH  22  34
TORSDOF 8
ENDMDL
