MODEL 1
REMARK VINA RESULT:      -5.6      0.000      0.000
REMARK  Name = 
REMARK  0 active torsions:
REMARK  status: ('A' for Active; 'I' for Inactive)
REMARK                            x       y       z     vdW  Elec       q    Type
REMARK                         _______ _______ _______ _____ _____    ______ ____
ROOT
ATOM      1  C   UNL     1     -13.244  14.513  72.767  0.00  0.00    +0.006 C 
ATOM      2  C   UNL     1     -13.392  14.586  71.135  0.00  0.00    +0.039 C 
ATOM      3  C   UNL     1     -12.387  13.346  70.924  0.00  0.00    -0.024 A 
ATOM      4  C   UNL     1     -11.971  13.080  69.625  0.00  0.00    -0.025 A 
ATOM      5  C   UNL     1     -11.437  11.813  69.423  0.00  0.00    -0.004 A 
ATOM      6  C   UNL     1     -11.841  10.776  70.247  0.00  0.00    +0.011 A 
ATOM      7  C   UNL     1     -12.677  11.032  71.304  0.00  0.00    +0.057 A 
ATOM      8 CL   UNL     1     -13.569   9.689  72.001  0.00  0.00    -0.082 Cl
ATOM      9  C   UNL     1     -12.007  13.924  68.395  0.00  0.00    +0.045 C 
ATOM     10  C   UNL     1     -11.525  15.268  68.671  0.00  0.00    +0.093 C 
ATOM     11  N   UNL     1     -12.084  16.080  69.648  0.00  0.00    -0.217 NA
ATOM     12  C   UNL     1     -12.983  12.331  71.612  0.00  0.00    +0.007 A 
ATOM     13  C   UNL     1     -12.158  15.655  70.995  0.00  0.00    +0.093 C 
ENDROOT
TORSDOF 0
ENDMDL
MODEL 2
REMARK VINA RESULT:      -5.2      2.950      4.097
REMARK  Name = 
REMARK  0 active torsions:
REMARK  status: ('A' for Active; 'I' for Inactive)
REMARK                            x       y       z     vdW  Elec       q    Type
REMARK                         _______ _______ _______ _____ _____    ______ ____
ROOT
ATOM      1  C   UNL     1     -13.295  15.699  72.197  0.00  0.00    +0.006 C 
ATOM      2  C   UNL     1     -12.383  14.351  71.990  0.00  0.00    +0.039 C 
ATOM      3  C   UNL     1     -12.530  14.419  70.389  0.00  0.00    -0.024 A 
ATOM      4  C   UNL     1     -12.076  13.325  69.663  0.00  0.00    -0.025 A 
ATOM      5  C   UNL     1     -11.859  13.561  68.310  0.00  0.00    -0.004 A 
ATOM      6  C   UNL     1     -11.548  14.845  67.895  0.00  0.00    +0.011 A 
ATOM      7  C   UNL     1     -11.556  15.875  68.802  0.00  0.00    +0.057 A 
ATOM      8 CL   UNL     1     -10.684  17.345  68.397  0.00  0.00    -0.082 Cl
ATOM      9  C   UNL     1     -11.770  11.928  70.090  0.00  0.00    +0.045 C 
ATOM     10  C   UNL     1     -12.826  11.399  70.938  0.00  0.00    +0.093 C 
ATOM     11  N   UNL     1     -13.231  12.023  72.109  0.00  0.00    -0.217 NA
ATOM     12  C   UNL     1     -12.013  15.641  70.072  0.00  0.00    +0.007 A 
ATOM     13  C   UNL     1     -13.685  13.363  72.103  0.00  0.00    +0.093 C 
ENDROOT
TORSDOF 0
ENDMDL
MODEL 3
REMARK VINA RESULT:      -5.0      0.993      2.737
REMARK  Name = 
REMARK  0 active torsions:
REMARK  status: ('A' for Active; 'I' for Inactive)
REMARK                            x       y       z     vdW  Elec       q    Type
REMARK                         _______ _______ _______ _____ _____    ______ ____
ROOT
ATOM      1  C   UNL     1     -11.214  12.650  67.642  0.00  0.00    +0.006 C 
ATOM      2  C   UNL     1     -10.888  13.538  68.982  0.00  0.00    +0.039 C 
ATOM      3  C   UNL     1     -12.102  12.870  69.800  0.00  0.00    -0.024 A 
ATOM      4  C   UNL     1     -12.429  13.436  71.027  0.00  0.00    -0.025 A 
ATOM      5  C   UNL     1     -13.193  12.631  71.865  0.00  0.00    -0.004 A 
ATOM      6  C   UNL     1     -13.100  11.255  71.739  0.00  0.00    +0.011 A 
ATOM      7  C   UNL     1     -12.341  10.712  70.733  0.00  0.00    +0.057 A 
ATOM      8 CL   UNL     1     -11.825   9.040  70.893  0.00  0.00    -0.082 Cl
ATOM      9  C   UNL     1     -12.092  14.767  71.609  0.00  0.00    +0.045 C 
ATOM     10  C   UNL     1     -12.310  15.830  70.641  0.00  0.00    +0.093 C 
ATOM     11  N   UNL     1     -11.697  15.847  69.395  0.00  0.00    -0.217 NA
ATOM     12  C   UNL     1     -11.805  11.539  69.782  0.00  0.00    +0.007 A 
ATOM     13  C   UNL     1     -11.851  14.770  68.491  0.00  0.00    +0.093 C 
ENDROOT
TORSDOF 0
ENDMDL
MODEL 4
REMARK VINA RESULT:      -5.0      4.365      6.058
REMARK  Name = 
REMARK  0 active torsions:
REMARK  status: ('A' for Active; 'I' for Inactive)
REMARK                            x       y       z     vdW  Elec       q    Type
REMARK                         _______ _______ _______ _____ _____    ______ ____
ROOT
ATOM      1  C   UNL     1     -10.316  11.093  63.132  0.00  0.00    +0.006 C 
ATOM      2  C   UNL     1     -10.480  12.428  64.071  0.00  0.00    +0.039 C 
ATOM      3  C   UNL     1     -11.047  11.567  65.307  0.00  0.00    -0.024 A 
ATOM      4  C   UNL     1     -11.568  12.272  66.386  0.00  0.00    -0.025 A 
ATOM      5  C   UNL     1     -11.687  11.546  67.565  0.00  0.00    -0.004 A 
ATOM      6  C   UNL     1     -10.834  10.478  67.784  0.00  0.00    +0.011 A 
ATOM      7  C   UNL     1      -9.959  10.092  66.799  0.00  0.00    +0.057 A 
ATOM      8 CL   UNL     1      -8.573   9.114  67.256  0.00  0.00    -0.082 Cl
ATOM      9  C   UNL     1     -12.019  13.689  66.500  0.00  0.00    +0.045 C 
ATOM     10  C   UNL     1     -12.859  14.062  65.373  0.00  0.00    +0.093 C 
ATOM     11  N   UNL     1     -12.437  13.953  64.055  0.00  0.00    -0.217 NA
ATOM     12  C   UNL     1     -10.045  10.678  65.564  0.00  0.00    +0.007 A 
ATOM     13  C   UNL     1     -12.000  12.715  63.529  0.00  0.00    +0.093 C 
ENDROOT
TORSDOF 0
ENDMDL
MODEL 5
REMARK VINA RESULT:      -5.0      2.622      4.572
REMARK  Name = 
REMARK  0 active torsions:
REMARK  status: ('A' for Active; 'I' for Inactive)
REMARK                            x       y       z     vdW  Elec       q    Type
REMARK                         _______ _______ _______ _____ _____    ______ ____
ROOT
ATOM      1  C   UNL     1     -11.989  12.944  65.462  0.00  0.00    +0.006 C 
ATOM      2  C   UNL     1     -10.789  13.982  65.876  0.00  0.00    +0.039 C 
ATOM      3  C   UNL     1     -11.589  14.490  67.176  0.00  0.00    -0.024 A 
ATOM      4  C   UNL     1     -11.077  15.597  67.844  0.00  0.00    -0.025 A 
ATOM      5  C   UNL     1     -11.544  15.772  69.142  0.00  0.00    -0.004 A 
ATOM      6  C   UNL     1     -11.966  14.664  69.858  0.00  0.00    +0.011 A 
ATOM      7  C   UNL     1     -12.011  13.436  69.248  0.00  0.00    +0.057 A 
ATOM      8 CL   UNL     1     -12.042  12.004  70.266  0.00  0.00    -0.082 Cl
ATOM      9  C   UNL     1     -10.098  16.634  67.409  0.00  0.00    +0.045 C 
ATOM     10  C   UNL     1     -10.411  17.119  66.074  0.00  0.00    +0.093 C 
ATOM     11  N   UNL     1     -10.515  16.278  64.975  0.00  0.00    -0.217 NA
ATOM     12  C   UNL     1     -11.777  13.351  67.901  0.00  0.00    +0.007 A 
ATOM     13  C   UNL     1     -11.422  15.192  64.970  0.00  0.00    +0.093 C 
ENDROOT
TORSDOF 0
ENDMDL
MODEL 6
REMARK VINA RESULT:      -4.9      3.430      5.325
REMARK  Name = 
REMARK  0 active torsions:
REMARK  status: ('A' for Active; 'I' for Inactive)
REMARK                            x       y       z     vdW  Elec       q    Type
REMARK                         _______ _______ _______ _____ _____    ______ ____
ROOT
ATOM      1  C   UNL     1     -14.203   8.456  72.344  0.00  0.00    +0.006 C 
ATOM      2  C   UNL     1     -12.565   8.453  72.252  0.00  0.00    +0.039 C 
ATOM      3  C   UNL     1     -12.560   9.632  71.157  0.00  0.00    -0.024 A 
ATOM      4  C   UNL     1     -11.349   9.918  70.537  0.00  0.00    -0.025 A 
ATOM      5  C   UNL     1     -11.286  11.155  69.905  0.00  0.00    -0.004 A 
ATOM      6  C   UNL     1     -12.088  12.185  70.366  0.00  0.00    +0.011 A 
ATOM      7  C   UNL     1     -12.999  11.945  71.365  0.00  0.00    +0.057 A 
ATOM      8 CL   UNL     1     -13.618  13.316  72.271  0.00  0.00    -0.082 Cl
ATOM      9  C   UNL     1     -10.091   9.123  70.439  0.00  0.00    +0.045 C 
ATOM     10  C   UNL     1     -10.373   7.742  70.082  0.00  0.00    +0.093 C 
ATOM     11  N   UNL     1     -11.220   6.933  70.826  0.00  0.00    -0.217 NA
ATOM     12  C   UNL     1     -13.200  10.658  71.788  0.00  0.00    +0.007 A 
ATOM     13  C   UNL     1     -12.560   7.312  71.076  0.00  0.00    +0.093 C 
ENDROOT
TORSDOF 0
ENDMDL
MODEL 7
REMARK VINA RESULT:      -4.8      2.924      4.435
REMARK  Name = 
REMARK  0 active torsions:
REMARK  status: ('A' for Active; 'I' for Inactive)
REMARK                            x       y       z     vdW  Elec       q    Type
REMARK                         _______ _______ _______ _____ _____    ______ ____
ROOT
ATOM      1  C   UNL     1      -9.783  17.953  68.463  0.00  0.00    +0.006 C 
ATOM      2  C   UNL     1     -10.812  17.212  67.423  0.00  0.00    +0.039 C 
ATOM      3  C   UNL     1     -10.816  15.857  68.291  0.00  0.00    -0.024 A 
ATOM      4  C   UNL     1     -11.421  14.742  67.725  0.00  0.00    -0.025 A 
ATOM      5  C   UNL     1     -11.748  13.728  68.619  0.00  0.00    -0.004 A 
ATOM      6  C   UNL     1     -11.998  14.055  69.941  0.00  0.00    +0.011 A 
ATOM      7  C   UNL     1     -11.822  15.348  70.368  0.00  0.00    +0.057 A 
ATOM      8 CL   UNL     1     -12.612  15.845  71.856  0.00  0.00    -0.082 Cl
ATOM      9  C   UNL     1     -11.792  14.444  66.311  0.00  0.00    +0.045 C 
ATOM     10  C   UNL     1     -10.704  14.775  65.405  0.00  0.00    +0.093 C 
ATOM     11  N   UNL     1     -10.140  16.041  65.341  0.00  0.00    -0.217 NA
ATOM     12  C   UNL     1     -11.265  16.262  69.513  0.00  0.00    +0.007 A 
ATOM     13  C   UNL     1      -9.586  16.653  66.490  0.00  0.00    +0.093 C 
ENDROOT
TORSDOF 0
ENDMDL
MODEL 8
REMARK VINA RESULT:      -4.8      2.049      2.986
REMARK  Name = 
REMARK  0 active torsions:
REMARK  status: ('A' for Active; 'I' for Inactive)
REMARK                            x       y       z     vdW  Elec       q    Type
REMARK                         _______ _______ _______ _____ _____    ______ ____
ROOT
ATOM      1  C   UNL     1     -11.087  16.064  69.267  0.00  0.00    +0.006 C 
ATOM      2  C   UNL     1     -11.651  15.036  68.119  0.00  0.00    +0.039 C 
ATOM      3  C   UNL     1     -11.398  13.751  69.054  0.00  0.00    -0.024 A 
ATOM      4  C   UNL     1     -11.534  12.500  68.465  0.00  0.00    -0.025 A 
ATOM      5  C   UNL     1     -11.691  11.442  69.353  0.00  0.00    -0.004 A 
ATOM      6  C   UNL     1     -12.252  11.686  70.595  0.00  0.00    +0.011 A 
ATOM      7  C   UNL     1     -12.548  12.974  70.967  0.00  0.00    +0.057 A 
ATOM      8 CL   UNL     1     -13.695  13.216  72.275  0.00  0.00    -0.082 Cl
ATOM      9  C   UNL     1     -11.550  12.093  67.030  0.00  0.00    +0.045 C 
ATOM     10  C   UNL     1     -10.471  12.734  66.294  0.00  0.00    +0.093 C 
ATOM     11  N   UNL     1     -10.311  14.112  66.247  0.00  0.00    -0.217 NA
ATOM     12  C   UNL     1     -12.152  14.008  70.162  0.00  0.00    +0.007 A 
ATOM     13  C   UNL     1     -10.172  14.872  67.433  0.00  0.00    +0.093 C 
ENDROOT
TORSDOF 0
ENDMDL
MODEL 9
REMARK VINA RESULT:      -4.7      2.818      3.896
REMARK  Name = 
REMARK  0 active torsions:
REMARK  status: ('A' for Active; 'I' for Inactive)
REMARK                            x       y       z     vdW  Elec       q    Type
REMARK                         _______ _______ _______ _____ _____    ______ ____
ROOT
ATOM      1  C   UNL     1     -11.638  14.926  68.356  0.00  0.00    +0.006 C 
ATOM      2  C   UNL     1     -12.049  14.143  66.974  0.00  0.00    +0.039 C 
ATOM      3  C   UNL     1     -11.228  12.827  67.399  0.00  0.00    -0.024 A 
ATOM      4  C   UNL     1     -11.065  11.840  66.434  0.00  0.00    -0.025 A 
ATOM      5  C   UNL     1     -10.706  10.589  66.922  0.00  0.00    -0.004 A 
ATOM      6  C   UNL     1     -11.071  10.242  68.212  0.00  0.00    +0.011 A 
ATOM      7  C   UNL     1     -11.687  11.167  69.017  0.00  0.00    +0.057 A 
ATOM      8 CL   UNL     1     -12.584  10.585  70.412  0.00  0.00    -0.082 Cl
ATOM      9  C   UNL     1     -11.219  11.890  64.951  0.00  0.00    +0.045 C 
ATOM     10  C   UNL     1     -10.561  13.062  64.397  0.00  0.00    +0.093 C 
ATOM     11  N   UNL     1     -10.861  14.354  64.806  0.00  0.00    -0.217 NA
ATOM     12  C   UNL     1     -11.802  12.460  68.581  0.00  0.00    +0.007 A 
ATOM     13  C   UNL     1     -10.752  14.734  66.165  0.00  0.00    +0.093 C 
ENDROOT
TORSDOF 0
ENDMDL
