MODEL 1
REMARK VINA RESULT:      -5.8      0.000      0.000
REMARK  Name = 
REMARK  5 active torsions:
REMARK  status: ('A' for Active; 'I' for Inactive)
REMARK    1  A    between atoms: C_2  and  N_3
REMARK    2  A    between atoms: C_5  and  O_7
REMARK    3  A    between atoms: O_7  and  C_8
REMARK    4  A    between atoms: C_12  and  C_13
REMARK    5  A    between atoms: C_13  and  N_15
REMARK                            x       y       z     vdW  Elec       q    Type
REMARK                         _______ _______ _______ _____ _____    ______ ____
ROOT
ATOM      1  C   UNL     1      -9.323  17.528  66.520  0.00  0.00    +0.150 A 
ATOM      2  C   UNL     1      -8.245  18.408  66.579  0.00  0.00    +0.035 A 
ATOM      3  C   UNL     1      -8.428  19.586  67.306  0.00  0.00    -0.005 A 
ATOM      4  C   UNL     1      -9.677  20.155  67.033  0.00  0.00    -0.003 A 
ATOM      5  C   UNL     1     -10.747  19.307  67.301  0.00  0.00    +0.003 A 
ATOM      6  C   UNL     1     -10.455  17.949  67.217  0.00  0.00    +0.038 A 
ENDROOT
BRANCH   3   7
ATOM      7  C   UNL     1      -7.214  20.644  67.213  0.00  0.00    +0.080 C 
ATOM      8  C   UNL     1      -6.688  20.085  65.754  0.00  0.00    +0.022 C 
BRANCH   7   9
ATOM      9  N   UNL     1      -6.217  19.694  67.979  0.00  0.00    -0.268 NA
ATOM     10  C   UNL     1      -6.280  20.008  69.367  0.00  0.00    +0.090 C 
ATOM     11  C   UNL     1      -4.903  20.146  67.521  0.00  0.00    +0.090 C 
ENDBRANCH   7   9
ENDBRANCH   3   7
BRANCH   1  12
ATOM     12  O   UNL     1      -9.407  16.534  65.528  0.00  0.00    -0.410 OA
BRANCH  12  14
ATOM     13  N   UNL     1     -11.314  14.945  65.714  0.00  0.00    -0.244 N 
ATOM     14  C   UNL     1     -10.653  16.083  65.144  0.00  0.00    +0.409 C 
ATOM     15  O   UNL     1     -11.240  16.836  64.309  0.00  0.00    -0.226 OA
ATOM     16  C   UNL     1     -10.503  13.948  66.407  0.00  0.00    +0.118 C 
BRANCH  13  18
ATOM     17  C   UNL     1     -12.445  12.859  65.129  0.00  0.00    +0.023 C 
ATOM     18  C   UNL     1     -12.306  14.344  64.824  0.00  0.00    +0.097 C 
ENDBRANCH  13  18
ENDBRANCH  12  14
ENDBRANCH   1  12
TORSDOF 5
ENDMDL
MODEL 2
REMARK VINA RESULT:      -5.6      4.790      6.577
REMARK  Name = 
REMARK  5 active torsions:
REMARK  status: ('A' for Active; 'I' for Inactive)
REMARK    1  A    between atoms: C_2  and  N_3
REMARK    2  A    between atoms: C_5  and  O_7
REMARK    3  A    between atoms: O_7  and  C_8
REMARK    4  A    between atoms: C_12  and  C_13
REMARK    5  A    between atoms: C_13  and  N_15
REMARK                            x       y       z     vdW  Elec       q    Type
REMARK                         _______ _______ _______ _____ _____    ______ ____
ROOT
ATOM      1  C   UNL     1     -11.437  14.087  68.620  0.00  0.00    +0.150 A 
ATOM      2  C   UNL     1     -11.860  13.661  69.877  0.00  0.00    +0.035 A 
ATOM      3  C   UNL     1     -12.215  14.651  70.795  0.00  0.00    -0.005 A 
ATOM      4  C   UNL     1     -11.295  15.706  70.777  0.00  0.00    -0.003 A 
ATOM      5  C   UNL     1     -11.154  16.301  69.528  0.00  0.00    +0.003 A 
ATOM      6  C   UNL     1     -11.435  15.471  68.447  0.00  0.00    +0.038 A 
ENDROOT
BRANCH   3   7
ATOM      7  C   UNL     1     -12.542  14.119  72.283  0.00  0.00    +0.080 C 
ATOM      8  C   UNL     1     -14.166  14.022  72.014  0.00  0.00    +0.022 C 
BRANCH   7   9
ATOM      9  N   UNL     1     -12.688  15.577  72.862  0.00  0.00    -0.268 NA
ATOM     10  C   UNL     1     -12.433  15.528  74.263  0.00  0.00    +0.090 C 
ATOM     11  C   UNL     1     -14.117  15.854  72.720  0.00  0.00    +0.090 C 
ENDBRANCH   7   9
ENDBRANCH   3   7
BRANCH   1  12
ATOM     12  O   UNL     1     -10.696  13.247  67.770  0.00  0.00    -0.410 OA
BRANCH  12  14
ATOM     13  N   UNL     1     -11.038  13.104  65.308  0.00  0.00    -0.244 N 
ATOM     14  C   UNL     1     -11.316  12.712  66.659  0.00  0.00    +0.409 C 
ATOM     15  O   UNL     1     -12.089  11.739  66.917  0.00  0.00    -0.226 OA
ATOM     16  C   UNL     1     -10.414  14.404  65.079  0.00  0.00    +0.118 C 
BRANCH  13  18
ATOM     17  C   UNL     1     -11.739  11.765  63.388  0.00  0.00    +0.023 C 
ATOM     18  C   UNL     1     -12.143  12.839  64.388  0.00  0.00    +0.097 C 
ENDBRANCH  13  18
ENDBRANCH  12  14
ENDBRANCH   1  12
TORSDOF 5
ENDMDL
MODEL 3
REMARK VINA RESULT:      -5.5      5.622      8.063
REMARK  Name = 
REMARK  5 active torsions:
REMARK  status: ('A' for Active; 'I' for Inactive)
REMARK    1  A    between atoms: C_2  and  N_3
REMARK    2  A    between atoms: C_5  and  O_7
REMARK    3  A    between atoms: O_7  and  C_8
REMARK    4  A    between atoms: C_12  and  C_13
REMARK    5  A    between atoms: C_13  and  N_15
REMARK                            x       y       z     vdW  Elec       q    Type
REMARK                         _______ _______ _______ _____ _____    ______ ____
ROOT
ATOM      1  C   UNL     1     -11.844  12.310  69.192  0.00  0.00    +0.150 A 
ATOM      2  C   UNL     1     -11.516  12.945  67.997  0.00  0.00    +0.035 A 
ATOM      3  C   UNL     1     -11.352  12.132  66.873  0.00  0.00    -0.005 A 
ATOM      4  C   UNL     1     -10.615  10.984  67.187  0.00  0.00    -0.003 A 
ATOM      5  C   UNL     1     -11.182  10.217  68.199  0.00  0.00    +0.003 A 
ATOM      6  C   UNL     1     -11.975  10.925  69.098  0.00  0.00    +0.038 A 
ENDROOT
BRANCH   3   7
ATOM      7  C   UNL     1     -10.816  12.890  65.553  0.00  0.00    +0.080 C 
ATOM      8  C   UNL     1     -10.919  14.388  66.232  0.00  0.00    +0.022 C 
BRANCH   7   9
ATOM      9  N   UNL     1     -12.262  13.026  64.943  0.00  0.00    -0.268 NA
ATOM     10  C   UNL     1     -12.310  12.266  63.738  0.00  0.00    +0.090 C 
ATOM     11  C   UNL     1     -12.325  14.430  64.539  0.00  0.00    +0.090 C 
ENDBRANCH   7   9
ENDBRANCH   3   7
BRANCH   1  12
ATOM     12  O   UNL     1     -11.651  12.939  70.435  0.00  0.00    -0.410 OA
BRANCH  12  14
ATOM     13  N   UNL     1     -13.300  14.710  71.021  0.00  0.00    -0.244 N 
ATOM     14  C   UNL     1     -12.755  13.389  71.131  0.00  0.00    +0.409 C 
ATOM     15  O   UNL     1     -13.341  12.489  71.807  0.00  0.00    -0.226 OA
ATOM     16  C   UNL     1     -12.438  15.774  70.512  0.00  0.00    +0.118 C 
BRANCH  13  18
ATOM     17  C   UNL     1     -13.148  15.793  73.206  0.00  0.00    +0.023 C 
ATOM     18  C   UNL     1     -14.067  15.121  72.196  0.00  0.00    +0.097 C 
ENDBRANCH  13  18
ENDBRANCH  12  14
ENDBRANCH   1  12
TORSDOF 5
ENDMDL
MODEL 4
REMARK VINA RESULT:      -5.4      1.829      3.043
REMARK  Name = 
REMARK  5 active torsions:
REMARK  status: ('A' for Active; 'I' for Inactive)
REMARK    1  A    between atoms: C_2  and  N_3
REMARK    2  A    between atoms: C_5  and  O_7
REMARK    3  A    between atoms: O_7  and  C_8
REMARK    4  A    between atoms: C_12  and  C_13
REMARK    5  A    between atoms: C_13  and  N_15
REMARK                            x       y       z     vdW  Elec       q    Type
REMARK                         _______ _______ _______ _____ _____    ______ ____
ROOT
ATOM      1  C   UNL     1     -10.752  15.569  66.318  0.00  0.00    +0.150 A 
ATOM      2  C   UNL     1     -10.685  16.698  67.131  0.00  0.00    +0.035 A 
ATOM      3  C   UNL     1      -9.413  17.187  67.432  0.00  0.00    -0.005 A 
ATOM      4  C   UNL     1      -8.536  16.143  67.749  0.00  0.00    -0.003 A 
ATOM      5  C   UNL     1      -8.411  15.194  66.739  0.00  0.00    +0.003 A 
ATOM      6  C   UNL     1      -9.515  15.079  65.901  0.00  0.00    +0.038 A 
ENDROOT
BRANCH   3   7
ATOM      7  C   UNL     1      -9.378  18.393  68.503  0.00  0.00    +0.080 C 
ATOM      8  C   UNL     1     -10.234  19.422  67.542  0.00  0.00    +0.022 C 
BRANCH   7   9
ATOM      9  N   UNL     1      -8.013  18.954  67.952  0.00  0.00    -0.268 NA
ATOM     10  C   UNL     1      -7.270  19.477  69.050  0.00  0.00    +0.090 C 
ATOM     11  C   UNL     1      -8.422  20.108  67.153  0.00  0.00    +0.090 C 
ENDBRANCH   7   9
ENDBRANCH   3   7
BRANCH   1  12
ATOM     12  O   UNL     1     -11.907  14.766  66.268  0.00  0.00    -0.410 OA
BRANCH  12  14
ATOM     13  N   UNL     1     -12.186  12.653  64.982  0.00  0.00    -0.244 N 
ATOM     14  C   UNL     1     -12.190  14.081  65.104  0.00  0.00    +0.409 C 
ATOM     15  O   UNL     1     -12.580  14.822  64.151  0.00  0.00    -0.226 OA
ATOM     16  C   UNL     1     -11.438  11.876  65.968  0.00  0.00    +0.118 C 
BRANCH  13  18
ATOM     17  C   UNL     1     -10.494  11.850  63.412  0.00  0.00    +0.023 C 
ATOM     18  C   UNL     1     -11.965  12.188  63.614  0.00  0.00    +0.097 C 
ENDBRANCH  13  18
ENDBRANCH  12  14
ENDBRANCH   1  12
TORSDOF 5
ENDMDL
MODEL 5
REMARK VINA RESULT:      -5.4      5.437      7.583
REMARK  Name = 
REMARK  5 active torsions:
REMARK  status: ('A' for Active; 'I' for Inactive)
REMARK    1  A    between atoms: C_2  and  N_3
REMARK    2  A    between atoms: C_5  and  O_7
REMARK    3  A    between atoms: O_7  and  C_8
REMARK    4  A    between atoms: C_12  and  C_13
REMARK    5  A    between atoms: C_13  and  N_15
REMARK                            x       y       z     vdW  Elec       q    Type
REMARK                         _______ _______ _______ _____ _____    ______ ____
ROOT
ATOM      1  C   UNL     1     -12.030  14.231  68.160  0.00  0.00    +0.150 A 
ATOM      2  C   UNL     1     -11.747  14.258  66.797  0.00  0.00    +0.035 A 
ATOM      3  C   UNL     1     -11.115  13.134  66.260  0.00  0.00    -0.005 A 
ATOM      4  C   UNL     1     -10.086  12.688  67.096  0.00  0.00    -0.003 A 
ATOM      5  C   UNL     1     -10.510  12.376  68.384  0.00  0.00    +0.003 A 
ATOM      6  C   UNL     1     -11.644  13.060  68.811  0.00  0.00    +0.038 A 
ENDROOT
BRANCH   3   7
ATOM      7  C   UNL     1     -10.664  13.275  64.717  0.00  0.00    +0.080 C 
ATOM      8  C   UNL     1     -12.091  13.950  64.242  0.00  0.00    +0.022 C 
BRANCH   7   9
ATOM      9  N   UNL     1     -11.180  11.833  64.348  0.00  0.00    -0.268 NA
ATOM     10  C   UNL     1     -10.225  11.227  63.480  0.00  0.00    +0.090 C 
ATOM     11  C   UNL     1     -12.361  12.099  63.528  0.00  0.00    +0.090 C 
ENDBRANCH   7   9
ENDBRANCH   3   7
BRANCH   1  12
ATOM     12  O   UNL     1     -12.288  15.412  68.881  0.00  0.00    -0.410 OA
BRANCH  12  14
ATOM     13  N   UNL     1     -12.403  15.224  71.360  0.00  0.00    -0.244 N 
ATOM     14  C   UNL     1     -11.735  15.558  70.137  0.00  0.00    +0.409 C 
ATOM     15  O   UNL     1     -10.516  15.909  70.127  0.00  0.00    -0.226 OA
ATOM     16  C   UNL     1     -13.861  15.142  71.354  0.00  0.00    +0.118 C 
BRANCH  13  18
ATOM     17  C   UNL     1     -12.862  15.832  73.682  0.00  0.00    +0.023 C 
ATOM     18  C   UNL     1     -11.885  15.948  72.521  0.00  0.00    +0.097 C 
ENDBRANCH  13  18
ENDBRANCH  12  14
ENDBRANCH   1  12
TORSDOF 5
ENDMDL
MODEL 6
REMARK VINA RESULT:      -5.3      2.204      6.668
REMARK  Name = 
REMARK  5 active torsions:
REMARK  status: ('A' for Active; 'I' for Inactive)
REMARK    1  A    between atoms: C_2  and  N_3
REMARK    2  A    between atoms: C_5  and  O_7
REMARK    3  A    between atoms: O_7  and  C_8
REMARK    4  A    between atoms: C_12  and  C_13
REMARK    5  A    between atoms: C_13  and  N_15
REMARK                            x       y       z     vdW  Elec       q    Type
REMARK                         _______ _______ _______ _____ _____    ______ ____
ROOT
ATOM      1  C   UNL     1     -11.146  16.381  68.624  0.00  0.00    +0.150 A 
ATOM      2  C   UNL     1     -10.844  15.683  67.457  0.00  0.00    +0.035 A 
ATOM      3  C   UNL     1     -11.413  14.416  67.313  0.00  0.00    -0.005 A 
ATOM      4  C   UNL     1     -11.332  13.690  68.506  0.00  0.00    -0.003 A 
ATOM      5  C   UNL     1     -11.943  14.321  69.585  0.00  0.00    +0.003 A 
ATOM      6  C   UNL     1     -11.998  15.709  69.499  0.00  0.00    +0.038 A 
ENDROOT
BRANCH   3   7
ATOM      7  C   UNL     1     -10.908  13.582  66.027  0.00  0.00    +0.080 C 
ATOM      8  C   UNL     1     -10.460  14.928  65.187  0.00  0.00    +0.022 C 
BRANCH   7   9
ATOM      9  N   UNL     1     -12.334  13.593  65.357  0.00  0.00    -0.268 NA
ATOM     10  C   UNL     1     -12.494  12.377  64.630  0.00  0.00    +0.090 C 
ATOM     11  C   UNL     1     -12.227  14.653  64.355  0.00  0.00    +0.090 C 
ENDBRANCH   7   9
ENDBRANCH   3   7
BRANCH   1  12
ATOM     12  O   UNL     1     -10.351  17.455  69.064  0.00  0.00    -0.410 OA
BRANCH  12  14
ATOM     13  N   UNL     1      -8.702  18.732  67.705  0.00  0.00    -0.244 N 
ATOM     14  C   UNL     1     -10.030  18.455  68.168  0.00  0.00    +0.409 C 
ATOM     15  O   UNL     1     -11.036  19.054  67.681  0.00  0.00    -0.226 OA
ATOM     16  C   UNL     1      -7.576  18.262  68.507  0.00  0.00    +0.118 C 
BRANCH  13  18
ATOM     17  C   UNL     1      -7.093  20.557  67.483  0.00  0.00    +0.023 C 
ATOM     18  C   UNL     1      -8.526  20.106  67.236  0.00  0.00    +0.097 C 
ENDBRANCH  13  18
ENDBRANCH  12  14
ENDBRANCH   1  12
TORSDOF 5
ENDMDL
MODEL 7
REMARK VINA RESULT:      -5.1      3.889      5.485
REMARK  Name = 
REMARK  5 active torsions:
REMARK  status: ('A' for Active; 'I' for Inactive)
REMARK    1  A    between atoms: C_2  and  N_3
REMARK    2  A    between atoms: C_5  and  O_7
REMARK    3  A    between atoms: O_7  and  C_8
REMARK    4  A    between atoms: C_12  and  C_13
REMARK    5  A    between atoms: C_13  and  N_15
REMARK                            x       y       z     vdW  Elec       q    Type
REMARK                         _______ _______ _______ _____ _____    ______ ____
ROOT
ATOM      1  C   UNL     1     -12.345  13.674  65.719  0.00  0.00    +0.150 A 
ATOM      2  C   UNL     1     -11.875  13.829  67.021  0.00  0.00    +0.035 A 
ATOM      3  C   UNL     1     -11.138  14.982  67.294  0.00  0.00    -0.005 A 
ATOM      4  C   UNL     1     -10.221  15.247  66.271  0.00  0.00    -0.003 A 
ATOM      5  C   UNL     1     -10.810  15.393  65.019  0.00  0.00    +0.003 A 
ATOM      6  C   UNL     1     -12.014  14.716  64.854  0.00  0.00    +0.038 A 
ENDROOT
BRANCH   3   7
ATOM      7  C   UNL     1     -10.480  15.042  68.766  0.00  0.00    +0.080 C 
ATOM      8  C   UNL     1     -11.675  14.143  69.460  0.00  0.00    +0.022 C 
BRANCH   7   9
ATOM      9  N   UNL     1     -11.223  16.381  69.135  0.00  0.00    -0.268 NA
ATOM     10  C   UNL     1     -10.272  17.442  69.098  0.00  0.00    +0.090 C 
ATOM     11  C   UNL     1     -11.569  16.197  70.544  0.00  0.00    +0.090 C 
ENDBRANCH   7   9
ENDBRANCH   3   7
BRANCH   1  12
ATOM     12  O   UNL     1     -12.741  12.417  65.225  0.00  0.00    -0.410 OA
BRANCH  12  14
ATOM     13  N   UNL     1     -10.831  11.213  64.176  0.00  0.00    -0.244 N 
ATOM     14  C   UNL     1     -12.088  11.900  64.124  0.00  0.00    +0.409 C 
ATOM     15  O   UNL     1     -12.753  11.976  63.047  0.00  0.00    -0.226 OA
ATOM     16  C   UNL     1      -9.970  11.429  65.336  0.00  0.00    +0.118 C 
BRANCH  13  18
ATOM     17  C   UNL     1      -9.383   9.926  62.686  0.00  0.00    +0.023 C 
ATOM     18  C   UNL     1     -10.095  11.253  62.913  0.00  0.00    +0.097 C 
ENDBRANCH  13  18
ENDBRANCH  12  14
ENDBRANCH   1  12
TORSDOF 5
ENDMDL
MODEL 8
REMARK VINA RESULT:      -5.1      2.916      4.375
REMARK  Name = 
REMARK  5 active torsions:
REMARK  status: ('A' for Active; 'I' for Inactive)
REMARK    1  A    between atoms: C_2  and  N_3
REMARK    2  A    between atoms: C_5  and  O_7
REMARK    3  A    between atoms: O_7  and  C_8
REMARK    4  A    between atoms: C_12  and  C_13
REMARK    5  A    between atoms: C_13  and  N_15
REMARK                            x       y       z     vdW  Elec       q    Type
REMARK                         _______ _______ _______ _____ _____    ______ ____
ROOT
ATOM      1  C   UNL     1     -11.504  13.442  67.515  0.00  0.00    +0.150 A 
ATOM      2  C   UNL     1     -11.132  14.668  66.968  0.00  0.00    +0.035 A 
ATOM      3  C   UNL     1     -10.789  15.683  67.863  0.00  0.00    -0.005 A 
ATOM      4  C   UNL     1     -11.687  15.731  68.935  0.00  0.00    -0.003 A 
ATOM      5  C   UNL     1     -11.775  14.537  69.643  0.00  0.00    +0.003 A 
ATOM      6  C   UNL     1     -11.473  13.395  68.909  0.00  0.00    +0.038 A 
ENDROOT
BRANCH   3   7
ATOM      7  C   UNL     1     -10.521  17.125  67.193  0.00  0.00    +0.080 C 
ATOM      8  C   UNL     1      -9.126  16.651  66.454  0.00  0.00    +0.022 C 
BRANCH   7   9
ATOM      9  N   UNL     1      -9.724  17.652  68.445  0.00  0.00    -0.268 NA
ATOM     10  C   UNL     1      -9.807  19.075  68.459  0.00  0.00    +0.090 C 
ATOM     11  C   UNL     1      -8.335  17.330  68.119  0.00  0.00    +0.090 C 
ENDBRANCH   7   9
ENDBRANCH   3   7
BRANCH   1  12
ATOM     12  O   UNL     1     -12.232  12.496  66.771  0.00  0.00    -0.410 OA
BRANCH  12  14
ATOM     13  N   UNL     1     -11.129  11.580  64.736  0.00  0.00    -0.244 N 
ATOM     14  C   UNL     1     -12.055  12.447  65.403  0.00  0.00    +0.409 C 
ATOM     15  O   UNL     1     -12.875  13.162  64.751  0.00  0.00    -0.226 OA
ATOM     16  C   UNL     1     -10.013  11.036  65.504  0.00  0.00    +0.118 C 
BRANCH  13  18
ATOM     17  C   UNL     1      -9.510  11.288  62.929  0.00  0.00    +0.023 C 
ATOM     18  C   UNL     1     -10.722  12.068  63.419  0.00  0.00    +0.097 C 
ENDBRANCH  13  18
ENDBRANCH  12  14
ENDBRANCH   1  12
TORSDOF 5
ENDMDL
MODEL 9
REMARK VINA RESULT:      -5.0      1.627      2.300
REMARK  Name = 
REMARK  5 active torsions:
REMARK  status: ('A' for Active; 'I' for Inactive)
REMARK    1  A    between atoms: C_2  and  N_3
REMARK    2  A    between atoms: C_5  and  O_7
REMARK    3  A    between atoms: O_7  and  C_8
REMARK    4  A    between atoms: C_12  and  C_13
REMARK    5  A    between atoms: C_13  and  N_15
REMARK                            x       y       z     vdW  Elec       q    Type
REMARK                         _______ _______ _______ _____ _____    ______ ____
ROOT
ATOM      1  C   UNL     1      -9.982  18.489  68.199  0.00  0.00    +0.150 A 
ATOM      2  C   UNL     1      -8.640  18.233  68.467  0.00  0.00    +0.035 A 
ATOM      3  C   UNL     1      -7.762  19.317  68.395  0.00  0.00    -0.005 A 
ATOM      4  C   UNL     1      -8.029  20.105  67.270  0.00  0.00    -0.003 A 
ATOM      5  C   UNL     1      -9.330  20.595  67.228  0.00  0.00    +0.003 A 
ATOM      6  C   UNL     1     -10.272  19.820  67.898  0.00  0.00    +0.038 A 
ENDROOT
BRANCH   3   7
ATOM      7  C   UNL     1      -6.201  18.944  68.554  0.00  0.00    +0.080 C 
ATOM      8  C   UNL     1      -6.503  17.497  69.283  0.00  0.00    +0.022 C 
BRANCH   7   9
ATOM      9  N   UNL     1      -6.085  19.666  69.950  0.00  0.00    -0.268 NA
ATOM     10  C   UNL     1      -5.271  20.825  69.786  0.00  0.00    +0.090 C 
ATOM     11  C   UNL     1      -5.298  18.728  70.749  0.00  0.00    +0.090 C 
ENDBRANCH   7   9
ENDBRANCH   3   7
BRANCH   1  12
ATOM     12  O   UNL     1     -10.873  17.456  67.854  0.00  0.00    -0.410 OA
BRANCH  12  14
ATOM     13  N   UNL     1     -10.541  15.214  66.824  0.00  0.00    -0.244 N 
ATOM     14  C   UNL     1     -10.568  16.647  66.779  0.00  0.00    +0.409 C 
ATOM     15  O   UNL     1     -10.423  17.274  65.685  0.00  0.00    -0.226 OA
ATOM     16  C   UNL     1     -10.391  14.565  68.124  0.00  0.00    +0.118 C 
BRANCH  13  18
ATOM     17  C   UNL     1     -10.543  13.815  64.821  0.00  0.00    +0.023 C 
ATOM     18  C   UNL     1      -9.691  14.617  65.795  0.00  0.00    +0.097 C 
ENDBRANCH  13  18
ENDBRANCH  12  14
ENDBRANCH   1  12
TORSDOF 5
ENDMDL
