MODEL 1
REMARK VINA RESULT:      -7.0      0.000      0.000
REMARK  Name = 
REMARK  2 active torsions:
REMARK  status: ('A' for Active; 'I' for Inactive)
REMARK    1  A    between atoms: C_20  and  C_21
REMARK    2  A    between atoms: C_30  and  C_31
REMARK                            x       y       z     vdW  Elec       q    Type
REMARK                         _______ _______ _______ _____ _____    ______ ____
ROOT
ATOM      1  C   UNL     1     -12.624  14.234  70.216  0.00  0.00    +0.032 C 
ATOM      2  C   UNL     1     -12.278  13.454  70.398  0.00  0.00    -0.005 C 
ATOM      3  C   UNL     1     -11.562  12.679  69.565  0.00  0.00    +0.124 C 
ATOM      4  C   UNL     1     -11.295  11.302  69.618  0.00  0.00    +0.280 C 
ATOM      5  O   UNL     1     -11.815  11.063  70.794  0.00  0.00    -0.267 OA
ATOM      6  N   UNL     1     -11.736  10.347  68.563  0.00  0.00    -0.191 NA
ATOM      7  C   UNL     1     -10.191  10.213  68.389  0.00  0.00    +0.194 C 
ATOM      8  C   UNL     1     -10.088   9.158  67.155  0.00  0.00    +0.337 C 
ATOM      9  O   UNL     1     -10.845   8.181  67.196  0.00  0.00    -0.248 OA
ATOM     10  O   UNL     1      -8.687   8.924  67.063  0.00  0.00    -0.446 OA
ATOM     11  C   UNL     1      -8.022  10.147  66.406  0.00  0.00    +0.200 C 
ATOM     12  C   UNL     1      -7.141  10.539  67.741  0.00  0.00    +0.135 C 
ATOM     13  C   UNL     1      -6.652  11.945  67.519  0.00  0.00    +0.246 C 
ATOM     14  N   UNL     1      -7.272  13.061  68.175  0.00  0.00    -0.198 NA
ATOM     15  C   UNL     1      -7.687  14.290  67.274  0.00  0.00    +0.173 C 
ATOM     16  C   UNL     1      -8.907  14.713  68.241  0.00  0.00    +0.262 C 
ATOM     17  N   UNL     1     -10.210  14.311  67.783  0.00  0.00    -0.195 NA
ATOM     18  C   UNL     1     -10.182  12.751  67.546  0.00  0.00    +0.185 C 
ATOM     19  C   UNL     1      -9.665  12.912  66.014  0.00  0.00    +0.100 C 
ATOM     20  S   UNL     1     -10.670  12.303  64.763  0.00  0.00    -0.080 S 
ATOM     21  S   UNL     1      -9.807  11.521  63.079  0.00  0.00    -0.082 S 
ATOM     22  C   UNL     1      -9.269   9.815  63.423  0.00  0.00    +0.073 C 
ATOM     23  C   UNL     1      -7.772   9.922  63.582  0.00  0.00    +0.038 C 
ATOM     24  C   UNL     1      -7.230   8.922  64.549  0.00  0.00    -0.026 C 
ATOM     25  C   UNL     1     -11.720  12.572  67.065  0.00  0.00    +0.266 C 
ATOM     26  O   UNL     1     -12.156  13.447  66.281  0.00  0.00    -0.271 OA
ATOM     27  O   UNL     1      -8.673  15.148  69.367  0.00  0.00    -0.271 OA
ATOM     28  O   UNL     1      -5.398  11.854  67.321  0.00  0.00    -0.273 OA
ATOM     29  C   UNL     1      -6.819   9.257  65.781  0.00  0.00    +0.013 C 
ATOM     30  N   UNL     1     -12.138  12.397  68.283  0.00  0.00    -0.173 NA
ENDROOT
BRANCH   7  31
ATOM     31  C   UNL     1     -10.062   8.995  69.500  0.00  0.00    +0.031 C 
ATOM     32  C   UNL     1     -11.157   8.749  70.276  0.00  0.00    +0.002 C 
ATOM     33  C   UNL     1      -9.011   9.355  70.516  0.00  0.00    +0.002 C 
ENDBRANCH   7  31
BRANCH  15  34
ATOM     34  C   UNL     1      -6.623  15.345  67.953  0.00  0.00    +0.029 C 
ATOM     35  C   UNL     1      -5.244  14.852  67.848  0.00  0.00    +0.002 C 
ATOM     36  C   UNL     1      -6.707  16.572  67.045  0.00  0.00    +0.002 C 
ENDBRANCH  15  34
TORSDOF 2
ENDMDL
MODEL 2
REMARK VINA RESULT:      -6.5      2.390      6.063
REMARK  Name = 
REMARK  2 active torsions:
REMARK  status: ('A' for Active; 'I' for Inactive)
REMARK    1  A    between atoms: C_20  and  C_21
REMARK    2  A    between atoms: C_30  and  C_31
REMARK                            x       y       z     vdW  Elec       q    Type
REMARK                         _______ _______ _______ _____ _____    ______ ____
ROOT
ATOM      1  C   UNL     1      -8.657   8.978  64.224  0.00  0.00    +0.032 C 
ATOM      2  C   UNL     1      -8.850   9.810  64.045  0.00  0.00    -0.005 C 
ATOM      3  C   UNL     1      -9.339  10.723  64.901  0.00  0.00    +0.124 C 
ATOM      4  C   UNL     1     -10.019  11.925  64.649  0.00  0.00    +0.280 C 
ATOM      5  O   UNL     1      -9.873  11.945  63.349  0.00  0.00    -0.267 OA
ATOM      6  N   UNL     1     -11.416  12.180  65.098  0.00  0.00    -0.191 NA
ATOM      7  C   UNL     1     -10.680  13.263  65.948  0.00  0.00    +0.194 C 
ATOM      8  C   UNL     1     -11.912  13.919  66.784  0.00  0.00    +0.337 C 
ATOM      9  O   UNL     1     -12.948  14.155  66.151  0.00  0.00    -0.248 OA
ATOM     10  O   UNL     1     -11.281  14.995  67.472  0.00  0.00    -0.446 OA
ATOM     11  C   UNL     1     -10.460  14.422  68.641  0.00  0.00    +0.200 C 
ATOM     12  C   UNL     1      -9.014  14.915  68.027  0.00  0.00    +0.135 C 
ATOM     13  C   UNL     1      -7.959  14.159  68.790  0.00  0.00    +0.246 C 
ATOM     14  N   UNL     1      -7.288  13.029  68.212  0.00  0.00    -0.198 NA
ATOM     15  C   UNL     1      -7.223  11.708  69.074  0.00  0.00    +0.173 C 
ATOM     16  C   UNL     1      -7.181  10.748  67.778  0.00  0.00    +0.262 C 
ATOM     17  N   UNL     1      -8.433  10.122  67.448  0.00  0.00    -0.195 NA
ATOM     18  C   UNL     1      -9.516  11.259  67.282  0.00  0.00    +0.185 C 
ATOM     19  C   UNL     1      -9.894  11.240  68.862  0.00  0.00    +0.100 C 
ATOM     20  S   UNL     1     -11.507  10.839  69.293  0.00  0.00    -0.080 S 
ATOM     21  S   UNL     1     -12.350  11.721  70.937  0.00  0.00    -0.082 S 
ATOM     22  C   UNL     1     -12.928  13.389  70.488  0.00  0.00    +0.073 C 
ATOM     23  C   UNL     1     -11.898  14.313  71.092  0.00  0.00    +0.038 C 
ATOM     24  C   UNL     1     -11.712  15.558  70.290  0.00  0.00    -0.026 C 
ATOM     25  C   UNL     1     -10.778  10.311  66.913  0.00  0.00    +0.266 C 
ATOM     26  O   UNL     1     -10.888   9.256  67.580  0.00  0.00    -0.271 OA
ATOM     27  O   UNL     1      -6.195  10.753  67.044  0.00  0.00    -0.271 OA
ATOM     28  O   UNL     1      -7.380  15.016  69.532  0.00  0.00    -0.273 OA
ATOM     29  C   UNL     1     -10.630  15.770  69.525  0.00  0.00    +0.013 C 
ATOM     30  N   UNL     1     -10.511  10.356  65.642  0.00  0.00    -0.173 NA
ENDROOT
BRANCH   7  31
ATOM     31  C   UNL     1     -10.799  14.421  64.775  0.00  0.00    +0.031 C 
ATOM     32  C   UNL     1     -10.537  15.707  65.149  0.00  0.00    +0.002 C 
ATOM     33  C   UNL     1     -12.223  14.501  64.293  0.00  0.00    +0.002 C 
ENDBRANCH   7  31
BRANCH  15  34
ATOM     34  C   UNL     1      -5.589  11.728  69.263  0.00  0.00    +0.029 C 
ATOM     35  C   UNL     1      -5.173  12.795  70.180  0.00  0.00    +0.002 C 
ATOM     36  C   UNL     1      -5.296  10.410  69.981  0.00  0.00    +0.002 C 
ENDBRANCH  15  34
TORSDOF 2
ENDMDL
MODEL 3
REMARK VINA RESULT:      -6.4      2.020      6.000
REMARK  Name = 
REMARK  2 active torsions:
REMARK  status: ('A' for Active; 'I' for Inactive)
REMARK    1  A    between atoms: C_20  and  C_21
REMARK    2  A    between atoms: C_30  and  C_31
REMARK                            x       y       z     vdW  Elec       q    Type
REMARK                         _______ _______ _______ _____ _____    ______ ____
ROOT
ATOM      1  C   UNL     1      -4.517  12.007  69.962  0.00  0.00    +0.032 C 
ATOM      2  C   UNL     1      -5.086  12.669  69.958  0.00  0.00    -0.005 C 
ATOM      3  C   UNL     1      -6.164  12.795  69.166  0.00  0.00    +0.124 C 
ATOM      4  C   UNL     1      -6.899  13.939  68.817  0.00  0.00    +0.280 C 
ATOM      5  O   UNL     1      -6.311  14.784  69.624  0.00  0.00    -0.267 OA
ATOM      6  N   UNL     1      -7.019  14.433  67.417  0.00  0.00    -0.191 NA
ATOM      7  C   UNL     1      -8.513  14.067  67.680  0.00  0.00    +0.194 C 
ATOM      8  C   UNL     1      -9.198  14.428  66.250  0.00  0.00    +0.337 C 
ATOM      9  O   UNL     1      -8.852  15.491  65.721  0.00  0.00    -0.248 OA
ATOM     10  O   UNL     1     -10.583  14.221  66.508  0.00  0.00    -0.446 OA
ATOM     11  C   UNL     1     -10.860  12.708  66.546  0.00  0.00    +0.200 C 
ATOM     12  C   UNL     1     -11.300  12.705  68.133  0.00  0.00    +0.135 C 
ATOM     13  C   UNL     1     -11.276  11.264  68.569  0.00  0.00    +0.246 C 
ATOM     14  N   UNL     1     -10.193  10.740  69.352  0.00  0.00    -0.198 NA
ATOM     15  C   UNL     1      -9.519   9.403  68.850  0.00  0.00    +0.173 C 
ATOM     16  C   UNL     1      -8.084   9.771  69.490  0.00  0.00    +0.262 C 
ATOM     17  N   UNL     1      -7.113  10.267  68.552  0.00  0.00    -0.195 NA
ATOM     18  C   UNL     1      -7.744  11.510  67.811  0.00  0.00    +0.185 C 
ATOM     19  C   UNL     1      -8.419  10.582  66.660  0.00  0.00    +0.100 C 
ATOM     20  S   UNL     1      -7.929  10.841  65.035  0.00  0.00    -0.080 S 
ATOM     21  S   UNL     1      -9.289  10.573  63.528  0.00  0.00    -0.082 S 
ATOM     22  C   UNL     1     -10.342  12.054  63.405  0.00  0.00    +0.073 C 
ATOM     23  C   UNL     1     -11.648  11.634  64.034  0.00  0.00    +0.038 C 
ATOM     24  C   UNL     1     -12.344  12.768  64.710  0.00  0.00    -0.026 C 
ATOM     25  C   UNL     1      -6.481  11.865  66.859  0.00  0.00    +0.266 C 
ATOM     26  O   UNL     1      -5.896  10.890  66.333  0.00  0.00    -0.271 OA
ATOM     27  O   UNL     1      -7.950   9.812  70.712  0.00  0.00    -0.271 OA
ATOM     28  O   UNL     1     -12.492  10.928  68.738  0.00  0.00    -0.273 OA
ATOM     29  C   UNL     1     -12.391  12.895  66.045  0.00  0.00    +0.013 C 
ATOM     30  N   UNL     1      -5.955  12.646  67.755  0.00  0.00    -0.173 NA
ENDROOT
BRANCH   7  31
ATOM     31  C   UNL     1      -8.885  15.560  68.286  0.00  0.00    +0.031 C 
ATOM     32  C   UNL     1      -7.839  16.383  68.586  0.00  0.00    +0.002 C 
ATOM     33  C   UNL     1      -9.574  15.403  69.615  0.00  0.00    +0.002 C 
ENDBRANCH   7  31
BRANCH  15  34
ATOM     34  C   UNL     1      -9.997   8.498  70.139  0.00  0.00    +0.029 C 
ATOM     35  C   UNL     1     -11.024   9.193  70.925  0.00  0.00    +0.002 C 
ATOM     36  C   UNL     1     -10.691   7.298  69.495  0.00  0.00    +0.002 C 
ENDBRANCH  15  34
TORSDOF 2
ENDMDL
MODEL 4
REMARK VINA RESULT:      -6.3      3.749      6.965
REMARK  Name = 
REMARK  2 active torsions:
REMARK  status: ('A' for Active; 'I' for Inactive)
REMARK    1  A    between atoms: C_20  and  C_21
REMARK    2  A    between atoms: C_30  and  C_31
REMARK                            x       y       z     vdW  Elec       q    Type
REMARK                         _______ _______ _______ _____ _____    ______ ____
ROOT
ATOM      1  C   UNL     1      -9.428  11.366  65.941  0.00  0.00    +0.032 C 
ATOM      2  C   UNL     1      -9.501  10.504  65.821  0.00  0.00    -0.005 C 
ATOM      3  C   UNL     1      -9.286   9.545  66.738  0.00  0.00    +0.124 C 
ATOM      4  C   UNL     1      -9.009   8.180  66.569  0.00  0.00    +0.280 C 
ATOM      5  O   UNL     1      -9.193   8.118  65.276  0.00  0.00    -0.267 OA
ATOM      6  N   UNL     1      -7.742   7.543  67.025  0.00  0.00    -0.191 NA
ATOM      7  C   UNL     1      -8.745   6.795  67.957  0.00  0.00    +0.194 C 
ATOM      8  C   UNL     1      -7.746   5.853  68.829  0.00  0.00    +0.337 C 
ATOM      9  O   UNL     1      -6.848   5.272  68.207  0.00  0.00    -0.248 OA
ATOM     10  O   UNL     1      -8.652   5.068  69.598  0.00  0.00    -0.446 OA
ATOM     11  C   UNL     1      -9.226   5.941  70.729  0.00  0.00    +0.200 C 
ATOM     12  C   UNL     1     -10.771   5.870  70.164  0.00  0.00    +0.135 C 
ATOM     13  C   UNL     1     -11.526   6.960  70.877  0.00  0.00    +0.246 C 
ATOM     14  N   UNL     1     -11.840   8.199  70.224  0.00  0.00    -0.198 NA
ATOM     15  C   UNL     1     -11.477   9.532  70.989  0.00  0.00    +0.173 C 
ATOM     16  C   UNL     1     -11.265  10.371  69.626  0.00  0.00    +0.262 C 
ATOM     17  N   UNL     1      -9.892  10.563  69.242  0.00  0.00    -0.195 NA
ATOM     18  C   UNL     1      -9.210   9.142  69.151  0.00  0.00    +0.185 C 
ATOM     19  C   UNL     1      -8.797   9.151  70.722  0.00  0.00    +0.100 C 
ATOM     20  S   UNL     1      -7.126   9.072  71.110  0.00  0.00    -0.080 S 
ATOM     21  S   UNL     1      -6.541   8.087  72.807  0.00  0.00    -0.082 S 
ATOM     22  C   UNL     1      -6.509   6.296  72.476  0.00  0.00    +0.073 C 
ATOM     23  C   UNL     1      -7.751   5.771  73.154  0.00  0.00    +0.038 C 
ATOM     24  C   UNL     1      -8.329   4.591  72.446  0.00  0.00    -0.026 C 
ATOM     25  C   UNL     1      -7.731   9.635  68.704  0.00  0.00    +0.266 C 
ATOM     26  O   UNL     1      -7.288  10.649  69.292  0.00  0.00    -0.271 OA
ATOM     27  O   UNL     1     -12.227  10.616  68.902  0.00  0.00    -0.271 OA
ATOM     28  O   UNL     1     -12.314   6.371  71.684  0.00  0.00    -0.273 OA
ATOM     29  C   UNL     1      -9.446   4.666  71.708  0.00  0.00    +0.013 C 
ATOM     30  N   UNL     1      -8.036   9.588  67.441  0.00  0.00    -0.173 NA
ENDROOT
BRANCH   7  31
ATOM     31  C   UNL     1      -9.017   5.579  66.870  0.00  0.00    +0.031 C 
ATOM     32  C   UNL     1      -8.494   5.740  65.621  0.00  0.00    +0.002 C 
ATOM     33  C   UNL     1     -10.494   5.471  66.599  0.00  0.00    +0.002 C 
ENDBRANCH   7  31
BRANCH  15  34
ATOM     34  C   UNL     1     -13.034  10.022  71.191  0.00  0.00    +0.029 C 
ATOM     35  C   UNL     1     -13.697   9.260  72.256  0.00  0.00    +0.002 C 
ATOM     36  C   UNL     1     -12.894  11.452  71.713  0.00  0.00    +0.002 C 
ENDBRANCH  15  34
TORSDOF 2
ENDMDL
MODEL 5
REMARK VINA RESULT:      -5.9      2.506      5.324
REMARK  Name = 
REMARK  2 active torsions:
REMARK  status: ('A' for Active; 'I' for Inactive)
REMARK    1  A    between atoms: C_20  and  C_21
REMARK    2  A    between atoms: C_30  and  C_31
REMARK                            x       y       z     vdW  Elec       q    Type
REMARK                         _______ _______ _______ _____ _____    ______ ____
ROOT
ATOM      1  C   UNL     1      -8.317  17.032  66.842  0.00  0.00    +0.032 C 
ATOM      2  C   UNL     1      -7.695  16.422  66.895  0.00  0.00    -0.005 C 
ATOM      3  C   UNL     1      -7.855  15.143  67.278  0.00  0.00    +0.124 C 
ATOM      4  C   UNL     1      -6.912  14.217  67.751  0.00  0.00    +0.280 C 
ATOM      5  O   UNL     1      -5.837  14.932  67.542  0.00  0.00    -0.267 OA
ATOM      6  N   UNL     1      -6.976  13.615  69.111  0.00  0.00    -0.191 NA
ATOM      7  C   UNL     1      -7.192  12.326  68.259  0.00  0.00    +0.194 C 
ATOM      8  C   UNL     1      -7.380  11.195  69.412  0.00  0.00    +0.337 C 
ATOM      9  O   UNL     1      -6.598  11.242  70.369  0.00  0.00    -0.248 OA
ATOM     10  O   UNL     1      -7.452   9.990  68.657  0.00  0.00    -0.446 OA
ATOM     11  C   UNL     1      -8.837   9.904  67.990  0.00  0.00    +0.200 C 
ATOM     12  C   UNL     1      -8.239   9.983  66.458  0.00  0.00    +0.135 C 
ATOM     13  C   UNL     1      -9.413  10.297  65.569  0.00  0.00    +0.246 C 
ATOM     14  N   UNL     1      -9.624  11.620  65.054  0.00  0.00    -0.198 NA
ATOM     15  C   UNL     1     -11.063  12.245  65.235  0.00  0.00    +0.173 C 
ATOM     16  C   UNL     1     -10.507  13.759  65.280  0.00  0.00    +0.262 C 
ATOM     17  N   UNL     1     -10.413  14.330  66.597  0.00  0.00    -0.195 NA
ATOM     18  C   UNL     1      -9.528  13.369  67.482  0.00  0.00    +0.185 C 
ATOM     19  C   UNL     1     -10.807  12.475  67.933  0.00  0.00    +0.100 C 
ATOM     20  S   UNL     1     -11.182  12.403  69.607  0.00  0.00    -0.080 S 
ATOM     21  S   UNL     1     -11.971  10.680  70.381  0.00  0.00    -0.082 S 
ATOM     22  C   UNL     1     -10.625   9.487  70.672  0.00  0.00    +0.073 C 
ATOM     23  C   UNL     1     -10.758   8.494  69.542  0.00  0.00    +0.038 C 
ATOM     24  C   UNL     1      -9.442   7.926  69.128  0.00  0.00    -0.026 C 
ATOM     25  C   UNL     1      -9.575  14.227  68.857  0.00  0.00    +0.266 C 
ATOM     26  O   UNL     1     -10.686  14.722  69.159  0.00  0.00    -0.271 OA
ATOM     27  O   UNL     1     -10.015  14.262  64.271  0.00  0.00    -0.271 OA
ATOM     28  O   UNL     1      -9.641   9.238  64.901  0.00  0.00    -0.273 OA
ATOM     29  C   UNL     1      -8.825   8.282  67.992  0.00  0.00    +0.013 C 
ATOM     30  N   UNL     1      -8.524  14.918  68.526  0.00  0.00    -0.173 NA
ENDROOT
BRANCH   7  31
ATOM     31  C   UNL     1      -5.575  12.001  68.142  0.00  0.00    +0.031 C 
ATOM     32  C   UNL     1      -4.718  12.975  68.564  0.00  0.00    +0.002 C 
ATOM     33  C   UNL     1      -5.201  11.838  66.692  0.00  0.00    +0.002 C 
ENDBRANCH   7  31
BRANCH  15  34
ATOM     34  C   UNL     1     -11.413  12.293  63.628  0.00  0.00    +0.029 C 
ATOM     35  C   UNL     1     -10.561  11.368  62.871  0.00  0.00    +0.002 C 
ATOM     36  C   UNL     1     -12.831  11.725  63.554  0.00  0.00    +0.002 C 
ENDBRANCH  15  34
TORSDOF 2
ENDMDL
MODEL 6
REMARK VINA RESULT:      -5.8      4.856      8.214
REMARK  Name = 
REMARK  2 active torsions:
REMARK  status: ('A' for Active; 'I' for Inactive)
REMARK    1  A    between atoms: C_20  and  C_21
REMARK    2  A    between atoms: C_30  and  C_31
REMARK                            x       y       z     vdW  Elec       q    Type
REMARK                         _______ _______ _______ _____ _____    ______ ____
ROOT
ATOM      1  C   UNL     1      -7.274   9.713  67.541  0.00  0.00    +0.032 C 
ATOM      2  C   UNL     1      -7.480   8.866  67.495  0.00  0.00    -0.005 C 
ATOM      3  C   UNL     1      -7.837   8.071  68.519  0.00  0.00    +0.124 C 
ATOM      4  C   UNL     1      -7.817   6.671  68.624  0.00  0.00    +0.280 C 
ATOM      5  O   UNL     1      -7.509   6.402  67.382  0.00  0.00    -0.267 OA
ATOM      6  N   UNL     1      -6.983   5.942  69.620  0.00  0.00    -0.191 NA
ATOM      7  C   UNL     1      -8.399   5.542  70.141  0.00  0.00    +0.194 C 
ATOM      8  C   UNL     1      -8.029   4.634  71.438  0.00  0.00    +0.337 C 
ATOM      9  O   UNL     1      -7.110   3.817  71.300  0.00  0.00    -0.248 OA
ATOM     10  O   UNL     1      -9.303   4.154  71.855  0.00  0.00    -0.446 OA
ATOM     11  C   UNL     1     -10.059   5.297  72.555  0.00  0.00    +0.200 C 
ATOM     12  C   UNL     1     -11.254   5.362  71.423  0.00  0.00    +0.135 C 
ATOM     13  C   UNL     1     -11.969   6.668  71.648  0.00  0.00    +0.246 C 
ATOM     14  N   UNL     1     -11.740   7.799  70.794  0.00  0.00    -0.198 NA
ATOM     15  C   UNL     1     -11.415   9.178  71.492  0.00  0.00    +0.173 C 
ATOM     16  C   UNL     1     -10.531   9.709  70.250  0.00  0.00    +0.262 C 
ATOM     17  N   UNL     1      -9.108   9.613  70.436  0.00  0.00    -0.195 NA
ATOM     18  C   UNL     1      -8.763   8.112  70.783  0.00  0.00    +0.185 C 
ATOM     19  C   UNL     1      -8.981   8.346  72.376  0.00  0.00    +0.100 C 
ATOM     20  S   UNL     1      -7.639   8.083  73.413  0.00  0.00    -0.080 S 
ATOM     21  S   UNL     1      -7.962   7.349  75.298  0.00  0.00    -0.082 S 
ATOM     22  C   UNL     1      -8.192   5.545  75.203  0.00  0.00    +0.073 C 
ATOM     23  C   UNL     1      -9.680   5.351  75.372  0.00  0.00    +0.038 C 
ATOM     24  C   UNL     1     -10.187   4.164  74.622  0.00  0.00    -0.026 C 
ATOM     25  C   UNL     1      -7.156   8.280  70.923  0.00  0.00    +0.266 C 
ATOM     26  O   UNL     1      -6.761   9.304  71.527  0.00  0.00    -0.271 OA
ATOM     27  O   UNL     1     -11.073   9.962  69.176  0.00  0.00    -0.271 OA
ATOM     28  O   UNL     1     -13.110   6.367  72.125  0.00  0.00    -0.273 OA
ATOM     29  C   UNL     1     -10.899   4.274  73.491  0.00  0.00    +0.013 C 
ATOM     30  N   UNL     1      -6.967   8.049  69.658  0.00  0.00    -0.173 NA
ENDROOT
BRANCH   7  31
ATOM     31  C   UNL     1      -8.496   4.203  69.175  0.00  0.00    +0.031 C 
ATOM     32  C   UNL     1      -7.485   4.016  68.277  0.00  0.00    +0.002 C 
ATOM     33  C   UNL     1      -9.708   4.312  68.289  0.00  0.00    +0.002 C 
ENDBRANCH   7  31
BRANCH  15  34
ATOM     34  C   UNL     1     -12.790   9.931  70.991  0.00  0.00    +0.029 C 
ATOM     35  C   UNL     1     -13.953   9.482  71.765  0.00  0.00    +0.002 C 
ATOM     36  C   UNL     1     -12.557  11.392  71.379  0.00  0.00    +0.002 C 
ENDBRANCH  15  34
TORSDOF 2
ENDMDL
MODEL 7
REMARK VINA RESULT:      -5.6      4.237      7.165
REMARK  Name = 
REMARK  2 active torsions:
REMARK  status: ('A' for Active; 'I' for Inactive)
REMARK    1  A    between atoms: C_20  and  C_21
REMARK    2  A    between atoms: C_30  and  C_31
REMARK                            x       y       z     vdW  Elec       q    Type
REMARK                         _______ _______ _______ _____ _____    ______ ____
ROOT
ATOM      1  C   UNL     1      -9.868   2.911  72.046  0.00  0.00    +0.032 C 
ATOM      2  C   UNL     1      -9.542   3.154  71.273  0.00  0.00    -0.005 C 
ATOM      3  C   UNL     1      -9.593   4.383  70.732  0.00  0.00    +0.124 C 
ATOM      4  C   UNL     1      -9.454   4.788  69.395  0.00  0.00    +0.280 C 
ATOM      5  O   UNL     1      -9.101   3.632  68.893  0.00  0.00    -0.267 OA
ATOM      6  N   UNL     1     -10.539   5.466  68.632  0.00  0.00    -0.191 NA
ATOM      7  C   UNL     1      -9.490   6.621  68.652  0.00  0.00    +0.194 C 
ATOM      8  C   UNL     1     -10.285   7.803  67.868  0.00  0.00    +0.337 C 
ATOM      9  O   UNL     1     -10.901   7.475  66.846  0.00  0.00    -0.248 OA
ATOM     10  O   UNL     1      -9.299   8.825  67.763  0.00  0.00    -0.446 OA
ATOM     11  C   UNL     1      -9.136   9.499  69.137  0.00  0.00    +0.200 C 
ATOM     12  C   UNL     1      -7.575   9.010  69.327  0.00  0.00    +0.135 C 
ATOM     13  C   UNL     1      -7.249   9.214  70.783  0.00  0.00    +0.246 C 
ATOM     14  N   UNL     1      -7.215   8.111  71.700  0.00  0.00    -0.198 NA
ATOM     15  C   UNL     1      -8.028   8.264  73.046  0.00  0.00    +0.173 C 
ATOM     16  C   UNL     1      -8.296   6.679  73.179  0.00  0.00    +0.262 C 
ATOM     17  N   UNL     1      -9.609   6.251  72.776  0.00  0.00    -0.195 NA
ATOM     18  C   UNL     1      -9.851   6.750  71.298  0.00  0.00    +0.185 C 
ATOM     19  C   UNL     1     -10.441   8.181  71.792  0.00  0.00    +0.100 C 
ATOM     20  S   UNL     1     -12.057   8.570  71.364  0.00  0.00    -0.080 S 
ATOM     21  S   UNL     1     -12.549  10.522  70.992  0.00  0.00    -0.082 S 
ATOM     22  C   UNL     1     -12.038  10.952  69.297  0.00  0.00    +0.073 C 
ATOM     23  C   UNL     1     -10.792  11.784  69.484  0.00  0.00    +0.038 C 
ATOM     24  C   UNL     1      -9.825  11.619  68.359  0.00  0.00    -0.026 C 
ATOM     25  C   UNL     1     -11.342   6.143  71.100  0.00  0.00    +0.266 C 
ATOM     26  O   UNL     1     -12.119   6.265  72.075  0.00  0.00    -0.271 OA
ATOM     27  O   UNL     1      -7.359   5.915  73.404  0.00  0.00    -0.271 OA
ATOM     28  O   UNL     1      -6.433  10.190  70.827  0.00  0.00    -0.273 OA
ATOM     29  C   UNL     1      -8.691  10.913  68.478  0.00  0.00    +0.013 C 
ATOM     30  N   UNL     1     -10.881   5.009  70.661  0.00  0.00    -0.173 NA
ENDROOT
BRANCH   7  31
ATOM     31  C   UNL     1      -8.757   6.126  67.255  0.00  0.00    +0.031 C 
ATOM     32  C   UNL     1      -9.186   4.948  66.717  0.00  0.00    +0.002 C 
ATOM     33  C   UNL     1      -7.300   5.855  67.523  0.00  0.00    +0.002 C 
ENDBRANCH   7  31
BRANCH  15  34
ATOM     34  C   UNL     1      -6.707   8.246  74.026  0.00  0.00    +0.029 C 
ATOM     35  C   UNL     1      -5.707   9.227  73.588  0.00  0.00    +0.002 C 
ATOM     36  C   UNL     1      -7.247   8.755  75.363  0.00  0.00    +0.002 C 
ENDBRANCH  15  34
TORSDOF 2
ENDMDL
MODEL 8
REMARK VINA RESULT:      -5.5      2.457      6.805
REMARK  Name = 
REMARK  2 active torsions:
REMARK  status: ('A' for Active; 'I' for Inactive)
REMARK    1  A    between atoms: C_20  and  C_21
REMARK    2  A    between atoms: C_30  and  C_31
REMARK                            x       y       z     vdW  Elec       q    Type
REMARK                         _______ _______ _______ _____ _____    ______ ____
ROOT
ATOM      1  C   UNL     1      -4.176   7.861  65.335  0.00  0.00    +0.032 C 
ATOM      2  C   UNL     1      -4.228   8.434  65.991  0.00  0.00    -0.005 C 
ATOM      3  C   UNL     1      -5.270   9.232  66.279  0.00  0.00    +0.124 C 
ATOM      4  C   UNL     1      -5.322  10.413  67.036  0.00  0.00    +0.280 C 
ATOM      5  O   UNL     1      -4.097  10.388  67.493  0.00  0.00    -0.267 OA
ATOM      6  N   UNL     1      -5.721  11.729  66.465  0.00  0.00    -0.191 NA
ATOM      7  C   UNL     1      -6.896  11.529  67.472  0.00  0.00    +0.194 C 
ATOM      8  C   UNL     1      -7.791  12.861  67.204  0.00  0.00    +0.337 C 
ATOM      9  O   UNL     1      -7.178  13.929  67.094  0.00  0.00    -0.248 OA
ATOM     10  O   UNL     1      -8.802  12.761  68.201  0.00  0.00    -0.446 OA
ATOM     11  C   UNL     1      -9.817  11.685  67.774  0.00  0.00    +0.200 C 
ATOM     12  C   UNL     1      -9.477  10.689  69.041  0.00  0.00    +0.135 C 
ATOM     13  C   UNL     1     -10.068   9.350  68.687  0.00  0.00    +0.246 C 
ATOM     14  N   UNL     1      -9.243   8.271  68.223  0.00  0.00    -0.198 NA
ATOM     15  C   UNL     1      -9.695   7.531  66.903  0.00  0.00    +0.173 C 
ATOM     16  C   UNL     1      -8.186   7.137  66.491  0.00  0.00    +0.262 C 
ATOM     17  N   UNL     1      -7.600   7.969  65.475  0.00  0.00    -0.195 NA
ATOM     18  C   UNL     1      -7.686   9.467  65.964  0.00  0.00    +0.185 C 
ATOM     19  C   UNL     1      -9.162   9.677  65.319  0.00  0.00    +0.100 C 
ATOM     20  S   UNL     1      -9.340  10.876  64.104  0.00  0.00    -0.080 S 
ATOM     21  S   UNL     1     -11.101  11.913  63.975  0.00  0.00    -0.082 S 
ATOM     22  C   UNL     1     -11.105  13.237  65.226  0.00  0.00    +0.073 C 
ATOM     23  C   UNL     1     -12.022  12.722  66.309  0.00  0.00    +0.038 C 
ATOM     24  C   UNL     1     -11.624  13.201  67.665  0.00  0.00    -0.026 C 
ATOM     25  C   UNL     1      -6.969  10.159  64.684  0.00  0.00    +0.266 C 
ATOM     26  O   UNL     1      -7.298   9.712  63.561  0.00  0.00    -0.271 OA
ATOM     27  O   UNL     1      -7.558   6.324  67.168  0.00  0.00    -0.271 OA
ATOM     28  O   UNL     1     -11.064   9.190  69.463  0.00  0.00    -0.273 OA
ATOM     29  C   UNL     1     -11.034  12.405  68.569  0.00  0.00    +0.013 C 
ATOM     30  N   UNL     1      -5.787  10.037  65.210  0.00  0.00    -0.173 NA
ENDROOT
BRANCH   7  31
ATOM     31  C   UNL     1      -6.097  12.263  68.719  0.00  0.00    +0.031 C 
ATOM     32  C   UNL     1      -4.790  12.593  68.505  0.00  0.00    +0.002 C 
ATOM     33  C   UNL     1      -6.011  11.314  69.885  0.00  0.00    +0.002 C 
ENDBRANCH   7  31
BRANCH  15  34
ATOM     34  C   UNL     1     -10.002   6.089  67.634  0.00  0.00    +0.029 C 
ATOM     35  C   UNL     1     -11.109   6.202  68.590  0.00  0.00    +0.002 C 
ATOM     36  C   UNL     1     -10.513   5.211  66.491  0.00  0.00    +0.002 C 
ENDBRANCH  15  34
TORSDOF 2
ENDMDL
MODEL 9
REMARK VINA RESULT:      -5.5      4.402      7.368
REMARK  Name = 
REMARK  2 active torsions:
REMARK  status: ('A' for Active; 'I' for Inactive)
REMARK    1  A    between atoms: C_20  and  C_21
REMARK    2  A    between atoms: C_30  and  C_31
REMARK                            x       y       z     vdW  Elec       q    Type
REMARK                         _______ _______ _______ _____ _____    ______ ____
ROOT
ATOM      1  C   UNL     1      -9.082   4.465  74.562  0.00  0.00    +0.032 C 
ATOM      2  C   UNL     1      -8.436   5.001  74.324  0.00  0.00    -0.005 C 
ATOM      3  C   UNL     1      -8.268   5.569  73.117  0.00  0.00    +0.124 C 
ATOM      4  C   UNL     1      -7.116   6.114  72.528  0.00  0.00    +0.280 C 
ATOM      5  O   UNL     1      -6.329   6.042  73.571  0.00  0.00    -0.267 OA
ATOM      6  N   UNL     1      -6.507   5.574  71.281  0.00  0.00    -0.191 NA
ATOM      7  C   UNL     1      -6.930   6.984  70.761  0.00  0.00    +0.194 C 
ATOM      8  C   UNL     1      -6.464   6.915  69.204  0.00  0.00    +0.337 C 
ATOM      9  O   UNL     1      -5.352   6.424  68.979  0.00  0.00    -0.248 OA
ATOM     10  O   UNL     1      -6.726   8.237  68.744  0.00  0.00    -0.446 OA
ATOM     11  C   UNL     1      -8.243   8.403  68.546  0.00  0.00    +0.200 C 
ATOM     12  C   UNL     1      -8.393   9.552  69.716  0.00  0.00    +0.135 C 
ATOM     13  C   UNL     1      -9.865   9.651  70.017  0.00  0.00    +0.246 C 
ATOM     14  N   UNL     1     -10.427   9.050  71.192  0.00  0.00    -0.198 NA
ATOM     15  C   UNL     1     -11.700   8.135  70.997  0.00  0.00    +0.173 C 
ATOM     16  C   UNL     1     -11.354   7.213  72.276  0.00  0.00    +0.262 C 
ATOM     17  N   UNL     1     -10.756   5.943  71.961  0.00  0.00    -0.195 NA
ATOM     18  C   UNL     1      -9.470   6.215  71.087  0.00  0.00    +0.185 C 
ATOM     19  C   UNL     1     -10.311   6.191  69.697  0.00  0.00    +0.100 C 
ATOM     20  S   UNL     1      -9.902   4.996  68.535  0.00  0.00    -0.080 S 
ATOM     21  S   UNL     1     -10.072   5.440  66.544  0.00  0.00    -0.082 S 
ATOM     22  C   UNL     1      -8.612   6.393  66.019  0.00  0.00    +0.073 C 
ATOM     23  C   UNL     1      -9.116   7.812  65.905  0.00  0.00    +0.038 C 
ATOM     24  C   UNL     1      -8.061   8.817  66.229  0.00  0.00    -0.026 C 
ATOM     25  C   UNL     1      -9.003   4.674  70.893  0.00  0.00    +0.266 C 
ATOM     26  O   UNL     1      -9.916   3.849  70.657  0.00  0.00    -0.271 OA
ATOM     27  O   UNL     1     -11.415   7.688  73.408  0.00  0.00    -0.271 OA
ATOM     28  O   UNL     1     -10.243  10.775  69.552  0.00  0.00    -0.273 OA
ATOM     29  C   UNL     1      -8.050   9.510  67.378  0.00  0.00    +0.013 C 
ATOM     30  N   UNL     1      -8.290   4.696  71.980  0.00  0.00    -0.173 NA
ENDROOT
BRANCH   7  31
ATOM     31  C   UNL     1      -5.503   7.695  71.203  0.00  0.00    +0.031 C 
ATOM     32  C   UNL     1      -4.624   6.926  71.908  0.00  0.00    +0.002 C 
ATOM     33  C   UNL     1      -5.783   8.831  72.151  0.00  0.00    +0.002 C 
ENDBRANCH   7  31
BRANCH  15  34
ATOM     34  C   UNL     1     -12.723   9.118  71.832  0.00  0.00    +0.029 C 
ATOM     35  C   UNL     1     -12.951  10.378  71.115  0.00  0.00    +0.002 C 
ATOM     36  C   UNL     1     -14.052   8.361  71.798  0.00  0.00    +0.002 C 
ENDBRANCH  15  34
TORSDOF 2
ENDMDL
