MODEL 1
REMARK VINA RESULT:      -6.8      0.000      0.000
REMARK  Name = 
REMARK  5 active torsions:
REMARK  status: ('A' for Active; 'I' for Inactive)
REMARK    1  A    between atoms: C_2  and  O_4
REMARK    2  A    between atoms: C_2  and  C_20
REMARK    3  A    between atoms: O_4  and  C_5
REMARK    4  A    between atoms: C_8  and  C_9
REMARK    5  A    between atoms: C_9  and  C_11
REMARK                            x       y       z     vdW  Elec       q    Type
REMARK                         _______ _______ _______ _____ _____    ______ ____
ROOT
ATOM      1  C   UNL     1     -11.292  15.869  68.402  0.00  0.00    +0.139 A 
ATOM      2  C   UNL     1     -11.499  15.102  67.261  0.00  0.00    +0.037 A 
ATOM      3  C   UNL     1     -11.727  13.758  67.372  0.00  0.00    +0.006 A 
ATOM      4  C   UNL     1     -11.753  13.145  68.596  0.00  0.00    +0.039 A 
ATOM      5  C   UNL     1     -11.947  13.956  69.700  0.00  0.00    +0.006 A 
ATOM      6  C   UNL     1     -11.651  15.310  69.597  0.00  0.00    +0.037 A 
ENDROOT
BRANCH   4   7
ATOM      7  C   UNL     1     -11.908  11.709  68.684  0.00  0.00    +0.196 C 
ATOM      8  O   UNL     1     -12.018  10.990  67.668  0.00  0.00    -0.287 OA
BRANCH   7   9
ATOM      9  C   UNL     1     -11.647  11.034  69.962  0.00  0.00    +0.039 A 
ATOM     10  C   UNL     1     -10.517  10.250  70.117  0.00  0.00    +0.004 A 
ATOM     11  C   UNL     1     -10.516   9.162  70.980  0.00  0.00    +0.011 A 
ATOM     12  C   UNL     1     -11.698   8.787  71.602  0.00  0.00    +0.058 A 
ATOM     13 CL   UNL     1     -11.960   7.128  72.054  0.00  0.00    -0.082 Cl
ATOM     14  C   UNL     1     -12.638   9.787  71.769  0.00  0.00    +0.011 A 
ATOM     15  C   UNL     1     -12.699  10.788  70.808  0.00  0.00    +0.004 A 
ENDBRANCH   7   9
ENDBRANCH   4   7
BRANCH   1  16
ATOM     16  O   UNL     1     -11.017  17.195  68.184  0.00  0.00    -0.472 OA
BRANCH  16  18
ATOM     17  C   UNL     1      -8.622  16.962  68.555  0.00  0.00    +0.055 C 
ATOM     18  C   UNL     1      -9.752  17.751  67.954  0.00  0.00    +0.225 C 
ATOM     19  C   UNL     1      -9.786  19.168  68.514  0.00  0.00    +0.055 C 
BRANCH  18  20
ATOM     20  C   UNL     1      -9.610  17.896  66.471  0.00  0.00    +0.400 C 
ATOM     21  O   UNL     1     -10.555  18.573  65.726  0.00  0.00    -0.242 OA
ATOM     22  O   UNL     1      -8.611  17.322  65.948  0.00  0.00    -0.242 OA
ENDBRANCH  18  20
ENDBRANCH  16  18
ENDBRANCH   1  16
TORSDOF 5
ENDMDL
MODEL 2
REMARK VINA RESULT:      -6.7      2.340      3.278
REMARK  Name = 
REMARK  5 active torsions:
REMARK  status: ('A' for Active; 'I' for Inactive)
REMARK    1  A    between atoms: C_2  and  O_4
REMARK    2  A    between atoms: C_2  and  C_20
REMARK    3  A    between atoms: O_4  and  C_5
REMARK    4  A    between atoms: C_8  and  C_9
REMARK    5  A    between atoms: C_9  and  C_11
REMARK                            x       y       z     vdW  Elec       q    Type
REMARK                         _______ _______ _______ _____ _____    ______ ____
ROOT
ATOM      1  C   UNL     1     -11.048  13.446  67.640  0.00  0.00    +0.139 A 
ATOM      2  C   UNL     1     -11.327  12.089  67.531  0.00  0.00    +0.037 A 
ATOM      3  C   UNL     1     -11.772  11.392  68.621  0.00  0.00    +0.006 A 
ATOM      4  C   UNL     1     -11.947  12.009  69.831  0.00  0.00    +0.039 A 
ATOM      5  C   UNL     1     -12.057  13.388  69.821  0.00  0.00    +0.006 A 
ATOM      6  C   UNL     1     -11.544  14.094  68.738  0.00  0.00    +0.037 A 
ENDROOT
BRANCH   4   7
ATOM      7  C   UNL     1     -12.333  11.235  70.990  0.00  0.00    +0.196 C 
ATOM      8  O   UNL     1     -13.211  11.628  71.788  0.00  0.00    -0.287 OA
BRANCH   7   9
ATOM      9  C   UNL     1     -11.907   9.834  71.094  0.00  0.00    +0.039 A 
ATOM     10  C   UNL     1     -12.779   8.876  71.581  0.00  0.00    +0.004 A 
ATOM     11  C   UNL     1     -12.306   7.758  72.256  0.00  0.00    +0.011 A 
ATOM     12  C   UNL     1     -10.954   7.664  72.552  0.00  0.00    +0.058 A 
ATOM     13 CL   UNL     1     -10.424   6.766  73.944  0.00  0.00    -0.082 Cl
ATOM     14  C   UNL     1     -10.102   8.365  71.720  0.00  0.00    +0.011 A 
ATOM     15  C   UNL     1     -10.566   9.554  71.168  0.00  0.00    +0.004 A 
ENDBRANCH   7   9
ENDBRANCH   4   7
BRANCH   1  16
ATOM     16  O   UNL     1     -10.556  14.044  66.508  0.00  0.00    -0.472 OA
BRANCH  16  18
ATOM     17  C   UNL     1     -12.764  14.168  65.490  0.00  0.00    +0.055 C 
ATOM     18  C   UNL     1     -11.276  14.324  65.340  0.00  0.00    +0.225 C 
ATOM     19  C   UNL     1     -10.737  13.396  64.257  0.00  0.00    +0.055 C 
BRANCH  18  20
ATOM     20  C   UNL     1     -10.896  15.710  64.923  0.00  0.00    +0.400 C 
ATOM     21  O   UNL     1     -11.628  16.398  63.977  0.00  0.00    -0.242 OA
ATOM     22  O   UNL     1      -9.844  16.180  65.448  0.00  0.00    -0.242 OA
ENDBRANCH  18  20
ENDBRANCH  16  18
ENDBRANCH   1  16
TORSDOF 5
ENDMDL
MODEL 3
REMARK VINA RESULT:      -6.5      2.471      3.477
REMARK  Name = 
REMARK  5 active torsions:
REMARK  status: ('A' for Active; 'I' for Inactive)
REMARK    1  A    between atoms: C_2  and  O_4
REMARK    2  A    between atoms: C_2  and  C_20
REMARK    3  A    between atoms: O_4  and  C_5
REMARK    4  A    between atoms: C_8  and  C_9
REMARK    5  A    between atoms: C_9  and  C_11
REMARK                            x       y       z     vdW  Elec       q    Type
REMARK                         _______ _______ _______ _____ _____    ______ ____
ROOT
ATOM      1  C   UNL     1     -10.169  12.626  66.343  0.00  0.00    +0.139 A 
ATOM      2  C   UNL     1      -9.132  12.665  67.268  0.00  0.00    +0.037 A 
ATOM      3  C   UNL     1      -9.019  11.681  68.211  0.00  0.00    +0.006 A 
ATOM      4  C   UNL     1      -9.916  10.648  68.266  0.00  0.00    +0.039 A 
ATOM      5  C   UNL     1     -10.668  10.410  67.130  0.00  0.00    +0.006 A 
ATOM      6  C   UNL     1     -10.833  11.437  66.207  0.00  0.00    +0.037 A 
ENDROOT
BRANCH   4   7
ATOM      7  C   UNL     1      -9.828   9.667  69.326  0.00  0.00    +0.196 C 
ATOM      8  O   UNL     1      -8.878   8.859  69.404  0.00  0.00    -0.287 OA
BRANCH   7   9
ATOM      9  C   UNL     1     -10.704   9.793  70.497  0.00  0.00    +0.039 A 
ATOM     10  C   UNL     1     -10.719   8.804  71.465  0.00  0.00    +0.004 A 
ATOM     11  C   UNL     1     -11.866   8.545  72.203  0.00  0.00    +0.011 A 
ATOM     12  C   UNL     1     -13.045   9.202  71.882  0.00  0.00    +0.058 A 
ATOM     13 CL   UNL     1     -14.580   8.452  72.204  0.00  0.00    -0.082 Cl
ATOM     14  C   UNL     1     -12.903  10.425  71.253  0.00  0.00    +0.011 A 
ATOM     15  C   UNL     1     -11.811  10.600  70.412  0.00  0.00    +0.004 A 
ENDBRANCH   7   9
ENDBRANCH   4   7
BRANCH   1  16
ATOM     16  O   UNL     1     -10.231  13.685  65.474  0.00  0.00    -0.472 OA
BRANCH  16  18
ATOM     17  C   UNL     1      -9.774  16.025  65.965  0.00  0.00    +0.055 C 
ATOM     18  C   UNL     1     -10.790  14.941  65.739  0.00  0.00    +0.225 C 
ATOM     19  C   UNL     1     -11.689  14.773  66.959  0.00  0.00    +0.055 C 
BRANCH  18  20
ATOM     20  C   UNL     1     -11.703  15.255  64.595  0.00  0.00    +0.400 C 
ATOM     21  O   UNL     1     -11.611  16.453  63.916  0.00  0.00    -0.242 OA
ATOM     22  O   UNL     1     -12.583  14.385  64.331  0.00  0.00    -0.242 OA
ENDBRANCH  18  20
ENDBRANCH  16  18
ENDBRANCH   1  16
TORSDOF 5
ENDMDL
MODEL 4
REMARK VINA RESULT:      -6.5      4.084      6.286
REMARK  Name = 
REMARK  5 active torsions:
REMARK  status: ('A' for Active; 'I' for Inactive)
REMARK    1  A    between atoms: C_2  and  O_4
REMARK    2  A    between atoms: C_2  and  C_20
REMARK    3  A    between atoms: O_4  and  C_5
REMARK    4  A    between atoms: C_8  and  C_9
REMARK    5  A    between atoms: C_9  and  C_11
REMARK                            x       y       z     vdW  Elec       q    Type
REMARK                         _______ _______ _______ _____ _____    ______ ____
ROOT
ATOM      1  C   UNL     1     -11.823  14.595  70.081  0.00  0.00    +0.139 A 
ATOM      2  C   UNL     1     -11.803  13.335  69.494  0.00  0.00    +0.037 A 
ATOM      3  C   UNL     1     -11.702  13.215  68.135  0.00  0.00    +0.006 A 
ATOM      4  C   UNL     1     -11.621  14.322  67.332  0.00  0.00    +0.039 A 
ATOM      5  C   UNL     1     -11.242  15.507  67.935  0.00  0.00    +0.006 A 
ATOM      6  C   UNL     1     -11.409  15.645  69.309  0.00  0.00    +0.037 A 
ENDROOT
BRANCH   4   7
ATOM      7  C   UNL     1     -11.603  14.173  65.893  0.00  0.00    +0.196 C 
ATOM      8  O   UNL     1     -11.542  15.157  65.125  0.00  0.00    -0.287 OA
BRANCH   7   9
ATOM      9  C   UNL     1     -11.362  12.848  65.310  0.00  0.00    +0.039 A 
ATOM     10  C   UNL     1     -10.219  12.140  65.638  0.00  0.00    +0.004 A 
ATOM     11  C   UNL     1      -9.643  11.256  64.735  0.00  0.00    +0.011 A 
ATOM     12  C   UNL     1     -10.151  11.173  63.447  0.00  0.00    +0.058 A 
ATOM     13 CL   UNL     1      -9.116  10.713  62.127  0.00  0.00    -0.082 Cl
ATOM     14  C   UNL     1     -11.477  11.532  63.295  0.00  0.00    +0.011 A 
ATOM     15  C   UNL     1     -11.982  12.521  64.131  0.00  0.00    +0.004 A 
ENDBRANCH   7   9
ENDBRANCH   4   7
BRANCH   1  16
ATOM     16  O   UNL     1     -11.983  14.612  71.444  0.00  0.00    -0.472 OA
BRANCH  16  18
ATOM     17  C   UNL     1     -13.582  13.089  72.467  0.00  0.00    +0.055 C 
ATOM     18  C   UNL     1     -13.196  14.503  72.135  0.00  0.00    +0.225 C 
ATOM     19  C   UNL     1     -14.258  15.169  71.268  0.00  0.00    +0.055 C 
BRANCH  18  20
ATOM     20  C   UNL     1     -13.070  15.354  73.360  0.00  0.00    +0.400 C 
ATOM     21  O   UNL     1     -12.195  15.022  74.374  0.00  0.00    -0.242 OA
ATOM     22  O   UNL     1     -13.844  16.353  73.425  0.00  0.00    -0.242 OA
ENDBRANCH  18  20
ENDBRANCH  16  18
ENDBRANCH   1  16
TORSDOF 5
ENDMDL
MODEL 5
REMARK VINA RESULT:      -6.5      3.749      4.655
REMARK  Name = 
REMARK  5 active torsions:
REMARK  status: ('A' for Active; 'I' for Inactive)
REMARK    1  A    between atoms: C_2  and  O_4
REMARK    2  A    between atoms: C_2  and  C_20
REMARK    3  A    between atoms: O_4  and  C_5
REMARK    4  A    between atoms: C_8  and  C_9
REMARK    5  A    between atoms: C_9  and  C_11
REMARK                            x       y       z     vdW  Elec       q    Type
REMARK                         _______ _______ _______ _____ _____    ______ ____
ROOT
ATOM      1  C   UNL     1      -9.714  16.730  66.914  0.00  0.00    +0.139 A 
ATOM      2  C   UNL     1     -10.607  16.160  67.815  0.00  0.00    +0.037 A 
ATOM      3  C   UNL     1     -11.431  15.146  67.412  0.00  0.00    +0.006 A 
ATOM      4  C   UNL     1     -11.399  14.677  66.126  0.00  0.00    +0.039 A 
ATOM      5  C   UNL     1     -10.267  14.960  65.384  0.00  0.00    +0.006 A 
ATOM      6  C   UNL     1      -9.468  16.034  65.762  0.00  0.00    +0.037 A 
ENDROOT
BRANCH   4   7
ATOM      7  C   UNL     1     -12.341  13.665  65.700  0.00  0.00    +0.196 C 
ATOM      8  O   UNL     1     -13.527  13.939  65.417  0.00  0.00    -0.287 OA
BRANCH   7   9
ATOM      9  C   UNL     1     -11.845  12.339  65.311  0.00  0.00    +0.039 A 
ATOM     10  C   UNL     1     -11.162  11.556  66.226  0.00  0.00    +0.004 A 
ATOM     11  C   UNL     1     -10.189  10.656  65.809  0.00  0.00    +0.011 A 
ATOM     12  C   UNL     1      -9.813  10.631  64.474  0.00  0.00    +0.058 A 
ATOM     13 CL   UNL     1      -8.208  10.135  64.027  0.00  0.00    -0.082 Cl
ATOM     14  C   UNL     1     -10.761  11.074  63.570  0.00  0.00    +0.011 A 
ATOM     15  C   UNL     1     -11.632  12.075  63.982  0.00  0.00    +0.004 A 
ENDBRANCH   7   9
ENDBRANCH   4   7
BRANCH   1  16
ATOM     16  O   UNL     1      -8.970  17.776  67.396  0.00  0.00    -0.472 OA
BRANCH  16  18
ATOM     17  C   UNL     1      -9.715  19.749  68.611  0.00  0.00    +0.055 C 
ATOM     18  C   UNL     1      -9.296  19.135  67.305  0.00  0.00    +0.225 C 
ATOM     19  C   UNL     1     -10.406  19.252  66.267  0.00  0.00    +0.055 C 
BRANCH  18  20
ATOM     20  C   UNL     1      -8.105  19.824  66.715  0.00  0.00    +0.400 C 
ATOM     21  O   UNL     1      -7.581  20.963  67.291  0.00  0.00    -0.242 OA
ATOM     22  O   UNL     1      -7.652  19.330  65.642  0.00  0.00    -0.242 OA
ENDBRANCH  18  20
ENDBRANCH  16  18
ENDBRANCH   1  16
TORSDOF 5
ENDMDL
MODEL 6
REMARK VINA RESULT:      -6.4      4.761      5.858
REMARK  Name = 
REMARK  5 active torsions:
REMARK  status: ('A' for Active; 'I' for Inactive)
REMARK    1  A    between atoms: C_2  and  O_4
REMARK    2  A    between atoms: C_2  and  C_20
REMARK    3  A    between atoms: O_4  and  C_5
REMARK    4  A    between atoms: C_8  and  C_9
REMARK    5  A    between atoms: C_9  and  C_11
REMARK                            x       y       z     vdW  Elec       q    Type
REMARK                         _______ _______ _______ _____ _____    ______ ____
ROOT
ATOM      1  C   UNL     1      -8.419  18.381  68.264  0.00  0.00    +0.139 A 
ATOM      2  C   UNL     1      -9.117  19.118  67.314  0.00  0.00    +0.037 A 
ATOM      3  C   UNL     1      -9.935  18.483  66.420  0.00  0.00    +0.006 A 
ATOM      4  C   UNL     1     -10.080  17.121  66.439  0.00  0.00    +0.039 A 
ATOM      5  C   UNL     1      -9.717  16.469  67.603  0.00  0.00    +0.006 A 
ATOM      6  C   UNL     1      -8.834  17.095  68.476  0.00  0.00    +0.037 A 
ENDROOT
BRANCH   4   7
ATOM      7  C   UNL     1     -10.880  16.464  65.429  0.00  0.00    +0.196 C 
ATOM      8  O   UNL     1     -11.235  17.045  64.381  0.00  0.00    -0.287 OA
BRANCH   7   9
ATOM      9  C   UNL     1     -11.048  15.006  65.481  0.00  0.00    +0.039 A 
ATOM     10  C   UNL     1     -10.159  14.180  64.817  0.00  0.00    +0.004 A 
ATOM     11  C   UNL     1     -10.564  12.948  64.319  0.00  0.00    +0.011 A 
ATOM     12  C   UNL     1     -11.905  12.597  64.382  0.00  0.00    +0.058 A 
ATOM     13 CL   UNL     1     -12.583  11.516  63.200  0.00  0.00    -0.082 Cl
ATOM     14  C   UNL     1     -12.642  13.202  65.383  0.00  0.00    +0.011 A 
ATOM     15  C   UNL     1     -12.289  14.492  65.760  0.00  0.00    +0.004 A 
ENDBRANCH   7   9
ENDBRANCH   4   7
BRANCH   1  16
ATOM     16  O   UNL     1      -7.584  19.101  69.079  0.00  0.00    -0.472 OA
BRANCH  16  18
ATOM     17  C   UNL     1      -5.636  18.492  67.752  0.00  0.00    +0.055 C 
ATOM     18  C   UNL     1      -6.200  19.251  68.920  0.00  0.00    +0.225 C 
ATOM     19  C   UNL     1      -5.557  18.799  70.226  0.00  0.00    +0.055 C 
BRANCH  18  20
ATOM     20  C   UNL     1      -5.936  20.720  68.818  0.00  0.00    +0.400 C 
ATOM     21  O   UNL     1      -6.245  21.423  67.671  0.00  0.00    -0.242 OA
ATOM     22  O   UNL     1      -5.372  21.255  69.816  0.00  0.00    -0.242 OA
ENDBRANCH  18  20
ENDBRANCH  16  18
ENDBRANCH   1  16
TORSDOF 5
ENDMDL
MODEL 7
REMARK VINA RESULT:      -6.4      3.758      4.629
REMARK  Name = 
REMARK  5 active torsions:
REMARK  status: ('A' for Active; 'I' for Inactive)
REMARK    1  A    between atoms: C_2  and  O_4
REMARK    2  A    between atoms: C_2  and  C_20
REMARK    3  A    between atoms: O_4  and  C_5
REMARK    4  A    between atoms: C_8  and  C_9
REMARK    5  A    between atoms: C_9  and  C_11
REMARK                            x       y       z     vdW  Elec       q    Type
REMARK                         _______ _______ _______ _____ _____    ______ ____
ROOT
ATOM      1  C   UNL     1      -9.528  16.513  67.223  0.00  0.00    +0.139 A 
ATOM      2  C   UNL     1     -10.517  15.933  68.009  0.00  0.00    +0.037 A 
ATOM      3  C   UNL     1     -11.355  14.995  67.472  0.00  0.00    +0.006 A 
ATOM      4  C   UNL     1     -11.243  14.614  66.161  0.00  0.00    +0.039 A 
ATOM      5  C   UNL     1     -10.042  14.885  65.531  0.00  0.00    +0.006 A 
ATOM      6  C   UNL     1      -9.225  15.885  66.046  0.00  0.00    +0.037 A 
ENDROOT
BRANCH   4   7
ATOM      7  C   UNL     1     -12.196  13.687  65.592  0.00  0.00    +0.196 C 
ATOM      8  O   UNL     1     -13.322  14.054  65.193  0.00  0.00    -0.287 OA
BRANCH   7   9
ATOM      9  C   UNL     1     -11.749  12.344  65.203  0.00  0.00    +0.039 A 
ATOM     10  C   UNL     1     -11.139  11.518  66.131  0.00  0.00    +0.004 A 
ATOM     11  C   UNL     1     -10.195  10.578  65.739  0.00  0.00    +0.011 A 
ATOM     12  C   UNL     1      -9.770  10.551  64.418  0.00  0.00    +0.058 A 
ATOM     13 CL   UNL     1      -8.174   9.985  64.024  0.00  0.00    -0.082 Cl
ATOM     14  C   UNL     1     -10.661  11.051  63.486  0.00  0.00    +0.011 A 
ATOM     15  C   UNL     1     -11.499  12.087  63.879  0.00  0.00    +0.004 A 
ENDBRANCH   7   9
ENDBRANCH   4   7
BRANCH   1  16
ATOM     16  O   UNL     1      -8.774  17.481  67.835  0.00  0.00    -0.472 OA
BRANCH  16  18
ATOM     17  C   UNL     1      -7.717  18.881  66.148  0.00  0.00    +0.055 C 
ATOM     18  C   UNL     1      -8.577  18.789  67.377  0.00  0.00    +0.225 C 
ATOM     19  C   UNL     1      -7.961  19.571  68.532  0.00  0.00    +0.055 C 
BRANCH  18  20
ATOM     20  C   UNL     1      -9.936  19.377  67.159  0.00  0.00    +0.400 C 
ATOM     21  O   UNL     1     -10.402  19.646  65.888  0.00  0.00    -0.242 OA
ATOM     22  O   UNL     1     -10.595  19.655  68.202  0.00  0.00    -0.242 OA
ENDBRANCH  18  20
ENDBRANCH  16  18
ENDBRANCH   1  16
TORSDOF 5
ENDMDL
MODEL 8
REMARK VINA RESULT:      -6.4      4.965      7.921
REMARK  Name = 
REMARK  5 active torsions:
REMARK  status: ('A' for Active; 'I' for Inactive)
REMARK    1  A    between atoms: C_2  and  O_4
REMARK    2  A    between atoms: C_2  and  C_20
REMARK    3  A    between atoms: O_4  and  C_5
REMARK    4  A    between atoms: C_8  and  C_9
REMARK    5  A    between atoms: C_9  and  C_11
REMARK                            x       y       z     vdW  Elec       q    Type
REMARK                         _______ _______ _______ _____ _____    ______ ____
ROOT
ATOM      1  C   UNL     1     -10.049  14.196  65.577  0.00  0.00    +0.139 A 
ATOM      2  C   UNL     1     -10.359  15.506  65.233  0.00  0.00    +0.037 A 
ATOM      3  C   UNL     1     -10.442  16.467  66.203  0.00  0.00    +0.006 A 
ATOM      4  C   UNL     1     -10.227  16.161  67.521  0.00  0.00    +0.039 A 
ATOM      5  C   UNL     1      -9.543  14.989  67.788  0.00  0.00    +0.006 A 
ATOM      6  C   UNL     1      -9.518  13.991  66.821  0.00  0.00    +0.037 A 
ENDROOT
BRANCH   4   7
ATOM      7  C   UNL     1     -10.407  17.173  68.539  0.00  0.00    +0.196 C 
ATOM      8  O   UNL     1     -11.067  16.960  69.578  0.00  0.00    -0.287 OA
BRANCH   7   9
ATOM      9  C   UNL     1      -9.572  18.380  68.507  0.00  0.00    +0.039 A 
ATOM     10  C   UNL     1     -10.004  19.508  67.830  0.00  0.00    +0.004 A 
ATOM     11  C   UNL     1      -9.095  20.386  67.254  0.00  0.00    +0.011 A 
ATOM     12  C   UNL     1      -7.746  20.065  67.253  0.00  0.00    +0.058 A 
ATOM     13 CL   UNL     1      -6.706  20.662  65.993  0.00  0.00    -0.082 Cl
ATOM     14  C   UNL     1      -7.325  19.216  68.259  0.00  0.00    +0.011 A 
ATOM     15  C   UNL     1      -8.222  18.257  68.717  0.00  0.00    +0.004 A 
ENDBRANCH   7   9
ENDBRANCH   4   7
BRANCH   1  16
ATOM     16  O   UNL     1     -10.044  13.296  64.542  0.00  0.00    -0.472 OA
BRANCH  16  18
ATOM     17  C   UNL     1     -10.893  11.264  65.580  0.00  0.00    +0.055 C 
ATOM     18  C   UNL     1     -10.896  12.194  64.399  0.00  0.00    +0.225 C 
ATOM     19  C   UNL     1     -10.465  11.465  63.131  0.00  0.00    +0.055 C 
BRANCH  18  20
ATOM     20  C   UNL     1     -12.261  12.740  64.117  0.00  0.00    +0.400 C 
ATOM     21  O   UNL     1     -12.518  13.460  62.968  0.00  0.00    -0.242 OA
ATOM     22  O   UNL     1     -13.134  12.546  65.012  0.00  0.00    -0.242 OA
ENDBRANCH  18  20
ENDBRANCH  16  18
ENDBRANCH   1  16
TORSDOF 5
ENDMDL
MODEL 9
REMARK VINA RESULT:      -6.3      2.777      3.601
REMARK  Name = 
REMARK  5 active torsions:
REMARK  status: ('A' for Active; 'I' for Inactive)
REMARK    1  A    between atoms: C_2  and  O_4
REMARK    2  A    between atoms: C_2  and  C_20
REMARK    3  A    between atoms: O_4  and  C_5
REMARK    4  A    between atoms: C_8  and  C_9
REMARK    5  A    between atoms: C_9  and  C_11
REMARK                            x       y       z     vdW  Elec       q    Type
REMARK                         _______ _______ _______ _____ _____    ______ ____
ROOT
ATOM      1  C   UNL     1      -9.880  16.354  65.757  0.00  0.00    +0.139 A 
ATOM      2  C   UNL     1      -9.190  15.279  66.304  0.00  0.00    +0.037 A 
ATOM      3  C   UNL     1      -9.745  14.029  66.288  0.00  0.00    +0.006 A 
ATOM      4  C   UNL     1     -10.983  13.813  65.742  0.00  0.00    +0.039 A 
ATOM      5  C   UNL     1     -11.459  14.775  64.870  0.00  0.00    +0.006 A 
ATOM      6  C   UNL     1     -10.934  16.060  64.936  0.00  0.00    +0.037 A 
ENDROOT
BRANCH   4   7
ATOM      7  C   UNL     1     -11.588  12.501  65.816  0.00  0.00    +0.196 C 
ATOM      8  O   UNL     1     -12.656  12.229  65.226  0.00  0.00    -0.287 OA
BRANCH   7   9
ATOM      9  C   UNL     1     -10.808  11.378  66.349  0.00  0.00    +0.039 A 
ATOM     10  C   UNL     1     -10.103  10.552  65.491  0.00  0.00    +0.004 A 
ATOM     11  C   UNL     1      -9.885   9.216  65.805  0.00  0.00    +0.011 A 
ATOM     12  C   UNL     1     -10.485   8.677  66.933  0.00  0.00    +0.058 A 
ATOM     13 CL   UNL     1     -10.876   6.983  66.990  0.00  0.00    -0.082 Cl
ATOM     14  C   UNL     1     -10.792   9.571  67.942  0.00  0.00    +0.011 A 
ATOM     15  C   UNL     1     -11.138  10.866  67.578  0.00  0.00    +0.004 A 
ENDBRANCH   7   9
ENDBRANCH   4   7
BRANCH   1  16
ATOM     16  O   UNL     1      -9.264  17.575  65.870  0.00  0.00    -0.472 OA
BRANCH  16  18
ATOM     17  C   UNL     1     -10.292  18.106  68.012  0.00  0.00    +0.055 C 
ATOM     18  C   UNL     1      -9.608  18.595  66.766  0.00  0.00    +0.225 C 
ATOM     19  C   UNL     1     -10.499  19.568  66.002  0.00  0.00    +0.055 C 
BRANCH  18  20
ATOM     20  C   UNL     1      -8.348  19.342  67.071  0.00  0.00    +0.400 C 
ATOM     21  O   UNL     1      -7.482  19.722  66.066  0.00  0.00    -0.242 OA
ATOM     22  O   UNL     1      -8.108  19.551  68.295  0.00  0.00    -0.242 OA
ENDBRANCH  18  20
ENDBRANCH  16  18
ENDBRANCH   1  16
TORSDOF 5
ENDMDL
