MODEL 1
REMARK VINA RESULT:      -8.3      0.000      0.000
REMARK  Name = 
REMARK  12 active torsions:
REMARK  status: ('A' for Active; 'I' for Inactive)
REMARK    1  A    between atoms: C_2  and  C_4
REMARK    2  A    between atoms: C_5  and  C_6
REMARK    3  A    between atoms: N_8  and  C_9
REMARK    4  A    between atoms: C_15  and  C_16
REMARK    5  A    between atoms: C_22  and  C_23
REMARK    6  A    between atoms: N_30  and  C_31
REMARK    7  A    between atoms: C_31  and  C_32
REMARK    8  A    between atoms: C_32  and  C_33
REMARK    9  A    between atoms: C_33  and  C_35
REMARK   10  A    between atoms: C_35  and  C_36
REMARK   11  A    between atoms: C_36  and  C_38
REMARK   12  A    between atoms: C_38  and  C_39
REMARK                            x       y       z     vdW  Elec       q    Type
REMARK                         _______ _______ _______ _____ _____    ______ ____
ROOT
ATOM      1  C   UNL     1     -12.274  14.169  70.335  0.00  0.00    +0.041 A 
ATOM      2  N   UNL     1     -11.757  14.680  69.189  0.00  0.00    -0.330 N 
ATOM      3  C   UNL     1     -11.724  13.698  68.254  0.00  0.00    +0.060 A 
ATOM      4  C   UNL     1     -11.567  12.519  68.976  0.00  0.00    +0.021 A 
ATOM      5  C   UNL     1     -12.107  12.794  70.226  0.00  0.00    +0.068 A 
ENDROOT
BRANCH   3   6
ATOM      6  C   UNL     1     -11.533  13.810  66.817  0.00  0.00    +0.016 A 
ATOM      7  C   UNL     1     -12.594  13.999  65.937  0.00  0.00    +0.004 A 
ATOM      8  C   UNL     1     -12.412  13.712  64.589  0.00  0.00    +0.030 A 
ATOM      9  C   UNL     1     -11.182  13.266  64.120  0.00  0.00    +0.140 A 
ATOM     10  F   UNL     1     -11.087  12.312  63.148  0.00  0.00    -0.204 F 
ATOM     11  C   UNL     1     -10.084  13.651  64.881  0.00  0.00    +0.030 A 
ATOM     12  C   UNL     1     -10.279  13.932  66.229  0.00  0.00    +0.004 A 
ENDBRANCH   3   6
BRANCH   4  13
ATOM     13  C   UNL     1     -10.753  11.346  68.633  0.00  0.00    +0.002 A 
ATOM     14  C   UNL     1      -9.366  11.353  68.728  0.00  0.00    +0.000 A 
ATOM     15  C   UNL     1      -8.534  10.842  67.776  0.00  0.00    +0.000 A 
ATOM     16  C   UNL     1      -9.057  10.147  66.720  0.00  0.00    +0.000 A 
ATOM     17  C   UNL     1     -10.394   9.857  66.740  0.00  0.00    +0.000 A 
ATOM     18  C   UNL     1     -11.209  10.495  67.632  0.00  0.00    +0.000 A 
ENDBRANCH   4  13
BRANCH   1  20
ATOM     19  C   UNL     1     -12.229  15.552  72.047  0.00  0.00    +0.006 C 
ATOM     20  C   UNL     1     -12.743  14.909  71.522  0.00  0.00    +0.038 C 
ATOM     21  C   UNL     1     -14.236  15.209  71.467  0.00  0.00    +0.006 C 
ENDBRANCH   1  20
BRANCH   5  22
ATOM     22  C   UNL     1     -12.821  11.776  71.006  0.00  0.00    +0.270 C 
ATOM     23  N   UNL     1     -12.986  10.441  70.577  0.00  0.00    -0.175 NA
ATOM     24  O   UNL     1     -12.832  11.946  72.264  0.00  0.00    -0.268 OA
BRANCH  23  25
ATOM     25  C   UNL     1     -13.047   9.317  71.419  0.00  0.00    +0.074 A 
ATOM     26  C   UNL     1     -14.209   8.592  71.479  0.00  0.00    +0.017 A 
ATOM     27  C   UNL     1     -14.165   7.240  71.797  0.00  0.00    +0.001 A 
ATOM     28  C   UNL     1     -12.948   6.584  71.924  0.00  0.00    +0.000 A 
ATOM     29  C   UNL     1     -11.820   7.348  72.008  0.00  0.00    +0.001 A 
ATOM     30  C   UNL     1     -11.908   8.724  71.909  0.00  0.00    +0.017 A 
ENDBRANCH  23  25
ENDBRANCH   5  22
BRANCH   2  31
ATOM     31  C   UNL     1     -11.506  16.094  68.943  0.00  0.00    +0.108 C 
BRANCH  31  32
ATOM     32  C   UNL     1      -9.997  16.261  69.074  0.00  0.00    +0.057 C 
BRANCH  32  33
ATOM     33  C   UNL     1      -9.722  17.820  68.598  0.00  0.00    +0.156 C 
ATOM     34  O   UNL     1     -11.098  17.909  67.956  0.00  0.00    -0.223 OA
BRANCH  33  35
ATOM     35  C   UNL     1      -9.023  17.324  67.187  0.00  0.00    +0.066 C 
BRANCH  35  36
ATOM     36  C   UNL     1      -8.446  18.775  66.648  0.00  0.00    +0.166 C 
ATOM     37  O   UNL     1      -7.503  18.101  65.660  0.00  0.00    -0.222 OA
BRANCH  36  38
ATOM     38  C   UNL     1      -7.316  18.848  67.843  0.00  0.00    +0.147 C 
BRANCH  38  39
ATOM     39  C   UNL     1      -6.864  20.205  68.003  0.00  0.00    +0.367 C 
ATOM     40  O   UNL     1      -7.049  21.300  67.202  0.00  0.00    -0.246 OA
ATOM     41  O   UNL     1      -6.215  20.422  69.071  0.00  0.00    -0.246 OA
ENDBRANCH  38  39
ENDBRANCH  36  38
ENDBRANCH  35  36
ENDBRANCH  33  35
ENDBRANCH  32  33
ENDBRANCH  31  32
ENDBRANCH   2  31
TORSDOF 12
ENDMDL
MODEL 2
REMARK VINA RESULT:      -8.0      2.405      8.307
REMARK  Name = 
REMARK  12 active torsions:
REMARK  status: ('A' for Active; 'I' for Inactive)
REMARK    1  A    between atoms: C_2  and  C_4
REMARK    2  A    between atoms: C_5  and  C_6
REMARK    3  A    between atoms: N_8  and  C_9
REMARK    4  A    between atoms: C_15  and  C_16
REMARK    5  A    between atoms: C_22  and  C_23
REMARK    6  A    between atoms: N_30  and  C_31
REMARK    7  A    between atoms: C_31  and  C_32
REMARK    8  A    between atoms: C_32  and  C_33
REMARK    9  A    between atoms: C_33  and  C_35
REMARK   10  A    between atoms: C_35  and  C_36
REMARK   11  A    between atoms: C_36  and  C_38
REMARK   12  A    between atoms: C_38  and  C_39
REMARK                            x       y       z     vdW  Elec       q    Type
REMARK                         _______ _______ _______ _____ _____    ______ ____
ROOT
ATOM      1  C   UNL     1     -11.835  13.717  70.267  0.00  0.00    +0.041 A 
ATOM      2  N   UNL     1     -11.680  12.404  69.969  0.00  0.00    -0.330 N 
ATOM      3  C   UNL     1     -10.922  12.300  68.848  0.00  0.00    +0.060 A 
ATOM      4  C   UNL     1     -11.189  13.458  68.126  0.00  0.00    +0.021 A 
ATOM      5  C   UNL     1     -11.573  14.392  69.081  0.00  0.00    +0.068 A 
ENDROOT
BRANCH   3   6
ATOM      6  C   UNL     1     -10.249  11.131  68.305  0.00  0.00    +0.016 A 
ATOM      7  C   UNL     1      -8.981  10.740  68.722  0.00  0.00    +0.004 A 
ATOM      8  C   UNL     1      -8.241   9.880  67.917  0.00  0.00    +0.030 A 
ATOM      9  C   UNL     1      -8.769   9.397  66.725  0.00  0.00    +0.140 A 
ATOM     10  F   UNL     1      -7.996   9.242  65.610  0.00  0.00    -0.204 F 
ATOM     11  C   UNL     1     -10.156   9.343  66.672  0.00  0.00    +0.030 A 
ATOM     12  C   UNL     1     -10.885  10.211  67.479  0.00  0.00    +0.004 A 
ENDBRANCH   3   6
BRANCH   4  13
ATOM     13  C   UNL     1     -11.336  13.608  66.672  0.00  0.00    +0.002 A 
ATOM     14  C   UNL     1     -12.481  13.198  65.999  0.00  0.00    +0.000 A 
ATOM     15  C   UNL     1     -12.467  12.507  64.823  0.00  0.00    +0.000 A 
ATOM     16  C   UNL     1     -11.284  12.312  64.165  0.00  0.00    +0.000 A 
ATOM     17  C   UNL     1     -10.172  12.953  64.637  0.00  0.00    +0.000 A 
ATOM     18  C   UNL     1     -10.197  13.520  65.880  0.00  0.00    +0.000 A 
ENDBRANCH   4  13
BRANCH   1  20
ATOM     19  C   UNL     1     -11.851  14.866  72.144  0.00  0.00    +0.006 C 
ATOM     20  C   UNL     1     -12.347  14.305  71.520  0.00  0.00    +0.038 C 
ATOM     21  C   UNL     1     -13.834  14.632  71.442  0.00  0.00    +0.006 C 
ENDBRANCH   1  20
BRANCH   5  22
ATOM     22  C   UNL     1     -11.239  15.816  68.955  0.00  0.00    +0.270 C 
ATOM     23  N   UNL     1      -9.962  16.285  68.581  0.00  0.00    -0.175 NA
ATOM     24  O   UNL     1     -12.206  16.590  68.674  0.00  0.00    -0.268 OA
BRANCH  23  25
ATOM     25  C   UNL     1      -9.708  17.457  67.847  0.00  0.00    +0.074 A 
ATOM     26  C   UNL     1     -10.080  17.511  66.528  0.00  0.00    +0.017 A 
ATOM     27  C   UNL     1     -10.385  18.734  65.945  0.00  0.00    +0.001 A 
ATOM     28  C   UNL     1     -10.448  19.888  66.715  0.00  0.00    +0.000 A 
ATOM     29  C   UNL     1      -9.934  19.836  67.979  0.00  0.00    +0.001 A 
ATOM     30  C   UNL     1      -9.426  18.649  68.471  0.00  0.00    +0.017 A 
ENDBRANCH  23  25
ENDBRANCH   5  22
BRANCH   2  31
ATOM     31  C   UNL     1     -12.065  11.298  70.837  0.00  0.00    +0.108 C 
BRANCH  31  32
ATOM     32  C   UNL     1     -13.234  10.622  70.130  0.00  0.00    +0.057 C 
BRANCH  32  33
ATOM     33  C   UNL     1     -13.465   9.226  70.983  0.00  0.00    +0.156 C 
ATOM     34  O   UNL     1     -13.549   9.992  72.293  0.00  0.00    -0.223 OA
BRANCH  33  35
ATOM     35  C   UNL     1     -11.839   8.991  71.147  0.00  0.00    +0.066 C 
BRANCH  35  36
ATOM     36  C   UNL     1     -11.797   7.341  71.081  0.00  0.00    +0.166 C 
ATOM     37  O   UNL     1     -10.790   7.262  72.220  0.00  0.00    -0.222 OA
BRANCH  36  38
ATOM     38  C   UNL     1     -10.638   7.348  69.912  0.00  0.00    +0.147 C 
BRANCH  38  39
ATOM     39  C   UNL     1     -10.832   6.229  69.028  0.00  0.00    +0.367 C 
ATOM     40  O   UNL     1     -11.199   6.195  67.709  0.00  0.00    -0.246 OA
ATOM     41  O   UNL     1     -10.596   5.097  69.552  0.00  0.00    -0.246 OA
ENDBRANCH  38  39
ENDBRANCH  36  38
ENDBRANCH  35  36
ENDBRANCH  33  35
ENDBRANCH  32  33
ENDBRANCH  31  32
ENDBRANCH   2  31
TORSDOF 12
ENDMDL
MODEL 3
REMARK VINA RESULT:      -7.8      2.572      8.549
REMARK  Name = 
REMARK  12 active torsions:
REMARK  status: ('A' for Active; 'I' for Inactive)
REMARK    1  A    between atoms: C_2  and  C_4
REMARK    2  A    between atoms: C_5  and  C_6
REMARK    3  A    between atoms: N_8  and  C_9
REMARK    4  A    between atoms: C_15  and  C_16
REMARK    5  A    between atoms: C_22  and  C_23
REMARK    6  A    between atoms: N_30  and  C_31
REMARK    7  A    between atoms: C_31  and  C_32
REMARK    8  A    between atoms: C_32  and  C_33
REMARK    9  A    between atoms: C_33  and  C_35
REMARK   10  A    between atoms: C_35  and  C_36
REMARK   11  A    between atoms: C_36  and  C_38
REMARK   12  A    between atoms: C_38  and  C_39
REMARK                            x       y       z     vdW  Elec       q    Type
REMARK                         _______ _______ _______ _____ _____    ______ ____
ROOT
ATOM      1  C   UNL     1     -11.833  13.715  70.294  0.00  0.00    +0.041 A 
ATOM      2  N   UNL     1     -11.694  12.399  69.998  0.00  0.00    -0.330 N 
ATOM      3  C   UNL     1     -10.935  12.285  68.879  0.00  0.00    +0.060 A 
ATOM      4  C   UNL     1     -11.188  13.445  68.154  0.00  0.00    +0.021 A 
ATOM      5  C   UNL     1     -11.562  14.384  69.107  0.00  0.00    +0.068 A 
ENDROOT
BRANCH   3   6
ATOM      6  C   UNL     1     -10.275  11.107  68.338  0.00  0.00    +0.016 A 
ATOM      7  C   UNL     1     -10.930  10.201  67.511  0.00  0.00    +0.004 A 
ATOM      8  C   UNL     1     -10.396   8.927  67.348  0.00  0.00    +0.030 A 
ATOM      9  C   UNL     1      -9.211   8.571  67.982  0.00  0.00    +0.140 A 
ATOM     10  F   UNL     1      -9.025   7.324  68.506  0.00  0.00    -0.204 F 
ATOM     11  C   UNL     1      -8.358   9.628  68.276  0.00  0.00    +0.030 A 
ATOM     12  C   UNL     1      -8.905  10.896  68.440  0.00  0.00    +0.004 A 
ENDBRANCH   3   6
BRANCH   4  13
ATOM     13  C   UNL     1     -11.332  13.594  66.700  0.00  0.00    +0.002 A 
ATOM     14  C   UNL     1     -12.486  13.207  66.028  0.00  0.00    +0.000 A 
ATOM     15  C   UNL     1     -12.486  12.513  64.854  0.00  0.00    +0.000 A 
ATOM     16  C   UNL     1     -11.308  12.290  64.196  0.00  0.00    +0.000 A 
ATOM     17  C   UNL     1     -10.182  12.908  64.667  0.00  0.00    +0.000 A 
ATOM     18  C   UNL     1     -10.195  13.479  65.908  0.00  0.00    +0.000 A 
ENDBRANCH   4  13
BRANCH   1  20
ATOM     19  C   UNL     1     -11.841  14.876  72.164  0.00  0.00    +0.006 C 
ATOM     20  C   UNL     1     -12.340  14.310  71.545  0.00  0.00    +0.038 C 
ATOM     21  C   UNL     1     -13.827  14.637  71.472  0.00  0.00    +0.006 C 
ENDBRANCH   1  20
BRANCH   5  22
ATOM     22  C   UNL     1     -11.212  15.804  68.979  0.00  0.00    +0.270 C 
ATOM     23  N   UNL     1      -9.939  16.258  68.572  0.00  0.00    -0.175 NA
ATOM     24  O   UNL     1     -12.175  16.594  68.730  0.00  0.00    -0.268 OA
BRANCH  23  25
ATOM     25  C   UNL     1      -9.689  17.430  67.837  0.00  0.00    +0.074 A 
ATOM     26  C   UNL     1     -10.075  17.487  66.523  0.00  0.00    +0.017 A 
ATOM     27  C   UNL     1     -10.382  18.713  65.945  0.00  0.00    +0.001 A 
ATOM     28  C   UNL     1     -10.433  19.865  66.718  0.00  0.00    +0.000 A 
ATOM     29  C   UNL     1      -9.906  19.810  67.976  0.00  0.00    +0.001 A 
ATOM     30  C   UNL     1      -9.396  18.620  68.460  0.00  0.00    +0.017 A 
ENDBRANCH  23  25
ENDBRANCH   5  22
BRANCH   2  31
ATOM     31  C   UNL     1     -12.092  11.299  70.867  0.00  0.00    +0.108 C 
BRANCH  31  32
ATOM     32  C   UNL     1     -13.180  10.558  70.101  0.00  0.00    +0.057 C 
BRANCH  32  33
ATOM     33  C   UNL     1     -13.456   9.203  71.006  0.00  0.00    +0.156 C 
ATOM     34  O   UNL     1     -13.452  10.012  72.293  0.00  0.00    -0.223 OA
BRANCH  33  35
ATOM     35  C   UNL     1     -11.840   8.885  71.123  0.00  0.00    +0.066 C 
BRANCH  35  36
ATOM     36  C   UNL     1     -11.815   7.367  70.474  0.00  0.00    +0.166 C 
ATOM     37  O   UNL     1     -12.858   6.863  71.461  0.00  0.00    -0.222 OA
BRANCH  36  38
ATOM     38  C   UNL     1     -10.545   6.909  71.415  0.00  0.00    +0.147 C 
BRANCH  38  39
ATOM     39  C   UNL     1     -10.415   5.476  71.395  0.00  0.00    +0.367 C 
ATOM     40  O   UNL     1     -10.407   4.572  72.424  0.00  0.00    -0.246 OA
ATOM     41  O   UNL     1     -10.320   4.972  70.233  0.00  0.00    -0.246 OA
ENDBRANCH  38  39
ENDBRANCH  36  38
ENDBRANCH  35  36
ENDBRANCH  33  35
ENDBRANCH  32  33
ENDBRANCH  31  32
ENDBRANCH   2  31
TORSDOF 12
ENDMDL
MODEL 4
REMARK VINA RESULT:      -7.6      1.445      2.106
REMARK  Name = 
REMARK  12 active torsions:
REMARK  status: ('A' for Active; 'I' for Inactive)
REMARK    1  A    between atoms: C_2  and  C_4
REMARK    2  A    between atoms: C_5  and  C_6
REMARK    3  A    between atoms: N_8  and  C_9
REMARK    4  A    between atoms: C_15  and  C_16
REMARK    5  A    between atoms: C_22  and  C_23
REMARK    6  A    between atoms: N_30  and  C_31
REMARK    7  A    between atoms: C_31  and  C_32
REMARK    8  A    between atoms: C_32  and  C_33
REMARK    9  A    between atoms: C_33  and  C_35
REMARK   10  A    between atoms: C_35  and  C_36
REMARK   11  A    between atoms: C_36  and  C_38
REMARK   12  A    between atoms: C_38  and  C_39
REMARK                            x       y       z     vdW  Elec       q    Type
REMARK                         _______ _______ _______ _____ _____    ______ ____
ROOT
ATOM      1  C   UNL     1     -12.402  13.453  70.555  0.00  0.00    +0.041 A 
ATOM      2  N   UNL     1     -11.979  14.188  69.497  0.00  0.00    -0.330 N 
ATOM      3  C   UNL     1     -11.802  13.359  68.437  0.00  0.00    +0.060 A 
ATOM      4  C   UNL     1     -11.460  12.132  68.995  0.00  0.00    +0.021 A 
ATOM      5  C   UNL     1     -12.027  12.147  70.263  0.00  0.00    +0.068 A 
ENDROOT
BRANCH   3   6
ATOM      6  C   UNL     1     -11.641  13.695  67.031  0.00  0.00    +0.016 A 
ATOM      7  C   UNL     1     -10.408  14.030  66.481  0.00  0.00    +0.004 A 
ATOM      8  C   UNL     1     -10.373  14.706  65.267  0.00  0.00    +0.030 A 
ATOM      9  C   UNL     1     -11.549  15.021  64.597  0.00  0.00    +0.140 A 
ATOM     10  F   UNL     1     -11.701  16.204  63.932  0.00  0.00    -0.204 F 
ATOM     11  C   UNL     1     -12.627  14.189  64.874  0.00  0.00    +0.030 A 
ATOM     12  C   UNL     1     -12.653  13.521  66.094  0.00  0.00    +0.004 A 
ENDBRANCH   3   6
BRANCH   4  13
ATOM     13  C   UNL     1     -10.478  11.155  68.506  0.00  0.00    +0.002 A 
ATOM     14  C   UNL     1      -9.108  11.387  68.570  0.00  0.00    +0.000 A 
ATOM     15  C   UNL     1      -8.243  11.126  67.549  0.00  0.00    +0.000 A 
ATOM     16  C   UNL     1      -8.686  10.466  66.436  0.00  0.00    +0.000 A 
ATOM     17  C   UNL     1      -9.955   9.954  66.454  0.00  0.00    +0.000 A 
ATOM     18  C   UNL     1     -10.827  10.348  67.429  0.00  0.00    +0.000 A 
ENDBRANCH   4  13
BRANCH   1  20
ATOM     19  C   UNL     1     -12.488  14.395  72.542  0.00  0.00    +0.006 C 
ATOM     20  C   UNL     1     -12.971  13.943  71.825  0.00  0.00    +0.038 C 
ATOM     21  C   UNL     1     -14.420  14.391  71.678  0.00  0.00    +0.006 C 
ENDBRANCH   1  20
BRANCH   5  22
ATOM     22  C   UNL     1     -12.569  10.935  70.888  0.00  0.00    +0.270 C 
ATOM     23  N   UNL     1     -12.037   9.645  70.674  0.00  0.00    -0.175 NA
ATOM     24  O   UNL     1     -13.164  11.100  71.997  0.00  0.00    -0.268 OA
BRANCH  23  25
ATOM     25  C   UNL     1     -12.023   8.603  71.619  0.00  0.00    +0.074 A 
ATOM     26  C   UNL     1     -12.878   7.544  71.455  0.00  0.00    +0.017 A 
ATOM     27  C   UNL     1     -12.539   6.296  71.964  0.00  0.00    +0.001 A 
ATOM     28  C   UNL     1     -11.286   6.078  72.521  0.00  0.00    +0.000 A 
ATOM     29  C   UNL     1     -10.518   7.170  72.805  0.00  0.00    +0.001 A 
ATOM     30  C   UNL     1     -10.972   8.436  72.488  0.00  0.00    +0.017 A 
ENDBRANCH  23  25
ENDBRANCH   5  22
BRANCH   2  31
ATOM     31  C   UNL     1     -11.950  15.644  69.448  0.00  0.00    +0.108 C 
BRANCH  31  32
ATOM     32  C   UNL     1     -10.556  16.033  69.923  0.00  0.00    +0.057 C 
BRANCH  32  33
ATOM     33  C   UNL     1      -9.768  16.474  68.538  0.00  0.00    +0.156 C 
ATOM     34  O   UNL     1      -8.416  16.164  69.160  0.00  0.00    -0.223 OA
BRANCH  33  35
ATOM     35  C   UNL     1      -9.699  18.053  69.015  0.00  0.00    +0.066 C 
BRANCH  35  36
ATOM     36  C   UNL     1      -8.812  18.673  67.767  0.00  0.00    +0.166 C 
ATOM     37  O   UNL     1      -8.131  19.686  68.676  0.00  0.00    -0.222 OA
BRANCH  36  38
ATOM     38  C   UNL     1     -10.016  19.708  67.334  0.00  0.00    +0.147 C 
BRANCH  38  39
ATOM     39  C   UNL     1     -10.480  19.387  66.009  0.00  0.00    +0.367 C 
ATOM     40  O   UNL     1     -11.151  20.156  65.096  0.00  0.00    -0.246 OA
ATOM     41  O   UNL     1     -10.194  18.213  65.621  0.00  0.00    -0.246 OA
ENDBRANCH  38  39
ENDBRANCH  36  38
ENDBRANCH  35  36
ENDBRANCH  33  35
ENDBRANCH  32  33
ENDBRANCH  31  32
ENDBRANCH   2  31
TORSDOF 12
ENDMDL
MODEL 5
REMARK VINA RESULT:      -7.4      3.953      7.949
REMARK  Name = 
REMARK  12 active torsions:
REMARK  status: ('A' for Active; 'I' for Inactive)
REMARK    1  A    between atoms: C_2  and  C_4
REMARK    2  A    between atoms: C_5  and  C_6
REMARK    3  A    between atoms: N_8  and  C_9
REMARK    4  A    between atoms: C_15  and  C_16
REMARK    5  A    between atoms: C_22  and  C_23
REMARK    6  A    between atoms: N_30  and  C_31
REMARK    7  A    between atoms: C_31  and  C_32
REMARK    8  A    between atoms: C_32  and  C_33
REMARK    9  A    between atoms: C_33  and  C_35
REMARK   10  A    between atoms: C_35  and  C_36
REMARK   11  A    between atoms: C_36  and  C_38
REMARK   12  A    between atoms: C_38  and  C_39
REMARK                            x       y       z     vdW  Elec       q    Type
REMARK                         _______ _______ _______ _____ _____    ______ ____
ROOT
ATOM      1  C   UNL     1     -10.435  11.112  65.633  0.00  0.00    +0.041 A 
ATOM      2  N   UNL     1     -10.859  11.061  66.920  0.00  0.00    -0.330 N 
ATOM      3  C   UNL     1     -10.167  10.089  67.566  0.00  0.00    +0.060 A 
ATOM      4  C   UNL     1      -9.859   9.154  66.583  0.00  0.00    +0.021 A 
ATOM      5  C   UNL     1      -9.842   9.878  65.397  0.00  0.00    +0.068 A 
ENDROOT
BRANCH   3   6
ATOM      6  C   UNL     1     -10.050   9.846  68.995  0.00  0.00    +0.016 A 
ATOM      7  C   UNL     1      -8.821   9.791  69.643  0.00  0.00    +0.004 A 
ATOM      8  C   UNL     1      -8.742   9.181  70.890  0.00  0.00    +0.030 A 
ATOM      9  C   UNL     1      -9.879   8.656  71.494  0.00  0.00    +0.140 A 
ATOM     10  F   UNL     1      -9.840   7.493  72.208  0.00  0.00    -0.204 F 
ATOM     11  C   UNL     1     -11.079   9.239  71.103  0.00  0.00    +0.030 A 
ATOM     12  C   UNL     1     -11.145   9.842  69.851  0.00  0.00    +0.004 A 
ENDBRANCH   3   6
BRANCH   4  13
ATOM     13  C   UNL     1      -9.851   7.690  66.694  0.00  0.00    +0.002 A 
ATOM     14  C   UNL     1     -10.976   6.971  67.082  0.00  0.00    +0.000 A 
ATOM     15  C   UNL     1     -10.951   5.944  67.980  0.00  0.00    +0.000 A 
ATOM     16  C   UNL     1      -9.751   5.472  68.437  0.00  0.00    +0.000 A 
ATOM     17  C   UNL     1      -8.608   5.949  67.857  0.00  0.00    +0.000 A 
ATOM     18  C   UNL     1      -8.667   7.062  67.067  0.00  0.00    +0.000 A 
ENDBRANCH   4  13
BRANCH   1  20
ATOM     19  C   UNL     1     -10.061  12.823  64.300  0.00  0.00    +0.006 C 
ATOM     20  C   UNL     1     -10.701  12.167  64.636  0.00  0.00    +0.038 C 
ATOM     21  C   UNL     1     -11.753  11.750  63.615  0.00  0.00    +0.006 C 
ENDBRANCH   1  20
BRANCH   5  22
ATOM     22  C   UNL     1      -8.910   9.564  64.307  0.00  0.00    +0.270 C 
ATOM     23  N   UNL     1      -9.295   9.495  62.950  0.00  0.00    -0.175 NA
ATOM     24  O   UNL     1      -7.694   9.865  64.512  0.00  0.00    -0.268 OA
BRANCH  23  25
ATOM     25  C   UNL     1      -8.480   9.835  61.855  0.00  0.00    +0.074 A 
ATOM     26  C   UNL     1      -8.081  11.137  61.701  0.00  0.00    +0.017 A 
ATOM     27  C   UNL     1      -6.890  11.422  61.045  0.00  0.00    +0.001 A 
ATOM     28  C   UNL     1      -6.033  10.399  60.662  0.00  0.00    +0.000 A 
ATOM     29  C   UNL     1      -6.514   9.122  60.692  0.00  0.00    +0.001 A 
ATOM     30  C   UNL     1      -7.796   8.877  61.146  0.00  0.00    +0.017 A 
ENDBRANCH  23  25
ENDBRANCH   5  22
BRANCH   2  31
ATOM     31  C   UNL     1     -11.735  12.040  67.551  0.00  0.00    +0.108 C 
BRANCH  31  32
ATOM     32  C   UNL     1     -10.805  13.119  68.091  0.00  0.00    +0.057 C 
BRANCH  32  33
ATOM     33  C   UNL     1     -11.747  14.476  68.135  0.00  0.00    +0.156 C 
ATOM     34  O   UNL     1     -10.745  15.249  67.292  0.00  0.00    -0.223 OA
BRANCH  33  35
ATOM     35  C   UNL     1     -11.052  14.981  69.545  0.00  0.00    +0.066 C 
BRANCH  35  36
ATOM     36  C   UNL     1     -12.366  15.687  70.255  0.00  0.00    +0.166 C 
ATOM     37  O   UNL     1     -11.508  16.340  71.330  0.00  0.00    -0.222 OA
BRANCH  36  38
ATOM     38  C   UNL     1     -12.680  14.351  71.164  0.00  0.00    +0.147 C 
BRANCH  38  39
ATOM     39  C   UNL     1     -13.899  14.542  71.904  0.00  0.00    +0.367 C 
ATOM     40  O   UNL     1     -14.696  15.648  72.029  0.00  0.00    -0.246 OA
ATOM     41  O   UNL     1     -14.311  13.508  72.515  0.00  0.00    -0.246 OA
ENDBRANCH  38  39
ENDBRANCH  36  38
ENDBRANCH  35  36
ENDBRANCH  33  35
ENDBRANCH  32  33
ENDBRANCH  31  32
ENDBRANCH   2  31
TORSDOF 12
ENDMDL
MODEL 6
REMARK VINA RESULT:      -7.3      3.050      5.268
REMARK  Name = 
REMARK  12 active torsions:
REMARK  status: ('A' for Active; 'I' for Inactive)
REMARK    1  A    between atoms: C_2  and  C_4
REMARK    2  A    between atoms: C_5  and  C_6
REMARK    3  A    between atoms: N_8  and  C_9
REMARK    4  A    between atoms: C_15  and  C_16
REMARK    5  A    between atoms: C_22  and  C_23
REMARK    6  A    between atoms: N_30  and  C_31
REMARK    7  A    between atoms: C_31  and  C_32
REMARK    8  A    between atoms: C_32  and  C_33
REMARK    9  A    between atoms: C_33  and  C_35
REMARK   10  A    between atoms: C_35  and  C_36
REMARK   11  A    between atoms: C_36  and  C_38
REMARK   12  A    between atoms: C_38  and  C_39
REMARK                            x       y       z     vdW  Elec       q    Type
REMARK                         _______ _______ _______ _____ _____    ______ ____
ROOT
ATOM      1  C   UNL     1      -7.428  13.979  67.674  0.00  0.00    +0.041 A 
ATOM      2  N   UNL     1      -7.543  15.306  67.421  0.00  0.00    -0.330 N 
ATOM      3  C   UNL     1      -8.860  15.617  67.325  0.00  0.00    +0.060 A 
ATOM      4  C   UNL     1      -9.468  14.459  66.852  0.00  0.00    +0.021 A 
ATOM      5  C   UNL     1      -8.635  13.426  67.263  0.00  0.00    +0.068 A 
ENDROOT
BRANCH   3   6
ATOM      6  C   UNL     1      -9.496  16.925  67.352  0.00  0.00    +0.016 A 
ATOM      7  C   UNL     1      -9.967  17.547  66.201  0.00  0.00    +0.004 A 
ATOM      8  C   UNL     1     -10.197  18.919  66.221  0.00  0.00    +0.030 A 
ATOM      9  C   UNL     1      -9.984  19.654  67.381  0.00  0.00    +0.140 A 
ATOM     10  F   UNL     1      -9.454  20.912  67.345  0.00  0.00    -0.204 F 
ATOM     11  C   UNL     1     -10.092  18.935  68.565  0.00  0.00    +0.030 A 
ATOM     12  C   UNL     1      -9.855  17.565  68.532  0.00  0.00    +0.004 A 
ENDBRANCH   3   6
BRANCH   4  13
ATOM     13  C   UNL     1     -10.565  14.340  65.882  0.00  0.00    +0.002 A 
ATOM     14  C   UNL     1     -11.882  14.134  66.276  0.00  0.00    +0.000 A 
ATOM     15  C   UNL     1     -12.723  13.239  65.683  0.00  0.00    +0.000 A 
ATOM     16  C   UNL     1     -12.332  12.592  64.544  0.00  0.00    +0.000 A 
ATOM     17  C   UNL     1     -11.163  12.983  63.951  0.00  0.00    +0.000 A 
ATOM     18  C   UNL     1     -10.291  13.778  64.640  0.00  0.00    +0.000 A 
ENDBRANCH   4  13
BRANCH   1  20
ATOM     19  C   UNL     1      -6.004  12.990  69.029  0.00  0.00    +0.006 C 
ATOM     20  C   UNL     1      -6.227  13.244  68.114  0.00  0.00    +0.038 C 
ATOM     21  C   UNL     1      -5.728  12.262  67.060  0.00  0.00    +0.006 C 
ENDBRANCH   1  20
BRANCH   5  22
ATOM     22  C   UNL     1      -9.160  12.114  67.660  0.00  0.00    +0.270 C 
ATOM     23  N   UNL     1      -9.587  11.811  68.971  0.00  0.00    -0.175 NA
ATOM     24  O   UNL     1      -9.710  11.434  66.739  0.00  0.00    -0.268 OA
BRANCH  23  25
ATOM     25  C   UNL     1     -10.622  10.919  69.304  0.00  0.00    +0.074 A 
ATOM     26  C   UNL     1     -10.302   9.651  69.717  0.00  0.00    +0.017 A 
ATOM     27  C   UNL     1     -11.161   8.963  70.565  0.00  0.00    +0.001 A 
ATOM     28  C   UNL     1     -12.274   9.593  71.106  0.00  0.00    +0.000 A 
ATOM     29  C   UNL     1     -12.649  10.791  70.570  0.00  0.00    +0.001 A 
ATOM     30  C   UNL     1     -11.897  11.362  69.561  0.00  0.00    +0.017 A 
ENDBRANCH  23  25
ENDBRANCH   5  22
BRANCH   2  31
ATOM     31  C   UNL     1      -6.448  16.267  67.479  0.00  0.00    +0.108 C 
BRANCH  31  32
ATOM     32  C   UNL     1      -6.401  16.732  68.929  0.00  0.00    +0.057 C 
BRANCH  32  33
ATOM     33  C   UNL     1      -4.828  17.185  69.154  0.00  0.00    +0.156 C 
ATOM     34  O   UNL     1      -5.039  17.319  70.654  0.00  0.00    -0.223 OA
BRANCH  33  35
ATOM     35  C   UNL     1      -5.190  18.775  68.894  0.00  0.00    +0.066 C 
BRANCH  35  36
ATOM     36  C   UNL     1      -5.570  19.222  70.438  0.00  0.00    +0.166 C 
ATOM     37  O   UNL     1      -6.831  19.943  69.984  0.00  0.00    -0.222 OA
BRANCH  36  38
ATOM     38  C   UNL     1      -4.634  20.573  70.352  0.00  0.00    +0.147 C 
BRANCH  38  39
ATOM     39  C   UNL     1      -4.286  21.010  71.678  0.00  0.00    +0.367 C 
ATOM     40  O   UNL     1      -4.437  22.232  72.276  0.00  0.00    -0.246 OA
ATOM     41  O   UNL     1      -3.784  20.106  72.415  0.00  0.00    -0.246 OA
ENDBRANCH  38  39
ENDBRANCH  36  38
ENDBRANCH  35  36
ENDBRANCH  33  35
ENDBRANCH  32  33
ENDBRANCH  31  32
ENDBRANCH   2  31
TORSDOF 12
ENDMDL
MODEL 7
REMARK VINA RESULT:      -7.2      2.948      9.361
REMARK  Name = 
REMARK  12 active torsions:
REMARK  status: ('A' for Active; 'I' for Inactive)
REMARK    1  A    between atoms: C_2  and  C_4
REMARK    2  A    between atoms: C_5  and  C_6
REMARK    3  A    between atoms: N_8  and  C_9
REMARK    4  A    between atoms: C_15  and  C_16
REMARK    5  A    between atoms: C_22  and  C_23
REMARK    6  A    between atoms: N_30  and  C_31
REMARK    7  A    between atoms: C_31  and  C_32
REMARK    8  A    between atoms: C_32  and  C_33
REMARK    9  A    between atoms: C_33  and  C_35
REMARK   10  A    between atoms: C_35  and  C_36
REMARK   11  A    between atoms: C_36  and  C_38
REMARK   12  A    between atoms: C_38  and  C_39
REMARK                            x       y       z     vdW  Elec       q    Type
REMARK                         _______ _______ _______ _____ _____    ______ ____
ROOT
ATOM      1  C   UNL     1      -7.249  14.969  68.001  0.00  0.00    +0.041 A 
ATOM      2  N   UNL     1      -8.422  14.315  67.811  0.00  0.00    -0.330 N 
ATOM      3  C   UNL     1      -9.212  15.068  67.005  0.00  0.00    +0.060 A 
ATOM      4  C   UNL     1      -8.837  16.382  67.262  0.00  0.00    +0.021 A 
ATOM      5  C   UNL     1      -7.522  16.298  67.702  0.00  0.00    +0.068 A 
ENDROOT
BRANCH   3   6
ATOM      6  C   UNL     1     -10.419  14.684  66.290  0.00  0.00    +0.016 A 
ATOM      7  C   UNL     1     -11.634  14.478  66.936  0.00  0.00    +0.004 A 
ATOM      8  C   UNL     1     -12.627  13.751  66.290  0.00  0.00    +0.030 A 
ATOM      9  C   UNL     1     -12.421  13.256  65.008  0.00  0.00    +0.140 A 
ATOM     10  F   UNL     1     -12.890  12.031  64.628  0.00  0.00    -0.204 F 
ATOM     11  C   UNL     1     -11.496  13.958  64.245  0.00  0.00    +0.030 A 
ATOM     12  C   UNL     1     -10.505  14.679  64.903  0.00  0.00    +0.004 A 
ENDBRANCH   3   6
BRANCH   4  13
ATOM     13  C   UNL     1      -9.696  17.570  67.352  0.00  0.00    +0.002 A 
ATOM     14  C   UNL     1      -9.985  18.360  66.244  0.00  0.00    +0.000 A 
ATOM     15  C   UNL     1      -9.964  19.724  66.255  0.00  0.00    +0.000 A 
ATOM     16  C   UNL     1      -9.795  20.391  67.437  0.00  0.00    +0.000 A 
ATOM     17  C   UNL     1      -9.805  19.661  68.595  0.00  0.00    +0.000 A 
ATOM     18  C   UNL     1      -9.693  18.301  68.535  0.00  0.00    +0.000 A 
ENDBRANCH   4  13
BRANCH   1  20
ATOM     19  C   UNL     1      -5.171  14.250  68.094  0.00  0.00    +0.006 C 
ATOM     20  C   UNL     1      -6.000  14.434  68.575  0.00  0.00    +0.038 C 
ATOM     21  C   UNL     1      -5.791  14.869  70.021  0.00  0.00    +0.006 C 
ENDBRANCH   1  20
BRANCH   5  22
ATOM     22  C   UNL     1      -6.529  17.332  67.388  0.00  0.00    +0.270 C 
ATOM     23  N   UNL     1      -6.163  17.685  66.071  0.00  0.00    -0.175 NA
ATOM     24  O   UNL     1      -6.389  18.249  68.254  0.00  0.00    -0.268 OA
BRANCH  23  25
ATOM     25  C   UNL     1      -5.775  18.970  65.651  0.00  0.00    +0.074 A 
ATOM     26  C   UNL     1      -4.445  19.229  65.444  0.00  0.00    +0.017 A 
ATOM     27  C   UNL     1      -4.065  20.206  64.531  0.00  0.00    +0.001 A 
ATOM     28  C   UNL     1      -5.011  20.829  63.728  0.00  0.00    +0.000 A 
ATOM     29  C   UNL     1      -6.327  20.664  64.053  0.00  0.00    +0.001 A 
ATOM     30  C   UNL     1      -6.681  19.854  65.115  0.00  0.00    +0.017 A 
ENDBRANCH  23  25
ENDBRANCH   5  22
BRANCH   2  31
ATOM     31  C   UNL     1      -8.687  12.939  68.212  0.00  0.00    +0.108 C 
BRANCH  31  32
ATOM     32  C   UNL     1      -8.191  12.082  67.054  0.00  0.00    +0.057 C 
BRANCH  32  33
ATOM     33  C   UNL     1      -9.069  10.688  67.181  0.00  0.00    +0.156 C 
ATOM     34  O   UNL     1      -9.938  11.079  65.997  0.00  0.00    -0.223 OA
BRANCH  33  35
ATOM     35  C   UNL     1     -10.112  11.378  68.259  0.00  0.00    +0.066 C 
BRANCH  35  36
ATOM     36  C   UNL     1     -11.061  10.068  68.594  0.00  0.00    +0.166 C 
ATOM     37  O   UNL     1     -12.321  10.920  68.652  0.00  0.00    -0.222 OA
BRANCH  36  38
ATOM     38  C   UNL     1     -10.774  10.186  70.210  0.00  0.00    +0.147 C 
BRANCH  38  39
ATOM     39  C   UNL     1     -11.820   9.518  70.940  0.00  0.00    +0.367 C 
ATOM     40  O   UNL     1     -12.802  10.029  71.746  0.00  0.00    -0.246 OA
ATOM     41  O   UNL     1     -11.849   8.259  70.785  0.00  0.00    -0.246 OA
ENDBRANCH  38  39
ENDBRANCH  36  38
ENDBRANCH  35  36
ENDBRANCH  33  35
ENDBRANCH  32  33
ENDBRANCH  31  32
ENDBRANCH   2  31
TORSDOF 12
ENDMDL
MODEL 8
REMARK VINA RESULT:      -7.2      3.003      4.764
REMARK  Name = 
REMARK  12 active torsions:
REMARK  status: ('A' for Active; 'I' for Inactive)
REMARK    1  A    between atoms: C_2  and  C_4
REMARK    2  A    between atoms: C_5  and  C_6
REMARK    3  A    between atoms: N_8  and  C_9
REMARK    4  A    between atoms: C_15  and  C_16
REMARK    5  A    between atoms: C_22  and  C_23
REMARK    6  A    between atoms: N_30  and  C_31
REMARK    7  A    between atoms: C_31  and  C_32
REMARK    8  A    between atoms: C_32  and  C_33
REMARK    9  A    between atoms: C_33  and  C_35
REMARK   10  A    between atoms: C_35  and  C_36
REMARK   11  A    between atoms: C_36  and  C_38
REMARK   12  A    between atoms: C_38  and  C_39
REMARK                            x       y       z     vdW  Elec       q    Type
REMARK                         _______ _______ _______ _____ _____    ______ ____
ROOT
ATOM      1  C   UNL     1     -11.622  10.180  70.636  0.00  0.00    +0.041 A 
ATOM      2  N   UNL     1     -11.189  10.808  69.515  0.00  0.00    -0.330 N 
ATOM      3  C   UNL     1     -10.254  10.029  68.915  0.00  0.00    +0.060 A 
ATOM      4  C   UNL     1      -9.655   9.324  69.954  0.00  0.00    +0.021 A 
ATOM      5  C   UNL     1     -10.622   9.268  70.950  0.00  0.00    +0.068 A 
ENDROOT
BRANCH   3   6
ATOM      6  C   UNL     1      -9.714  10.121  67.568  0.00  0.00    +0.016 A 
ATOM      7  C   UNL     1      -8.708  11.019  67.229  0.00  0.00    +0.004 A 
ATOM      8  C   UNL     1      -8.510  11.338  65.890  0.00  0.00    +0.030 A 
ATOM      9  C   UNL     1      -9.289  10.749  64.900  0.00  0.00    +0.140 A 
ATOM     10  F   UNL     1      -9.712  11.451  63.808  0.00  0.00    -0.204 F 
ATOM     11  C   UNL     1      -9.819   9.507  65.227  0.00  0.00    +0.030 A 
ATOM     12  C   UNL     1     -10.016   9.202  66.570  0.00  0.00    +0.004 A 
ENDBRANCH   3   6
BRANCH   4  13
ATOM     13  C   UNL     1      -8.237   8.975  70.115  0.00  0.00    +0.002 A 
ATOM     14  C   UNL     1      -7.252   9.941  70.289  0.00  0.00    +0.000 A 
ATOM     15  C   UNL     1      -6.051   9.929  69.644  0.00  0.00    +0.000 A 
ATOM     16  C   UNL     1      -5.700   8.848  68.883  0.00  0.00    +0.000 A 
ATOM     17  C   UNL     1      -6.508   7.745  68.921  0.00  0.00    +0.000 A 
ATOM     18  C   UNL     1      -7.758   7.843  69.465  0.00  0.00    +0.000 A 
ENDBRANCH   4  13
BRANCH   1  20
ATOM     19  C   UNL     1     -13.102  11.402  71.713  0.00  0.00    +0.006 C 
ATOM     20  C   UNL     1     -12.803  10.509  71.456  0.00  0.00    +0.038 C 
ATOM     21  C   UNL     1     -13.937   9.509  71.270  0.00  0.00    +0.006 C 
ENDBRANCH   1  20
BRANCH   5  22
ATOM     22  C   UNL     1     -10.764   8.103  71.831  0.00  0.00    +0.270 C 
ATOM     23  N   UNL     1     -11.162   6.827  71.376  0.00  0.00    -0.175 NA
ATOM     24  O   UNL     1     -10.044   8.106  72.877  0.00  0.00    -0.268 OA
BRANCH  23  25
ATOM     25  C   UNL     1     -10.738   5.601  71.918  0.00  0.00    +0.074 A 
ATOM     26  C   UNL     1      -9.525   5.088  71.535  0.00  0.00    +0.017 A 
ATOM     27  C   UNL     1      -8.822   4.257  72.399  0.00  0.00    +0.001 A 
ATOM     28  C   UNL     1      -9.269   4.048  73.697  0.00  0.00    +0.000 A 
ATOM     29  C   UNL     1     -10.539   4.443  74.003  0.00  0.00    +0.001 A 
ATOM     30  C   UNL     1     -11.314   5.079  73.051  0.00  0.00    +0.017 A 
ENDBRANCH  23  25
ENDBRANCH   5  22
BRANCH   2  31
ATOM     31  C   UNL     1     -11.797  12.000  68.936  0.00  0.00    +0.108 C 
BRANCH  31  32
ATOM     32  C   UNL     1     -10.874  13.148  69.323  0.00  0.00    +0.057 C 
BRANCH  32  33
ATOM     33  C   UNL     1     -10.834  14.104  67.975  0.00  0.00    +0.156 C 
ATOM     34  O   UNL     1     -12.065  14.870  68.433  0.00  0.00    -0.223 OA
BRANCH  33  35
ATOM     35  C   UNL     1     -11.743  13.025  67.117  0.00  0.00    +0.066 C 
BRANCH  35  36
ATOM     36  C   UNL     1     -12.437  14.060  66.033  0.00  0.00    +0.166 C 
ATOM     37  O   UNL     1     -12.853  12.917  65.118  0.00  0.00    -0.222 OA
BRANCH  36  38
ATOM     38  C   UNL     1     -11.011  14.311  65.252  0.00  0.00    +0.147 C 
BRANCH  38  39
ATOM     39  C   UNL     1     -10.936  15.675  64.801  0.00  0.00    +0.367 C 
ATOM     40  O   UNL     1     -11.691  16.344  63.875  0.00  0.00    -0.246 OA
ATOM     41  O   UNL     1     -10.045  16.372  65.377  0.00  0.00    -0.246 OA
ENDBRANCH  38  39
ENDBRANCH  36  38
ENDBRANCH  35  36
ENDBRANCH  33  35
ENDBRANCH  32  33
ENDBRANCH  31  32
ENDBRANCH   2  31
TORSDOF 12
ENDMDL
MODEL 9
REMARK VINA RESULT:      -7.1      3.006      5.162
REMARK  Name = 
REMARK  12 active torsions:
REMARK  status: ('A' for Active; 'I' for Inactive)
REMARK    1  A    between atoms: C_2  and  C_4
REMARK    2  A    between atoms: C_5  and  C_6
REMARK    3  A    between atoms: N_8  and  C_9
REMARK    4  A    between atoms: C_15  and  C_16
REMARK    5  A    between atoms: C_22  and  C_23
REMARK    6  A    between atoms: N_30  and  C_31
REMARK    7  A    between atoms: C_31  and  C_32
REMARK    8  A    between atoms: C_32  and  C_33
REMARK    9  A    between atoms: C_33  and  C_35
REMARK   10  A    between atoms: C_35  and  C_36
REMARK   11  A    between atoms: C_36  and  C_38
REMARK   12  A    between atoms: C_38  and  C_39
REMARK                            x       y       z     vdW  Elec       q    Type
REMARK                         _______ _______ _______ _____ _____    ______ ____
ROOT
ATOM      1  C   UNL     1      -7.281  14.061  67.477  0.00  0.00    +0.041 A 
ATOM      2  N   UNL     1      -7.461  15.378  67.210  0.00  0.00    -0.330 N 
ATOM      3  C   UNL     1      -8.793  15.639  67.200  0.00  0.00    +0.060 A 
ATOM      4  C   UNL     1      -9.388  14.451  66.789  0.00  0.00    +0.021 A 
ATOM      5  C   UNL     1      -8.492  13.457  67.161  0.00  0.00    +0.068 A 
ENDROOT
BRANCH   3   6
ATOM      6  C   UNL     1      -9.473  16.924  67.247  0.00  0.00    +0.016 A 
ATOM      7  C   UNL     1      -9.958  17.552  66.105  0.00  0.00    +0.004 A 
ATOM      8  C   UNL     1     -10.235  18.914  66.151  0.00  0.00    +0.030 A 
ATOM      9  C   UNL     1     -10.054  19.634  67.326  0.00  0.00    +0.140 A 
ATOM     10  F   UNL     1      -9.568  20.910  67.317  0.00  0.00    -0.204 F 
ATOM     11  C   UNL     1     -10.144  18.889  68.495  0.00  0.00    +0.030 A 
ATOM     12  C   UNL     1      -9.860  17.529  68.437  0.00  0.00    +0.004 A 
ENDBRANCH   3   6
BRANCH   4  13
ATOM     13  C   UNL     1     -10.544  14.275  65.900  0.00  0.00    +0.002 A 
ATOM     14  C   UNL     1     -11.814  13.986  66.385  0.00  0.00    +0.000 A 
ATOM     15  C   UNL     1     -12.642  13.047  65.844  0.00  0.00    +0.000 A 
ATOM     16  C   UNL     1     -12.296  12.433  64.671  0.00  0.00    +0.000 A 
ATOM     17  C   UNL     1     -11.198  12.898  64.001  0.00  0.00    +0.000 A 
ATOM     18  C   UNL     1     -10.327  13.739  64.634  0.00  0.00    +0.000 A 
ENDBRANCH   4  13
BRANCH   1  20
ATOM     19  C   UNL     1      -5.680  13.246  68.748  0.00  0.00    +0.006 C 
ATOM     20  C   UNL     1      -6.026  13.378  67.846  0.00  0.00    +0.038 C 
ATOM     21  C   UNL     1      -5.666  12.259  66.876  0.00  0.00    +0.006 C 
ENDBRANCH   1  20
BRANCH   5  22
ATOM     22  C   UNL     1      -8.940  12.135  67.615  0.00  0.00    +0.270 C 
ATOM     23  N   UNL     1      -9.464  11.892  68.903  0.00  0.00    -0.175 NA
ATOM     24  O   UNL     1      -9.339  11.342  66.708  0.00  0.00    -0.268 OA
BRANCH  23  25
ATOM     25  C   UNL     1     -10.447  10.936  69.215  0.00  0.00    +0.074 A 
ATOM     26  C   UNL     1     -10.065   9.750  69.788  0.00  0.00    +0.017 A 
ATOM     27  C   UNL     1     -10.951   9.061  70.606  0.00  0.00    +0.001 A 
ATOM     28  C   UNL     1     -12.170   9.624  70.959  0.00  0.00    +0.000 A 
ATOM     29  C   UNL     1     -12.586  10.724  70.265  0.00  0.00    +0.001 A 
ATOM     30  C   UNL     1     -11.777  11.272  69.288  0.00  0.00    +0.017 A 
ENDBRANCH  23  25
ENDBRANCH   5  22
BRANCH   2  31
ATOM     31  C   UNL     1      -6.401  16.378  67.176  0.00  0.00    +0.108 C 
BRANCH  31  32
ATOM     32  C   UNL     1      -6.334  16.938  68.591  0.00  0.00    +0.057 C 
BRANCH  32  33
ATOM     33  C   UNL     1      -5.296  18.218  68.467  0.00  0.00    +0.156 C 
ATOM     34  O   UNL     1      -5.499  18.577  69.931  0.00  0.00    -0.223 OA
BRANCH  33  35
ATOM     35  C   UNL     1      -6.510  19.227  67.983  0.00  0.00    +0.066 C 
BRANCH  35  36
ATOM     36  C   UNL     1      -5.673  20.160  66.908  0.00  0.00    +0.166 C 
ATOM     37  O   UNL     1      -6.495  21.395  67.248  0.00  0.00    -0.222 OA
BRANCH  36  38
ATOM     38  C   UNL     1      -6.649  19.720  65.659  0.00  0.00    +0.147 C 
BRANCH  38  39
ATOM     39  C   UNL     1      -5.851  19.223  64.568  0.00  0.00    +0.367 C 
ATOM     40  O   UNL     1      -5.980  19.413  63.218  0.00  0.00    -0.246 OA
ATOM     41  O   UNL     1      -4.855  18.521  64.922  0.00  0.00    -0.246 OA
ENDBRANCH  38  39
ENDBRANCH  36  38
ENDBRANCH  35  36
ENDBRANCH  33  35
ENDBRANCH  32  33
ENDBRANCH  31  32
ENDBRANCH   2  31
TORSDOF 12
ENDMDL
