MODEL 1
REMARK VINA RESULT:      -6.3      0.000      0.000
REMARK  Name = 
REMARK  7 active torsions:
REMARK  status: ('A' for Active; 'I' for Inactive)
REMARK    1  A    between atoms: C_2  and  N_3
REMARK    2  A    between atoms: N_3  and  C_4
REMARK    3  A    between atoms: N_3  and  C_6
REMARK    4  A    between atoms: C_6  and  C_7
REMARK    5  A    between atoms: C_7  and  S_8
REMARK    6  A    between atoms: S_8  and  C_11
REMARK    7  A    between atoms: C_41  and  C_42
REMARK                            x       y       z     vdW  Elec       q    Type
REMARK                         _______ _______ _______ _____ _____    ______ ____
ROOT
ATOM      1  C   UNL     1     -11.182  13.372  67.103  0.00  0.00    +0.160 C 
ATOM      2  C   UNL     1     -10.227  11.975  67.167  0.00  0.00    +0.197 C 
ATOM      3  N   UNL     1      -9.162  12.579  68.135  0.00  0.00    -0.265 N 
ATOM      4  C   UNL     1      -7.853  12.621  67.541  0.00  0.00    +0.270 C 
ATOM      5  C   UNL     1      -7.411  11.637  66.541  0.00  0.00    +0.175 A 
ATOM      6  N   UNL     1      -8.333  10.930  65.836  0.00  0.00    -0.207 NA
ATOM      7  C   UNL     1      -7.782   9.714  65.560  0.00  0.00    +0.213 A 
ATOM      8  C   UNL     1      -8.583   8.518  65.804  0.00  0.00    +0.150 C 
ATOM      9  C   UNL     1      -7.901   7.214  65.676  0.00  0.00    +0.163 C 
ATOM     10  C   UNL     1      -8.738   6.054  65.423  0.00  0.00    +0.102 C 
ATOM     11  C   UNL     1      -8.957   5.113  66.750  0.00  0.00    +0.181 C 
ATOM     12  C   UNL     1      -8.628   6.353  67.757  0.00  0.00    +0.002 C 
ATOM     13  C   UNL     1      -7.595   5.889  68.479  0.00  0.00    -0.024 C 
ATOM     14  C   UNL     1      -8.009   4.661  69.193  0.00  0.00    -0.007 C 
ATOM     15  C   UNL     1      -9.361   4.603  69.226  0.00  0.00    -0.003 C 
ATOM     16  C   UNL     1      -9.747   5.791  69.961  0.00  0.00    +0.142 C 
ATOM     17  N   UNL     1     -11.062   6.286  70.027  0.00  0.00    -0.197 NA
ATOM     18  C   UNL     1     -11.366   6.540  71.418  0.00  0.00    +0.265 C 
ATOM     19  C   UNL     1     -10.321   7.408  72.000  0.00  0.00    +0.055 C 
ATOM     20  C   UNL     1      -9.696   8.174  71.086  0.00  0.00    -0.018 C 
ATOM     21  C   UNL     1     -10.838   8.812  70.175  0.00  0.00    +0.062 C 
ATOM     22  C   UNL     1     -10.017  10.249  69.718  0.00  0.00    +0.173 C 
ATOM     23  O   UNL     1     -10.603  10.057  68.316  0.00  0.00    -0.451 OA
ATOM     24  C   UNL     1     -11.488   9.635  71.418  0.00  0.00    +0.008 C 
ATOM     25  O   UNL     1     -12.188   5.881  72.101  0.00  0.00    -0.268 OA
ATOM     26  C   UNL     1      -6.269   6.520  68.603  0.00  0.00    +0.031 C 
ATOM     27  O   UNL     1     -10.464   5.355  66.641  0.00  0.00    -0.218 OA
ATOM     28  O   UNL     1      -6.818   7.283  65.089  0.00  0.00    -0.295 OA
ATOM     29  O   UNL     1      -6.523  10.061  65.357  0.00  0.00    -0.435 OA
ATOM     30  C   UNL     1      -6.216  11.045  66.192  0.00  0.00    +0.205 A 
ATOM     31  O   UNL     1      -6.909  13.055  68.269  0.00  0.00    -0.268 OA
ATOM     32  C   UNL     1      -9.839  13.313  69.134  0.00  0.00    +0.096 C 
ATOM     33  C   UNL     1     -11.244  11.312  68.230  0.00  0.00    +0.337 C 
ATOM     34  O   UNL     1     -12.447  11.288  67.807  0.00  0.00    -0.248 OA
ATOM     35  C   UNL     1     -11.199  13.630  68.664  0.00  0.00    +0.047 C 
ENDROOT
BRANCH   1  36
ATOM     36  S   UNL     1     -10.009  14.697  66.612  0.00  0.00    -0.008 S 
ATOM     37  O   UNL     1     -10.949  15.529  65.734  0.00  0.00    -0.173 OA
ATOM     38  O   UNL     1      -9.027  14.280  65.626  0.00  0.00    -0.173 OA
BRANCH  36  39
ATOM     39  C   UNL     1      -9.572  15.808  67.838  0.00  0.00    +0.168 C 
BRANCH  39  40
ATOM     40  C   UNL     1      -9.151  17.173  67.414  0.00  0.00    +0.098 C 
BRANCH  40  41
ATOM     41  N   UNL     1     -10.097  18.220  67.663  0.00  0.00    -0.271 NA
BRANCH  41  43
ATOM     42  C   UNL     1     -10.584  19.483  65.961  0.00  0.00    +0.019 C 
ATOM     43  C   UNL     1     -10.424  19.008  66.527  0.00  0.00    +0.072 C 
ENDBRANCH  41  43
BRANCH  41  44
ATOM     44  C   UNL     1      -9.534  19.143  68.648  0.00  0.00    +0.072 C 
ATOM     45  C   UNL     1      -8.041  19.127  68.639  0.00  0.00    +0.019 C 
ENDBRANCH  41  44
ENDBRANCH  40  41
ENDBRANCH  39  40
ENDBRANCH  36  39
ENDBRANCH   1  36
BRANCH  22  46
ATOM     46  C   UNL     1      -8.592   9.536  69.454  0.00  0.00    +0.041 C 
ATOM     47  C   UNL     1      -8.610   8.697  68.298  0.00  0.00    +0.004 C 
ATOM     48  C   UNL     1      -7.552   9.909  70.284  0.00  0.00    +0.004 C 
ENDBRANCH  22  46
TORSDOF 7
ENDMDL
MODEL 2
REMARK VINA RESULT:      -6.3      2.638      5.232
REMARK  Name = 
REMARK  7 active torsions:
REMARK  status: ('A' for Active; 'I' for Inactive)
REMARK    1  A    between atoms: C_2  and  N_3
REMARK    2  A    between atoms: N_3  and  C_4
REMARK    3  A    between atoms: N_3  and  C_6
REMARK    4  A    between atoms: C_6  and  C_7
REMARK    5  A    between atoms: C_7  and  S_8
REMARK    6  A    between atoms: S_8  and  C_11
REMARK    7  A    between atoms: C_41  and  C_42
REMARK                            x       y       z     vdW  Elec       q    Type
REMARK                         _______ _______ _______ _____ _____    ______ ____
ROOT
ATOM      1  C   UNL     1      -7.894  16.619  68.990  0.00  0.00    +0.160 C 
ATOM      2  C   UNL     1      -8.555  15.074  68.770  0.00  0.00    +0.197 C 
ATOM      3  N   UNL     1      -8.447  15.099  67.213  0.00  0.00    -0.265 N 
ATOM      4  C   UNL     1      -9.734  14.992  66.579  0.00  0.00    +0.270 C 
ATOM      5  C   UNL     1     -10.855  14.262  67.192  0.00  0.00    +0.175 A 
ATOM      6  N   UNL     1     -10.859  14.033  68.531  0.00  0.00    -0.207 NA
ATOM      7  C   UNL     1     -11.510  12.853  68.735  0.00  0.00    +0.213 A 
ATOM      8  C   UNL     1     -10.899  11.868  69.623  0.00  0.00    +0.150 C 
ATOM      9  C   UNL     1     -11.528  10.532  69.678  0.00  0.00    +0.163 C 
ATOM     10  C   UNL     1     -11.273   9.732  70.864  0.00  0.00    +0.102 C 
ATOM     11  C   UNL     1     -10.183   8.530  70.611  0.00  0.00    +0.181 C 
ATOM     12  C   UNL     1      -9.530   9.310  69.336  0.00  0.00    +0.002 C 
ATOM     13  C   UNL     1      -9.668   8.422  68.338  0.00  0.00    -0.024 C 
ATOM     14  C   UNL     1      -8.946   7.178  68.685  0.00  0.00    -0.007 C 
ATOM     15  C   UNL     1      -8.063   7.441  69.676  0.00  0.00    -0.003 C 
ATOM     16  C   UNL     1      -7.167   8.424  69.100  0.00  0.00    +0.142 C 
ATOM     17  N   UNL     1      -6.242   9.180  69.842  0.00  0.00    -0.197 NA
ATOM     18  C   UNL     1      -4.963   9.088  69.174  0.00  0.00    +0.265 C 
ATOM     19  C   UNL     1      -5.120   9.472  67.755  0.00  0.00    +0.055 C 
ATOM     20  C   UNL     1      -6.163  10.295  67.539  0.00  0.00    -0.018 C 
ATOM     21  C   UNL     1      -6.088  11.424  68.661  0.00  0.00    +0.062 C 
ATOM     22  C   UNL     1      -6.857  12.689  67.792  0.00  0.00    +0.173 C 
ATOM     23  O   UNL     1      -7.574  13.057  69.094  0.00  0.00    -0.451 OA
ATOM     24  C   UNL     1      -4.660  11.985  68.121  0.00  0.00    +0.008 C 
ATOM     25  O   UNL     1      -3.963   8.479  69.627  0.00  0.00    -0.268 OA
ATOM     26  C   UNL     1     -10.372   8.651  67.063  0.00  0.00    +0.031 C 
ATOM     27  O   UNL     1      -9.290   9.150  71.687  0.00  0.00    -0.218 OA
ATOM     28  O   UNL     1     -12.663  10.504  69.197  0.00  0.00    -0.295 OA
ATOM     29  O   UNL     1     -12.444  12.929  67.802  0.00  0.00    -0.435 OA
ATOM     30  C   UNL     1     -11.926  13.526  66.736  0.00  0.00    +0.205 A 
ATOM     31  O   UNL     1      -9.745  14.957  65.311  0.00  0.00    -0.268 OA
ATOM     32  C   UNL     1      -7.195  15.653  66.866  0.00  0.00    +0.096 C 
ATOM     33  C   UNL     1      -7.140  14.400  69.150  0.00  0.00    +0.337 C 
ATOM     34  O   UNL     1      -6.699  14.790  70.282  0.00  0.00    -0.248 OA
ATOM     35  C   UNL     1      -6.666  16.411  68.013  0.00  0.00    +0.047 C 
ENDROOT
BRANCH   1  36
ATOM     36  S   UNL     1      -8.921  17.705  67.924  0.00  0.00    -0.008 S 
ATOM     37  O   UNL     1      -8.751  19.018  68.694  0.00  0.00    -0.173 OA
ATOM     38  O   UNL     1     -10.352  17.494  68.073  0.00  0.00    -0.173 OA
BRANCH  36  39
ATOM     39  C   UNL     1      -8.268  18.090  66.390  0.00  0.00    +0.168 C 
BRANCH  39  40
ATOM     40  C   UNL     1      -7.974  19.523  66.106  0.00  0.00    +0.098 C 
BRANCH  40  41
ATOM     41  N   UNL     1      -6.589  19.854  65.947  0.00  0.00    -0.271 NA
BRANCH  41  43
ATOM     42  C   UNL     1      -5.860  21.246  67.451  0.00  0.00    +0.019 C 
ATOM     43  C   UNL     1      -6.088  20.783  66.898  0.00  0.00    +0.072 C 
ENDBRANCH  41  43
BRANCH  41  44
ATOM     44  C   UNL     1      -6.396  20.472  64.636  0.00  0.00    +0.072 C 
ATOM     45  C   UNL     1      -5.691  19.560  63.688  0.00  0.00    +0.019 C 
ENDBRANCH  41  44
ENDBRANCH  40  41
ENDBRANCH  39  40
ENDBRANCH  36  39
ENDBRANCH   1  36
BRANCH  22  46
ATOM     46  C   UNL     1      -8.019  11.761  67.163  0.00  0.00    +0.041 C 
ATOM     47  C   UNL     1      -8.998  11.383  68.133  0.00  0.00    +0.004 C 
ATOM     48  C   UNL     1      -7.976  11.558  65.797  0.00  0.00    +0.004 C 
ENDBRANCH  22  46
TORSDOF 7
ENDMDL
MODEL 3
REMARK VINA RESULT:      -5.9      2.011      4.787
REMARK  Name = 
REMARK  7 active torsions:
REMARK  status: ('A' for Active; 'I' for Inactive)
REMARK    1  A    between atoms: C_2  and  N_3
REMARK    2  A    between atoms: N_3  and  C_4
REMARK    3  A    between atoms: N_3  and  C_6
REMARK    4  A    between atoms: C_6  and  C_7
REMARK    5  A    between atoms: C_7  and  S_8
REMARK    6  A    between atoms: S_8  and  C_11
REMARK    7  A    between atoms: C_41  and  C_42
REMARK                            x       y       z     vdW  Elec       q    Type
REMARK                         _______ _______ _______ _____ _____    ______ ____
ROOT
ATOM      1  C   UNL     1      -8.376  14.317  68.581  0.00  0.00    +0.160 C 
ATOM      2  C   UNL     1      -8.857  12.694  68.648  0.00  0.00    +0.197 C 
ATOM      3  N   UNL     1      -9.847  12.794  67.445  0.00  0.00    -0.265 N 
ATOM      4  C   UNL     1     -11.201  12.500  67.833  0.00  0.00    +0.270 C 
ATOM      5  C   UNL     1     -11.522  11.573  68.929  0.00  0.00    +0.175 A 
ATOM      6  N   UNL     1     -10.587  11.297  69.875  0.00  0.00    -0.207 NA
ATOM      7  C   UNL     1     -10.806  10.018  70.294  0.00  0.00    +0.213 A 
ATOM      8  C   UNL     1      -9.664   9.115  70.393  0.00  0.00    +0.150 C 
ATOM      9  C   UNL     1      -9.953   7.692  70.668  0.00  0.00    +0.163 C 
ATOM     10  C   UNL     1      -8.882   6.901  71.248  0.00  0.00    +0.102 C 
ATOM     11  C   UNL     1      -8.152   5.906  70.165  0.00  0.00    +0.181 C 
ATOM     12  C   UNL     1      -8.627   6.830  68.907  0.00  0.00    +0.002 C 
ATOM     13  C   UNL     1      -9.325   5.970  68.149  0.00  0.00    -0.024 C 
ATOM     14  C   UNL     1      -8.447   4.850  67.742  0.00  0.00    -0.007 C 
ATOM     15  C   UNL     1      -7.156   5.218  67.909  0.00  0.00    -0.003 C 
ATOM     16  C   UNL     1      -6.996   6.356  67.026  0.00  0.00    +0.142 C 
ATOM     17  N   UNL     1      -5.891   7.226  67.052  0.00  0.00    -0.197 NA
ATOM     18  C   UNL     1      -5.415   7.372  65.694  0.00  0.00    +0.265 C 
ATOM     19  C   UNL     1      -6.536   7.777  64.820  0.00  0.00    +0.055 C 
ATOM     20  C   UNL     1      -7.517   8.424  65.478  0.00  0.00    -0.018 C 
ATOM     21  C   UNL     1      -6.801   9.507  66.402  0.00  0.00    +0.062 C 
ATOM     22  C   UNL     1      -8.072  10.660  66.463  0.00  0.00    +0.173 C 
ATOM     23  O   UNL     1      -7.734  10.856  67.944  0.00  0.00    -0.451 OA
ATOM     24  C   UNL     1      -6.192  10.316  65.130  0.00  0.00    +0.008 C 
ATOM     25  O   UNL     1      -4.324   6.920  65.268  0.00  0.00    -0.268 OA
ATOM     26  C   UNL     1     -10.728   6.127  67.724  0.00  0.00    +0.031 C 
ATOM     27  O   UNL     1      -6.829   6.624  70.436  0.00  0.00    -0.218 OA
ATOM     28  O   UNL     1     -11.100   7.495  71.075  0.00  0.00    -0.295 OA
ATOM     29  O   UNL     1     -12.127   9.974  70.252  0.00  0.00    -0.435 OA
ATOM     30  C   UNL     1     -12.539  10.687  69.213  0.00  0.00    +0.205 A 
ATOM     31  O   UNL     1     -12.074  12.511  66.912  0.00  0.00    -0.268 OA
ATOM     32  C   UNL     1      -9.233  13.560  66.430  0.00  0.00    +0.096 C 
ATOM     33  C   UNL     1      -7.510  12.248  67.881  0.00  0.00    +0.337 C 
ATOM     34  O   UNL     1      -6.454  12.663  68.465  0.00  0.00    -0.248 OA
ATOM     35  C   UNL     1      -8.138  14.352  67.017  0.00  0.00    +0.047 C 
ENDROOT
BRANCH   1  36
ATOM     36  S   UNL     1      -9.952  15.258  68.646  0.00  0.00    -0.008 S 
ATOM     37  O   UNL     1      -9.473  16.460  69.466  0.00  0.00    -0.173 OA
ATOM     38  O   UNL     1     -10.937  14.694  69.554  0.00  0.00    -0.173 OA
BRANCH  36  39
ATOM     39  C   UNL     1     -10.454  15.987  67.182  0.00  0.00    +0.168 C 
BRANCH  39  40
ATOM     40  C   UNL     1     -10.500  17.476  67.135  0.00  0.00    +0.098 C 
BRANCH  40  41
ATOM     41  N   UNL     1      -9.679  18.092  66.136  0.00  0.00    -0.271 NA
BRANCH  41  43
ATOM     42  C   UNL     1      -7.528  17.916  66.403  0.00  0.00    +0.019 C 
ATOM     43  C   UNL     1      -8.281  17.950  66.347  0.00  0.00    +0.072 C 
ENDBRANCH  41  43
BRANCH  41  44
ATOM     44  C   UNL     1      -9.943  19.530  66.126  0.00  0.00    +0.072 C 
ATOM     45  C   UNL     1     -10.188  20.063  67.498  0.00  0.00    +0.019 C 
ENDBRANCH  41  44
ENDBRANCH  40  41
ENDBRANCH  39  40
ENDBRANCH  36  39
ENDBRANCH   1  36
BRANCH  22  46
ATOM     46  C   UNL     1      -9.255   9.577  66.655  0.00  0.00    +0.041 C 
ATOM     47  C   UNL     1      -9.209   8.942  67.934  0.00  0.00    +0.004 C 
ATOM     48  C   UNL     1     -10.188   9.494  65.639  0.00  0.00    +0.004 C 
ENDBRANCH  22  46
TORSDOF 7
ENDMDL
MODEL 4
REMARK VINA RESULT:      -5.7      3.621      6.603
REMARK  Name = 
REMARK  7 active torsions:
REMARK  status: ('A' for Active; 'I' for Inactive)
REMARK    1  A    between atoms: C_2  and  N_3
REMARK    2  A    between atoms: N_3  and  C_4
REMARK    3  A    between atoms: N_3  and  C_6
REMARK    4  A    between atoms: C_6  and  C_7
REMARK    5  A    between atoms: C_7  and  S_8
REMARK    6  A    between atoms: S_8  and  C_11
REMARK    7  A    between atoms: C_41  and  C_42
REMARK                            x       y       z     vdW  Elec       q    Type
REMARK                         _______ _______ _______ _____ _____    ______ ____
ROOT
ATOM      1  C   UNL     1      -8.404  11.068  68.410  0.00  0.00    +0.160 C 
ATOM      2  C   UNL     1      -8.622   9.621  69.263  0.00  0.00    +0.197 C 
ATOM      3  N   UNL     1      -8.404   8.697  68.024  0.00  0.00    -0.265 N 
ATOM      4  C   UNL     1      -9.566   7.901  67.731  0.00  0.00    +0.270 C 
ATOM      5  C   UNL     1     -10.502   7.461  68.778  0.00  0.00    +0.175 A 
ATOM      6  N   UNL     1     -10.551   8.123  69.962  0.00  0.00    -0.207 NA
ATOM      7  C   UNL     1     -10.886   7.212  70.920  0.00  0.00    +0.213 A 
ATOM      8  C   UNL     1     -10.111   7.187  72.156  0.00  0.00    +0.150 C 
ATOM      9  C   UNL     1     -10.372   6.073  73.091  0.00  0.00    +0.163 C 
ATOM     10  C   UNL     1     -10.010   6.281  74.482  0.00  0.00    +0.102 C 
ATOM     11  C   UNL     1      -8.629   5.506  74.915  0.00  0.00    +0.181 C 
ATOM     12  C   UNL     1      -8.105   5.454  73.371  0.00  0.00    +0.002 C 
ATOM     13  C   UNL     1      -7.930   4.140  73.158  0.00  0.00    -0.024 C 
ATOM     14  C   UNL     1      -6.938   3.614  74.121  0.00  0.00    -0.007 C 
ATOM     15  C   UNL     1      -6.234   4.647  74.638  0.00  0.00    -0.003 C 
ATOM     16  C   UNL     1      -5.582   5.242  73.488  0.00  0.00    +0.142 C 
ATOM     17  N   UNL     1      -4.946   6.496  73.502  0.00  0.00    -0.197 NA
ATOM     18  C   UNL     1      -3.639   6.332  72.905  0.00  0.00    +0.265 C 
ATOM     19  C   UNL     1      -3.780   5.695  71.579  0.00  0.00    +0.055 C 
ATOM     20  C   UNL     1      -4.982   5.909  71.010  0.00  0.00    -0.018 C 
ATOM     21  C   UNL     1      -5.289   7.463  71.178  0.00  0.00    +0.062 C 
ATOM     22  C   UNL     1      -6.292   7.669  69.799  0.00  0.00    +0.173 C 
ATOM     23  O   UNL     1      -7.178   8.572  70.661  0.00  0.00    -0.451 OA
ATOM     24  C   UNL     1      -4.020   7.901  70.261  0.00  0.00    +0.008 C 
ATOM     25  O   UNL     1      -2.553   6.413  73.530  0.00  0.00    -0.268 OA
ATOM     26  C   UNL     1      -8.568   3.340  72.096  0.00  0.00    +0.031 C 
ATOM     27  O   UNL     1      -8.014   6.859  75.276  0.00  0.00    -0.218 OA
ATOM     28  O   UNL     1     -11.420   5.468  72.852  0.00  0.00    -0.295 OA
ATOM     29  O   UNL     1     -11.732   6.454  70.242  0.00  0.00    -0.435 OA
ATOM     30  C   UNL     1     -11.307   6.362  68.990  0.00  0.00    +0.205 A 
ATOM     31  O   UNL     1      -9.470   7.083  66.766  0.00  0.00    -0.268 OA
ATOM     32  C   UNL     1      -7.317   9.205  67.280  0.00  0.00    +0.096 C 
ATOM     33  C   UNL     1      -7.114   9.711  69.828  0.00  0.00    +0.337 C 
ATOM     34  O   UNL     1      -6.879  10.815  70.423  0.00  0.00    -0.248 OA
ATOM     35  C   UNL     1      -7.094  10.613  67.649  0.00  0.00    +0.047 C 
ENDROOT
BRANCH   1  36
ATOM     36  S   UNL     1      -9.594  10.953  67.016  0.00  0.00    -0.008 S 
ATOM     37  O   UNL     1     -10.048  12.415  66.974  0.00  0.00    -0.173 OA
ATOM     38  O   UNL     1     -10.844  10.297  67.360  0.00  0.00    -0.173 OA
BRANCH  36  39
ATOM     39  C   UNL     1      -8.912  10.734  65.462  0.00  0.00    +0.168 C 
BRANCH  39  40
ATOM     40  C   UNL     1      -9.709   9.969  64.461  0.00  0.00    +0.098 C 
BRANCH  40  41
ATOM     41  N   UNL     1      -9.982  10.651  63.232  0.00  0.00    -0.271 NA
BRANCH  41  43
ATOM     42  C   UNL     1      -8.295  10.834  61.872  0.00  0.00    +0.019 C 
ATOM     43  C   UNL     1      -8.861  10.800  62.373  0.00  0.00    +0.072 C 
ENDBRANCH  41  43
BRANCH  41  44
ATOM     44  C   UNL     1     -10.445  12.005  63.533  0.00  0.00    +0.072 C 
ATOM     45  C   UNL     1     -11.936  12.090  63.571  0.00  0.00    +0.019 C 
ENDBRANCH  41  44
ENDBRANCH  40  41
ENDBRANCH  39  40
ENDBRANCH  36  39
ENDBRANCH   1  36
BRANCH  22  46
ATOM     46  C   UNL     1      -7.121   6.298  70.005  0.00  0.00    +0.041 C 
ATOM     47  C   UNL     1      -7.986   6.350  71.141  0.00  0.00    +0.004 C 
ATOM     48  C   UNL     1      -6.974   5.334  69.025  0.00  0.00    +0.004 C 
ENDBRANCH  22  46
TORSDOF 7
ENDMDL
MODEL 5
REMARK VINA RESULT:      -5.7      2.987      6.141
REMARK  Name = 
REMARK  7 active torsions:
REMARK  status: ('A' for Active; 'I' for Inactive)
REMARK    1  A    between atoms: C_2  and  N_3
REMARK    2  A    between atoms: N_3  and  C_4
REMARK    3  A    between atoms: N_3  and  C_6
REMARK    4  A    between atoms: C_6  and  C_7
REMARK    5  A    between atoms: C_7  and  S_8
REMARK    6  A    between atoms: S_8  and  C_11
REMARK    7  A    between atoms: C_41  and  C_42
REMARK                            x       y       z     vdW  Elec       q    Type
REMARK                         _______ _______ _______ _____ _____    ______ ____
ROOT
ATOM      1  C   UNL     1      -7.290  11.026  67.985  0.00  0.00    +0.160 C 
ATOM      2  C   UNL     1      -7.883   9.813  69.007  0.00  0.00    +0.197 C 
ATOM      3  N   UNL     1      -8.852   9.202  67.947  0.00  0.00    -0.265 N 
ATOM      4  C   UNL     1     -10.227   9.275  68.365  0.00  0.00    +0.270 C 
ATOM      5  C   UNL     1     -10.622   9.233  69.781  0.00  0.00    +0.175 A 
ATOM      6  N   UNL     1      -9.718   9.550  70.744  0.00  0.00    -0.207 NA
ATOM      7  C   UNL     1     -10.029   8.811  71.847  0.00  0.00    +0.213 A 
ATOM      8  C   UNL     1      -8.953   8.105  72.535  0.00  0.00    +0.150 C 
ATOM      9  C   UNL     1      -9.343   7.167  73.608  0.00  0.00    +0.163 C 
ATOM     10  C   UNL     1      -8.335   6.848  74.604  0.00  0.00    +0.102 C 
ATOM     11  C   UNL     1      -7.666   5.363  74.395  0.00  0.00    +0.181 C 
ATOM     12  C   UNL     1      -8.064   5.342  72.813  0.00  0.00    +0.002 C 
ATOM     13  C   UNL     1      -8.813   4.233  72.706  0.00  0.00    -0.024 C 
ATOM     14  C   UNL     1      -8.011   3.058  73.115  0.00  0.00    -0.007 C 
ATOM     15  C   UNL     1      -6.699   3.387  73.086  0.00  0.00    -0.003 C 
ATOM     16  C   UNL     1      -6.452   3.733  71.700  0.00  0.00    +0.142 C 
ATOM     17  N   UNL     1      -5.290   4.380  71.243  0.00  0.00    -0.197 NA
ATOM     18  C   UNL     1      -4.792   3.637  70.107  0.00  0.00    +0.265 C 
ATOM     19  C   UNL     1      -5.873   3.475  69.112  0.00  0.00    +0.055 C 
ATOM     20  C   UNL     1      -6.813   4.437  69.186  0.00  0.00    -0.018 C 
ATOM     21  C   UNL     1      -6.033   5.822  69.289  0.00  0.00    +0.062 C 
ATOM     22  C   UNL     1      -7.221   6.831  68.567  0.00  0.00    +0.173 C 
ATOM     23  O   UNL     1      -6.884   7.877  69.633  0.00  0.00    -0.451 OA
ATOM     24  C   UNL     1      -5.357   5.648  67.820  0.00  0.00    +0.008 C 
ATOM     25  O   UNL     1      -3.731   2.966  70.102  0.00  0.00    -0.268 OA
ATOM     26  C   UNL     1     -10.197   4.165  72.205  0.00  0.00    +0.031 C 
ATOM     27  O   UNL     1      -6.299   6.030  74.235  0.00  0.00    -0.218 OA
ATOM     28  O   UNL     1     -10.505   7.318  73.992  0.00  0.00    -0.295 OA
ATOM     29  O   UNL     1     -11.350   8.816  71.774  0.00  0.00    -0.435 OA
ATOM     30  C   UNL     1     -11.701   8.760  70.496  0.00  0.00    +0.205 A 
ATOM     31  O   UNL     1     -11.088   8.760  67.587  0.00  0.00    -0.268 OA
ATOM     32  C   UNL     1      -8.177   9.152  66.708  0.00  0.00    +0.096 C 
ATOM     33  C   UNL     1      -6.564   8.924  68.742  0.00  0.00    +0.337 C 
ATOM     34  O   UNL     1      -5.487   9.558  69.002  0.00  0.00    -0.248 OA
ATOM     35  C   UNL     1      -7.035  10.081  66.741  0.00  0.00    +0.047 C 
ENDROOT
BRANCH   1  36
ATOM     36  S   UNL     1      -8.797  11.885  67.382  0.00  0.00    -0.008 S 
ATOM     37  O   UNL     1      -8.216  13.293  67.223  0.00  0.00    -0.173 OA
ATOM     38  O   UNL     1      -9.792  12.123  68.413  0.00  0.00    -0.173 OA
BRANCH  36  39
ATOM     39  C   UNL     1      -9.290  11.508  65.787  0.00  0.00    +0.168 C 
BRANCH  39  40
ATOM     40  C   UNL     1     -10.706  11.791  65.419  0.00  0.00    +0.098 C 
BRANCH  40  41
ATOM     41  N   UNL     1     -11.003  13.154  65.092  0.00  0.00    -0.271 NA
BRANCH  41  43
ATOM     42  C   UNL     1     -12.057  14.201  66.680  0.00  0.00    +0.019 C 
ATOM     43  C   UNL     1     -11.708  13.866  66.098  0.00  0.00    +0.072 C 
ENDBRANCH  41  43
BRANCH  41  44
ATOM     44  C   UNL     1     -11.854  13.182  63.903  0.00  0.00    +0.072 C 
ATOM     45  C   UNL     1     -12.285  11.812  63.492  0.00  0.00    +0.019 C 
ENDBRANCH  41  44
ENDBRANCH  40  41
ENDBRANCH  39  40
ENDBRANCH  36  39
ENDBRANCH   1  36
BRANCH  22  46
ATOM     46  C   UNL     1      -8.478   6.153  69.322  0.00  0.00    +0.041 C 
ATOM     47  C   UNL     1      -8.501   6.456  70.718  0.00  0.00    +0.004 C 
ATOM     48  C   UNL     1      -9.393   5.490  68.527  0.00  0.00    +0.004 C 
ENDBRANCH  22  46
TORSDOF 7
ENDMDL
MODEL 6
REMARK VINA RESULT:      -5.6      3.021      6.014
REMARK  Name = 
REMARK  7 active torsions:
REMARK  status: ('A' for Active; 'I' for Inactive)
REMARK    1  A    between atoms: C_2  and  N_3
REMARK    2  A    between atoms: N_3  and  C_4
REMARK    3  A    between atoms: N_3  and  C_6
REMARK    4  A    between atoms: C_6  and  C_7
REMARK    5  A    between atoms: C_7  and  S_8
REMARK    6  A    between atoms: S_8  and  C_11
REMARK    7  A    between atoms: C_41  and  C_42
REMARK                            x       y       z     vdW  Elec       q    Type
REMARK                         _______ _______ _______ _____ _____    ______ ____
ROOT
ATOM      1  C   UNL     1      -6.900   9.642  67.153  0.00  0.00    +0.160 C 
ATOM      2  C   UNL     1      -7.521   8.649  68.377  0.00  0.00    +0.197 C 
ATOM      3  N   UNL     1      -9.012   8.813  67.945  0.00  0.00    -0.265 N 
ATOM      4  C   UNL     1      -9.811   9.421  68.976  0.00  0.00    +0.270 C 
ATOM      5  C   UNL     1      -9.511   9.252  70.406  0.00  0.00    +0.175 A 
ATOM      6  N   UNL     1      -8.262   8.888  70.795  0.00  0.00    -0.207 NA
ATOM      7  C   UNL     1      -8.394   8.152  71.936  0.00  0.00    +0.213 A 
ATOM      8  C   UNL     1      -7.663   6.893  72.038  0.00  0.00    +0.150 C 
ATOM      9  C   UNL     1      -7.969   6.031  73.199  0.00  0.00    +0.163 C 
ATOM     10  C   UNL     1      -6.956   5.066  73.589  0.00  0.00    +0.102 C 
ATOM     11  C   UNL     1      -7.316   3.530  73.134  0.00  0.00    +0.181 C 
ATOM     12  C   UNL     1      -8.306   4.051  71.947  0.00  0.00    +0.002 C 
ATOM     13  C   UNL     1      -9.478   3.472  72.258  0.00  0.00    -0.024 C 
ATOM     14  C   UNL     1      -9.312   2.002  72.266  0.00  0.00    -0.007 C 
ATOM     15  C   UNL     1      -8.184   1.681  71.591  0.00  0.00    -0.003 C 
ATOM     16  C   UNL     1      -8.424   2.172  70.249  0.00  0.00    +0.142 C 
ATOM     17  N   UNL     1      -7.429   2.289  69.262  0.00  0.00    -0.197 NA
ATOM     18  C   UNL     1      -7.935   1.676  68.054  0.00  0.00    +0.265 C 
ATOM     19  C   UNL     1      -9.249   2.262  67.717  0.00  0.00    +0.055 C 
ATOM     20  C   UNL     1      -9.418   3.506  68.205  0.00  0.00    -0.018 C 
ATOM     21  C   UNL     1      -8.083   4.308  67.865  0.00  0.00    +0.062 C 
ATOM     22  C   UNL     1      -8.756   5.885  67.778  0.00  0.00    +0.173 C 
ATOM     23  O   UNL     1      -7.507   6.386  68.507  0.00  0.00    -0.451 OA
ATOM     24  C   UNL     1      -8.309   4.173  66.261  0.00  0.00    +0.008 C 
ATOM     25  O   UNL     1      -7.497   0.609  67.558  0.00  0.00    -0.268 OA
ATOM     26  C   UNL     1     -10.755   4.170  72.495  0.00  0.00    +0.031 C 
ATOM     27  O   UNL     1      -6.030   3.502  72.306  0.00  0.00    -0.218 OA
ATOM     28  O   UNL     1      -8.585   6.614  74.094  0.00  0.00    -0.295 OA
ATOM     29  O   UNL     1      -9.401   8.786  72.514  0.00  0.00    -0.435 OA
ATOM     30  C   UNL     1     -10.243   9.187  71.572  0.00  0.00    +0.205 A 
ATOM     31  O   UNL     1     -11.049   9.555  68.734  0.00  0.00    -0.268 OA
ATOM     32  C   UNL     1      -9.074   8.734  66.536  0.00  0.00    +0.096 C 
ATOM     33  C   UNL     1      -7.117   7.334  67.536  0.00  0.00    +0.337 C 
ATOM     34  O   UNL     1      -5.881   7.318  67.216  0.00  0.00    -0.248 OA
ATOM     35  C   UNL     1      -7.737   8.992  65.977  0.00  0.00    +0.047 C 
ENDROOT
BRANCH   1  36
ATOM     36  S   UNL     1      -7.835  11.213  67.329  0.00  0.00    -0.008 S 
ATOM     37  O   UNL     1      -6.740  12.188  66.885  0.00  0.00    -0.173 OA
ATOM     38  O   UNL     1      -8.024  11.635  68.706  0.00  0.00    -0.173 OA
BRANCH  36  39
ATOM     39  C   UNL     1      -9.065  11.490  66.172  0.00  0.00    +0.168 C 
BRANCH  39  40
ATOM     40  C   UNL     1      -9.933  12.686  66.362  0.00  0.00    +0.098 C 
BRANCH  40  41
ATOM     41  N   UNL     1     -11.338  12.426  66.462  0.00  0.00    -0.271 NA
BRANCH  41  43
ATOM     42  C   UNL     1     -12.480  12.652  64.626  0.00  0.00    +0.019 C 
ATOM     43  C   UNL     1     -12.053  12.547  65.241  0.00  0.00    +0.072 C 
ENDBRANCH  41  43
BRANCH  41  44
ATOM     44  C   UNL     1     -11.936  13.396  67.380  0.00  0.00    +0.072 C 
ATOM     45  C   UNL     1     -11.513  13.161  68.793  0.00  0.00    +0.019 C 
ENDBRANCH  41  44
ENDBRANCH  40  41
ENDBRANCH  39  40
ENDBRANCH  36  39
ENDBRANCH   1  36
BRANCH  22  46
ATOM     46  C   UNL     1      -9.708   5.719  69.072  0.00  0.00    +0.041 C 
ATOM     47  C   UNL     1      -8.961   5.603  70.285  0.00  0.00    +0.004 C 
ATOM     48  C   UNL     1     -11.068   5.824  68.856  0.00  0.00    +0.004 C 
ENDBRANCH  22  46
TORSDOF 7
ENDMDL
MODEL 7
REMARK VINA RESULT:      -5.6      3.245      6.103
REMARK  Name = 
REMARK  7 active torsions:
REMARK  status: ('A' for Active; 'I' for Inactive)
REMARK    1  A    between atoms: C_2  and  N_3
REMARK    2  A    between atoms: N_3  and  C_4
REMARK    3  A    between atoms: N_3  and  C_6
REMARK    4  A    between atoms: C_6  and  C_7
REMARK    5  A    between atoms: C_7  and  S_8
REMARK    6  A    between atoms: S_8  and  C_11
REMARK    7  A    between atoms: C_41  and  C_42
REMARK                            x       y       z     vdW  Elec       q    Type
REMARK                         _______ _______ _______ _____ _____    ______ ____
ROOT
ATOM      1  C   UNL     1      -8.253   9.575  66.681  0.00  0.00    +0.160 C 
ATOM      2  C   UNL     1      -8.205   8.551  68.029  0.00  0.00    +0.197 C 
ATOM      3  N   UNL     1      -9.750   8.534  68.245  0.00  0.00    -0.265 N 
ATOM      4  C   UNL     1     -10.125   9.074  69.524  0.00  0.00    +0.270 C 
ATOM      5  C   UNL     1      -9.252   8.978  70.705  0.00  0.00    +0.175 A 
ATOM      6  N   UNL     1      -7.920   8.768  70.544  0.00  0.00    -0.207 NA
ATOM      7  C   UNL     1      -7.491   8.053  71.623  0.00  0.00    +0.213 A 
ATOM      8  C   UNL     1      -6.644   6.888  71.391  0.00  0.00    +0.150 C 
ATOM      9  C   UNL     1      -6.351   6.027  72.556  0.00  0.00    +0.163 C 
ATOM     10  C   UNL     1      -5.164   5.194  72.479  0.00  0.00    +0.102 C 
ATOM     11  C   UNL     1      -5.500   3.615  72.176  0.00  0.00    +0.181 C 
ATOM     12  C   UNL     1      -6.940   3.989  71.507  0.00  0.00    +0.002 C 
ATOM     13  C   UNL     1      -7.809   3.290  72.254  0.00  0.00    -0.024 C 
ATOM     14  C   UNL     1      -7.487   1.849  72.162  0.00  0.00    -0.007 C 
ATOM     15  C   UNL     1      -6.703   1.640  71.080  0.00  0.00    -0.003 C 
ATOM     16  C   UNL     1      -7.522   2.065  69.962  0.00  0.00    +0.142 C 
ATOM     17  N   UNL     1      -7.035   2.268  68.658  0.00  0.00    -0.197 NA
ATOM     18  C   UNL     1      -7.915   1.570  67.748  0.00  0.00    +0.265 C 
ATOM     19  C   UNL     1      -9.310   1.994  67.988  0.00  0.00    +0.055 C 
ATOM     20  C   UNL     1      -9.407   3.224  68.530  0.00  0.00    -0.018 C 
ATOM     21  C   UNL     1      -8.427   4.162  67.694  0.00  0.00    +0.062 C 
ATOM     22  C   UNL     1      -9.253   5.650  67.923  0.00  0.00    +0.173 C 
ATOM     23  O   UNL     1      -7.881   6.309  68.091  0.00  0.00    -0.451 OA
ATOM     24  C   UNL     1      -9.269   3.961  66.318  0.00  0.00    +0.008 C 
ATOM     25  O   UNL     1      -7.599   0.547  67.093  0.00  0.00    -0.268 OA
ATOM     26  C   UNL     1      -8.949   3.845  73.007  0.00  0.00    +0.031 C 
ATOM     27  O   UNL     1      -4.668   3.711  70.896  0.00  0.00    -0.218 OA
ATOM     28  O   UNL     1      -6.612   6.560  73.637  0.00  0.00    -0.295 OA
ATOM     29  O   UNL     1      -8.241   8.583  72.575  0.00  0.00    -0.435 OA
ATOM     30  C   UNL     1      -9.434   8.862  72.066  0.00  0.00    +0.205 A 
ATOM     31  O   UNL     1     -11.361   9.060  69.811  0.00  0.00    -0.268 OA
ATOM     32  C   UNL     1     -10.371   8.411  66.982  0.00  0.00    +0.096 C 
ATOM     33  C   UNL     1      -8.030   7.269  67.067  0.00  0.00    +0.337 C 
ATOM     34  O   UNL     1      -7.039   7.384  66.272  0.00  0.00    -0.248 OA
ATOM     35  C   UNL     1      -9.415   8.804  65.933  0.00  0.00    +0.047 C 
ENDROOT
BRANCH   1  36
ATOM     36  S   UNL     1      -9.208  11.034  67.256  0.00  0.00    -0.008 S 
ATOM     37  O   UNL     1      -8.449  12.126  66.496  0.00  0.00    -0.173 OA
ATOM     38  O   UNL     1      -8.925  11.420  68.628  0.00  0.00    -0.173 OA
BRANCH  36  39
ATOM     39  C   UNL     1     -10.795  11.188  66.634  0.00  0.00    +0.168 C 
BRANCH  39  40
ATOM     40  C   UNL     1     -11.040  12.260  65.629  0.00  0.00    +0.098 C 
BRANCH  40  41
ATOM     41  N   UNL     1     -11.397  11.812  64.316  0.00  0.00    -0.271 NA
BRANCH  41  43
ATOM     42  C   UNL     1      -9.670  11.311  63.093  0.00  0.00    +0.019 C 
ATOM     43  C   UNL     1     -10.297  11.482  63.481  0.00  0.00    +0.072 C 
ENDBRANCH  41  43
BRANCH  41  44
ATOM     44  C   UNL     1     -12.121  12.882  63.630  0.00  0.00    +0.072 C 
ATOM     45  C   UNL     1     -12.186  14.128  64.450  0.00  0.00    +0.019 C 
ENDBRANCH  41  44
ENDBRANCH  40  41
ENDBRANCH  39  40
ENDBRANCH  36  39
ENDBRANCH   1  36
BRANCH  22  46
ATOM     46  C   UNL     1      -9.569   5.412  69.488  0.00  0.00    +0.041 C 
ATOM     47  C   UNL     1      -8.385   5.392  70.287  0.00  0.00    +0.004 C 
ATOM     48  C   UNL     1     -10.903   5.375  69.851  0.00  0.00    +0.004 C 
ENDBRANCH  22  46
TORSDOF 7
ENDMDL
MODEL 8
REMARK VINA RESULT:      -5.6      3.914      6.590
REMARK  Name = 
REMARK  7 active torsions:
REMARK  status: ('A' for Active; 'I' for Inactive)
REMARK    1  A    between atoms: C_2  and  N_3
REMARK    2  A    between atoms: N_3  and  C_4
REMARK    3  A    between atoms: N_3  and  C_6
REMARK    4  A    between atoms: C_6  and  C_7
REMARK    5  A    between atoms: C_7  and  S_8
REMARK    6  A    between atoms: S_8  and  C_11
REMARK    7  A    between atoms: C_41  and  C_42
REMARK                            x       y       z     vdW  Elec       q    Type
REMARK                         _______ _______ _______ _____ _____    ______ ____
ROOT
ATOM      1  C   UNL     1      -5.731   8.649  66.046  0.00  0.00    +0.160 C 
ATOM      2  C   UNL     1      -6.993   8.417  67.152  0.00  0.00    +0.197 C 
ATOM      3  N   UNL     1      -8.079   8.142  66.066  0.00  0.00    -0.265 N 
ATOM      4  C   UNL     1      -9.140   9.113  66.102  0.00  0.00    +0.270 C 
ATOM      5  C   UNL     1      -9.548   9.786  67.345  0.00  0.00    +0.175 A 
ATOM      6  N   UNL     1      -8.688   9.843  68.395  0.00  0.00    -0.207 NA
ATOM      7  C   UNL     1      -9.440   9.837  69.532  0.00  0.00    +0.213 A 
ATOM      8  C   UNL     1      -9.058   8.934  70.613  0.00  0.00    +0.150 C 
ATOM      9  C   UNL     1      -9.994   8.813  71.750  0.00  0.00    +0.163 C 
ATOM     10  C   UNL     1      -9.443   8.343  73.009  0.00  0.00    +0.102 C 
ATOM     11  C   UNL     1      -9.815   6.777  73.335  0.00  0.00    +0.181 C 
ATOM     12  C   UNL     1     -10.063   6.447  71.756  0.00  0.00    +0.002 C 
ATOM     13  C   UNL     1     -11.328   5.997  71.739  0.00  0.00    -0.024 C 
ATOM     14  C   UNL     1     -11.435   4.800  72.602  0.00  0.00    -0.007 C 
ATOM     15  C   UNL     1     -10.197   4.299  72.818  0.00  0.00    -0.003 C 
ATOM     16  C   UNL     1      -9.721   3.949  71.495  0.00  0.00    +0.142 C 
ATOM     17  N   UNL     1      -8.385   3.626  71.196  0.00  0.00    -0.197 NA
ATOM     18  C   UNL     1      -8.391   2.400  70.430  0.00  0.00    +0.265 C 
ATOM     19  C   UNL     1      -9.294   2.548  69.269  0.00  0.00    +0.055 C 
ATOM     20  C   UNL     1      -9.450   3.827  68.876  0.00  0.00    -0.018 C 
ATOM     21  C   UNL     1      -7.991   4.466  68.831  0.00  0.00    +0.062 C 
ATOM     22  C   UNL     1      -8.275   5.649  67.619  0.00  0.00    +0.173 C 
ATOM     23  O   UNL     1      -7.422   6.610  68.451  0.00  0.00    -0.451 OA
ATOM     24  C   UNL     1      -7.492   3.454  67.660  0.00  0.00    +0.008 C 
ATOM     25  O   UNL     1      -7.965   1.295  70.847  0.00  0.00    -0.268 OA
ATOM     26  C   UNL     1     -12.437   6.555  70.944  0.00  0.00    +0.031 C 
ATOM     27  O   UNL     1      -8.319   6.455  73.360  0.00  0.00    -0.218 OA
ATOM     28  O   UNL     1     -10.837   9.711  71.789  0.00  0.00    -0.295 OA
ATOM     29  O   UNL     1     -10.476  10.559  69.138  0.00  0.00    -0.435 OA
ATOM     30  C   UNL     1     -10.724  10.281  67.866  0.00  0.00    +0.205 A 
ATOM     31  O   UNL     1     -10.096   8.946  65.284  0.00  0.00    -0.268 OA
ATOM     32  C   UNL     1      -7.515   7.302  65.080  0.00  0.00    +0.096 C 
ATOM     33  C   UNL     1      -6.483   6.915  67.441  0.00  0.00    +0.337 C 
ATOM     34  O   UNL     1      -5.258   6.873  67.798  0.00  0.00    -0.248 OA
ATOM     35  C   UNL     1      -6.047   7.371  65.168  0.00  0.00    +0.047 C 
ENDROOT
BRANCH   1  36
ATOM     36  S   UNL     1      -6.364   9.939  64.903  0.00  0.00    -0.008 S 
ATOM     37  O   UNL     1      -5.045  10.658  64.608  0.00  0.00    -0.173 OA
ATOM     38  O   UNL     1      -7.103  11.001  65.564  0.00  0.00    -0.173 OA
BRANCH  36  39
ATOM     39  C   UNL     1      -6.845   9.399  63.352  0.00  0.00    +0.168 C 
BRANCH  39  40
ATOM     40  C   UNL     1      -7.191  10.436  62.338  0.00  0.00    +0.098 C 
BRANCH  40  41
ATOM     41  N   UNL     1      -8.556  10.452  61.907  0.00  0.00    -0.271 NA
BRANCH  41  43
ATOM     42  C   UNL     1      -9.958  11.552  63.155  0.00  0.00    +0.019 C 
ATOM     43  C   UNL     1      -9.437  11.180  62.750  0.00  0.00    +0.072 C 
ENDBRANCH  41  43
BRANCH  41  44
ATOM     44  C   UNL     1      -9.062   9.080  61.881  0.00  0.00    +0.072 C 
ATOM     45  C   UNL     1      -9.437   8.650  60.501  0.00  0.00    +0.019 C 
ENDBRANCH  41  44
ENDBRANCH  40  41
ENDBRANCH  39  40
ENDBRANCH  36  39
ENDBRANCH   1  36
BRANCH  22  46
ATOM     46  C   UNL     1      -9.719   6.103  68.182  0.00  0.00    +0.041 C 
ATOM     47  C   UNL     1      -9.626   6.769  69.443  0.00  0.00    +0.004 C 
ATOM     48  C   UNL     1     -10.801   5.897  67.347  0.00  0.00    +0.004 C 
ENDBRANCH  22  46
TORSDOF 7
ENDMDL
MODEL 9
REMARK VINA RESULT:      -5.5      3.586      7.891
REMARK  Name = 
REMARK  7 active torsions:
REMARK  status: ('A' for Active; 'I' for Inactive)
REMARK    1  A    between atoms: C_2  and  N_3
REMARK    2  A    between atoms: N_3  and  C_4
REMARK    3  A    between atoms: N_3  and  C_6
REMARK    4  A    between atoms: C_6  and  C_7
REMARK    5  A    between atoms: C_7  and  S_8
REMARK    6  A    between atoms: S_8  and  C_11
REMARK    7  A    between atoms: C_41  and  C_42
REMARK                            x       y       z     vdW  Elec       q    Type
REMARK                         _______ _______ _______ _____ _____    ______ ____
ROOT
ATOM      1  C   UNL     1     -11.021   6.788  69.395  0.00  0.00    +0.160 C 
ATOM      2  C   UNL     1     -10.169   7.597  68.174  0.00  0.00    +0.197 C 
ATOM      3  N   UNL     1      -8.996   8.047  69.099  0.00  0.00    -0.265 N 
ATOM      4  C   UNL     1      -8.887   9.479  69.178  0.00  0.00    +0.270 C 
ATOM      5  C   UNL     1      -9.281  10.360  68.067  0.00  0.00    +0.175 A 
ATOM      6  N   UNL     1     -10.139   9.906  67.117  0.00  0.00    -0.207 NA
ATOM      7  C   UNL     1      -9.811  10.528  65.949  0.00  0.00    +0.213 A 
ATOM      8  C   UNL     1      -9.690   9.717  64.742  0.00  0.00    +0.150 C 
ATOM      9  C   UNL     1      -9.154  10.382  63.536  0.00  0.00    +0.163 C 
ATOM     10  C   UNL     1      -9.478   9.783  62.253  0.00  0.00    +0.102 C 
ATOM     11  C   UNL     1      -8.228   8.946  61.595  0.00  0.00    +0.181 C 
ATOM     12  C   UNL     1      -7.527   8.732  63.052  0.00  0.00    +0.002 C 
ATOM     13  C   UNL     1      -6.313   9.281  62.885  0.00  0.00    -0.024 C 
ATOM     14  C   UNL     1      -5.603   8.576  61.795  0.00  0.00    -0.007 C 
ATOM     15  C   UNL     1      -6.201   7.383  61.576  0.00  0.00    -0.003 C 
ATOM     16  C   UNL     1      -6.056   6.679  62.835  0.00  0.00    +0.142 C 
ATOM     17  N   UNL     1      -6.745   5.498  63.163  0.00  0.00    -0.197 NA
ATOM     18  C   UNL     1      -5.776   4.550  63.666  0.00  0.00    +0.265 C 
ATOM     19  C   UNL     1      -5.003   5.171  64.762  0.00  0.00    +0.055 C 
ATOM     20  C   UNL     1      -5.668   6.160  65.390  0.00  0.00    -0.018 C 
ATOM     21  C   UNL     1      -7.136   5.607  65.671  0.00  0.00    +0.062 C 
ATOM     22  C   UNL     1      -7.489   6.538  67.069  0.00  0.00    +0.173 C 
ATOM     23  O   UNL     1      -8.904   6.717  66.512  0.00  0.00    -0.451 OA
ATOM     24  C   UNL     1      -6.597   4.427  66.651  0.00  0.00    +0.008 C 
ATOM     25  O   UNL     1      -5.426   3.502  63.070  0.00  0.00    -0.268 OA
ATOM     26  C   UNL     1      -5.735  10.372  63.690  0.00  0.00    +0.031 C 
ATOM     27  O   UNL     1      -9.095   7.685  61.618  0.00  0.00    -0.218 OA
ATOM     28  O   UNL     1      -9.154  11.612  63.614  0.00  0.00    -0.295 OA
ATOM     29  O   UNL     1      -9.472  11.723  66.401  0.00  0.00    -0.435 OA
ATOM     30  C   UNL     1      -8.864  11.576  67.569  0.00  0.00    +0.205 A 
ATOM     31  O   UNL     1      -7.931   9.943  69.872  0.00  0.00    -0.268 OA
ATOM     32  C   UNL     1      -8.653   6.963  69.937  0.00  0.00    +0.096 C 
ATOM     33  C   UNL     1      -9.589   6.193  67.630  0.00  0.00    +0.337 C 
ATOM     34  O   UNL     1     -10.512   5.352  67.366  0.00  0.00    -0.248 OA
ATOM     35  C   UNL     1      -9.772   6.007  69.974  0.00  0.00    +0.047 C 
ENDROOT
BRANCH   1  36
ATOM     36  S   UNL     1     -11.206   8.044  70.722  0.00  0.00    -0.008 S 
ATOM     37  O   UNL     1     -12.505   7.530  71.351  0.00  0.00    -0.173 OA
ATOM     38  O   UNL     1     -11.641   9.346  70.245  0.00  0.00    -0.173 OA
BRANCH  36  39
ATOM     39  C   UNL     1     -10.099   7.934  72.022  0.00  0.00    +0.168 C 
BRANCH  39  40
ATOM     40  C   UNL     1     -10.599   7.367  73.307  0.00  0.00    +0.098 C 
BRANCH  40  41
ATOM     41  N   UNL     1     -10.089   6.074  73.655  0.00  0.00    -0.271 NA
BRANCH  41  43
ATOM     42  C   UNL     1     -11.406   4.381  73.295  0.00  0.00    +0.019 C 
ATOM     43  C   UNL     1     -10.981   4.997  73.405  0.00  0.00    +0.072 C 
ENDBRANCH  41  43
BRANCH  41  44
ATOM     44  C   UNL     1      -9.811   6.045  75.091  0.00  0.00    +0.072 C 
ATOM     45  C   UNL     1      -8.522   6.719  75.423  0.00  0.00    +0.019 C 
ENDBRANCH  41  44
ENDBRANCH  40  41
ENDBRANCH  39  40
ENDBRANCH  36  39
ENDBRANCH   1  36
BRANCH  22  46
ATOM     46  C   UNL     1      -6.860   7.914  66.502  0.00  0.00    +0.041 C 
ATOM     47  C   UNL     1      -7.645   8.476  65.448  0.00  0.00    +0.004 C 
ATOM     48  C   UNL     1      -5.752   8.406  67.163  0.00  0.00    +0.004 C 
ENDBRANCH  22  46
TORSDOF 7
ENDMDL
