MODEL 1
REMARK VINA RESULT:      -4.7      0.000      0.000
REMARK  Name = 
REMARK  5 active torsions:
REMARK  status: ('A' for Active; 'I' for Inactive)
REMARK    1  A    between atoms: C_2  and  C_3
REMARK    2  A    between atoms: C_3  and  C_5
REMARK    3  A    between atoms: C_5  and  C_7
REMARK    4  A    between atoms: C_7  and  C_9
REMARK    5  A    between atoms: C_9  and  C_11
REMARK                            x       y       z     vdW  Elec       q    Type
REMARK                         _______ _______ _______ _____ _____    ______ ____
ROOT
ATOM      1  C   UNL     1     -12.338  14.374  72.347  0.00  0.00    +0.217 C 
ATOM      2  O   UNL     1     -13.542  13.620  72.834  0.00  0.00    -0.217 OA
ENDROOT
BRANCH   1   3
ATOM      3  C   UNL     1     -13.004  15.856  72.901  0.00  0.00    +0.217 C 
ATOM      4  O   UNL     1     -11.838  16.762  72.608  0.00  0.00    -0.217 OA
BRANCH   3   6
ATOM      5  O   UNL     1     -12.451  16.741  75.045  0.00  0.00    -0.217 OA
ATOM      6  C   UNL     1     -12.476  15.527  74.426  0.00  0.00    +0.217 C 
ENDBRANCH   3   6
ENDBRANCH   1   3
BRANCH   1   7
ATOM      7  C   UNL     1     -12.962  14.374  70.764  0.00  0.00    +0.217 C 
ATOM      8  O   UNL     1     -12.723  12.897  70.700  0.00  0.00    -0.217 OA
BRANCH   7   9
ATOM      9  C   UNL     1     -11.479  14.868  70.041  0.00  0.00    +0.217 C 
ATOM     10  O   UNL     1     -12.171  16.119  69.537  0.00  0.00    -0.217 OA
BRANCH   9  11
ATOM     11  C   UNL     1     -11.703  14.112  68.601  0.00  0.00    +0.217 C 
ATOM     12  O   UNL     1     -11.542  15.091  67.625  0.00  0.00    -0.217 OA
ENDBRANCH   9  11
ENDBRANCH   7   9
ENDBRANCH   1   7
TORSDOF 5
ENDMDL
MODEL 2
REMARK VINA RESULT:      -4.7      6.113      7.451
REMARK  Name = 
REMARK  5 active torsions:
REMARK  status: ('A' for Active; 'I' for Inactive)
REMARK    1  A    between atoms: C_2  and  C_3
REMARK    2  A    between atoms: C_3  and  C_5
REMARK    3  A    between atoms: C_5  and  C_7
REMARK    4  A    between atoms: C_7  and  C_9
REMARK    5  A    between atoms: C_9  and  C_11
REMARK                            x       y       z     vdW  Elec       q    Type
REMARK                         _______ _______ _______ _____ _____    ______ ____
ROOT
ATOM      1  C   UNL     1     -11.172  14.219  65.889  0.00  0.00    +0.217 C 
ATOM      2  O   UNL     1     -10.162  13.119  66.052  0.00  0.00    -0.217 OA
ENDROOT
BRANCH   1   3
ATOM      3  C   UNL     1     -11.510  13.712  64.285  0.00  0.00    +0.217 C 
ATOM      4  O   UNL     1     -12.663  14.631  63.985  0.00  0.00    -0.217 OA
BRANCH   3   6
ATOM      5  O   UNL     1     -13.244  12.152  63.788  0.00  0.00    -0.217 OA
ATOM      6  C   UNL     1     -12.495  12.525  64.864  0.00  0.00    +0.217 C 
ENDBRANCH   3   6
ENDBRANCH   1   3
BRANCH   1   7
ATOM      7  C   UNL     1      -9.927  15.332  65.562  0.00  0.00    +0.217 C 
ATOM      8  O   UNL     1      -9.297  14.968  66.871  0.00  0.00    -0.217 OA
BRANCH   7   9
ATOM      9  C   UNL     1     -10.822  16.693  66.120  0.00  0.00    +0.217 C 
ATOM     10  O   UNL     1     -10.944  17.168  64.686  0.00  0.00    -0.217 OA
BRANCH   9  11
ATOM     11  C   UNL     1      -9.534  17.678  66.381  0.00  0.00    +0.217 C 
ATOM     12  O   UNL     1      -9.887  18.918  65.856  0.00  0.00    -0.217 OA
ENDBRANCH   9  11
ENDBRANCH   7   9
ENDBRANCH   1   7
TORSDOF 5
ENDMDL
MODEL 3
REMARK VINA RESULT:      -4.7      5.500      6.588
REMARK  Name = 
REMARK  5 active torsions:
REMARK  status: ('A' for Active; 'I' for Inactive)
REMARK    1  A    between atoms: C_2  and  C_3
REMARK    2  A    between atoms: C_3  and  C_5
REMARK    3  A    between atoms: C_5  and  C_7
REMARK    4  A    between atoms: C_7  and  C_9
REMARK    5  A    between atoms: C_9  and  C_11
REMARK                            x       y       z     vdW  Elec       q    Type
REMARK                         _______ _______ _______ _____ _____    ______ ____
ROOT
ATOM      1  C   UNL     1     -10.073  14.996  66.246  0.00  0.00    +0.217 C 
ATOM      2  O   UNL     1     -10.070  14.835  67.738  0.00  0.00    -0.217 OA
ENDROOT
BRANCH   1   3
ATOM      3  C   UNL     1     -10.426  16.669  66.395  0.00  0.00    +0.217 C 
ATOM      4  O   UNL     1     -10.616  17.000  64.939  0.00  0.00    -0.217 OA
BRANCH   3   6
ATOM      5  O   UNL     1      -8.760  18.309  65.927  0.00  0.00    -0.217 OA
ATOM      6  C   UNL     1      -8.816  17.016  66.354  0.00  0.00    +0.217 C 
ENDBRANCH   3   6
ENDBRANCH   1   3
BRANCH   1   7
ATOM      7  C   UNL     1     -11.662  14.391  66.169  0.00  0.00    +0.217 C 
ATOM      8  O   UNL     1     -11.200  13.166  66.897  0.00  0.00    -0.217 OA
BRANCH   7   9
ATOM      9  C   UNL     1     -11.488  13.775  64.571  0.00  0.00    +0.217 C 
ATOM     10  O   UNL     1     -12.577  14.727  64.114  0.00  0.00    -0.217 OA
BRANCH   9  11
ATOM     11  C   UNL     1     -12.567  12.546  64.719  0.00  0.00    +0.217 C 
ATOM     12  O   UNL     1     -12.936  12.200  63.422  0.00  0.00    -0.217 OA
ENDBRANCH   9  11
ENDBRANCH   7   9
ENDBRANCH   1   7
TORSDOF 5
ENDMDL
MODEL 4
REMARK VINA RESULT:      -4.7      4.721      5.924
REMARK  Name = 
REMARK  5 active torsions:
REMARK  status: ('A' for Active; 'I' for Inactive)
REMARK    1  A    between atoms: C_2  and  C_3
REMARK    2  A    between atoms: C_3  and  C_5
REMARK    3  A    between atoms: C_5  and  C_7
REMARK    4  A    between atoms: C_7  and  C_9
REMARK    5  A    between atoms: C_9  and  C_11
REMARK                            x       y       z     vdW  Elec       q    Type
REMARK                         _______ _______ _______ _____ _____    ______ ____
ROOT
ATOM      1  C   UNL     1     -10.525  16.195  66.115  0.00  0.00    +0.217 C 
ATOM      2  O   UNL     1      -9.112  16.242  65.610  0.00  0.00    -0.217 OA
ENDROOT
BRANCH   1   3
ATOM      3  C   UNL     1     -10.020  16.724  67.667  0.00  0.00    +0.217 C 
ATOM      4  O   UNL     1     -11.371  16.884  68.312  0.00  0.00    -0.217 OA
BRANCH   3   6
ATOM      5  O   UNL     1     -10.620  18.987  68.116  0.00  0.00    -0.217 OA
ATOM      6  C   UNL     1      -9.994  18.281  67.132  0.00  0.00    +0.217 C 
ENDBRANCH   3   6
ENDBRANCH   1   3
BRANCH   1   7
ATOM      7  C   UNL     1     -10.399  14.514  66.350  0.00  0.00    +0.217 C 
ATOM      8  O   UNL     1     -10.168  14.354  64.878  0.00  0.00    -0.217 OA
BRANCH   7   9
ATOM      9  C   UNL     1     -12.101  14.253  66.335  0.00  0.00    +0.217 C 
ATOM     10  O   UNL     1     -12.017  13.798  67.779  0.00  0.00    -0.217 OA
BRANCH   9  11
ATOM     11  C   UNL     1     -12.055  12.702  65.799  0.00  0.00    +0.217 C 
ATOM     12  O   UNL     1     -13.075  12.591  64.858  0.00  0.00    -0.217 OA
ENDBRANCH   9  11
ENDBRANCH   7   9
ENDBRANCH   1   7
TORSDOF 5
ENDMDL
MODEL 5
REMARK VINA RESULT:      -4.7      5.987      7.520
REMARK  Name = 
REMARK  5 active torsions:
REMARK  status: ('A' for Active; 'I' for Inactive)
REMARK    1  A    between atoms: C_2  and  C_3
REMARK    2  A    between atoms: C_3  and  C_5
REMARK    3  A    between atoms: C_5  and  C_7
REMARK    4  A    between atoms: C_7  and  C_9
REMARK    5  A    between atoms: C_9  and  C_11
REMARK                            x       y       z     vdW  Elec       q    Type
REMARK                         _______ _______ _______ _____ _____    ______ ____
ROOT
ATOM      1  C   UNL     1     -11.093  14.790  64.631  0.00  0.00    +0.217 C 
ATOM      2  O   UNL     1     -12.346  15.348  64.019  0.00  0.00    -0.217 OA
ENDROOT
BRANCH   1   3
ATOM      3  C   UNL     1     -12.009  13.692  65.580  0.00  0.00    +0.217 C 
ATOM      4  O   UNL     1     -10.878  12.925  66.210  0.00  0.00    -0.217 OA
BRANCH   3   6
ATOM      5  O   UNL     1     -13.384  12.181  64.350  0.00  0.00    -0.217 OA
ATOM      6  C   UNL     1     -12.109  12.662  64.298  0.00  0.00    +0.217 C 
ENDBRANCH   3   6
ENDBRANCH   1   3
BRANCH   1   7
ATOM      7  C   UNL     1     -11.026  16.096  65.720  0.00  0.00    +0.217 C 
ATOM      8  O   UNL     1     -11.009  17.033  64.551  0.00  0.00    -0.217 OA
BRANCH   7   9
ATOM      9  C   UNL     1      -9.322  15.991  65.942  0.00  0.00    +0.217 C 
ATOM     10  O   UNL     1      -9.563  15.527  67.365  0.00  0.00    -0.217 OA
BRANCH   9  11
ATOM     11  C   UNL     1      -9.096  17.539  66.441  0.00  0.00    +0.217 C 
ATOM     12  O   UNL     1      -7.990  18.011  65.739  0.00  0.00    -0.217 OA
ENDBRANCH   9  11
ENDBRANCH   7   9
ENDBRANCH   1   7
TORSDOF 5
ENDMDL
MODEL 6
REMARK VINA RESULT:      -4.6      5.417      7.178
REMARK  Name = 
REMARK  5 active torsions:
REMARK  status: ('A' for Active; 'I' for Inactive)
REMARK    1  A    between atoms: C_2  and  C_3
REMARK    2  A    between atoms: C_3  and  C_5
REMARK    3  A    between atoms: C_5  and  C_7
REMARK    4  A    between atoms: C_7  and  C_9
REMARK    5  A    between atoms: C_9  and  C_11
REMARK                            x       y       z     vdW  Elec       q    Type
REMARK                         _______ _______ _______ _____ _____    ______ ____
ROOT
ATOM      1  C   UNL     1     -10.816  15.958  66.639  0.00  0.00    +0.217 C 
ATOM      2  O   UNL     1      -9.957  14.811  67.088  0.00  0.00    -0.217 OA
ENDROOT
BRANCH   1   3
ATOM      3  C   UNL     1     -10.556  15.548  64.993  0.00  0.00    +0.217 C 
ATOM      4  O   UNL     1     -11.353  16.649  64.347  0.00  0.00    -0.217 OA
BRANCH   3   6
ATOM      5  O   UNL     1     -12.603  14.884  63.966  0.00  0.00    -0.217 OA
ATOM      6  C   UNL     1     -11.845  14.524  65.040  0.00  0.00    +0.217 C 
ENDBRANCH   3   6
ENDBRANCH   1   3
BRANCH   1   7
ATOM      7  C   UNL     1      -9.517  17.035  66.857  0.00  0.00    +0.217 C 
ATOM      8  O   UNL     1      -9.447  16.615  68.293  0.00  0.00    -0.217 OA
BRANCH   7   9
ATOM      9  C   UNL     1     -10.527  18.412  67.080  0.00  0.00    +0.217 C 
ATOM     10  O   UNL     1     -10.027  18.959  65.757  0.00  0.00    -0.217 OA
BRANCH   9  11
ATOM     11  C   UNL     1      -9.441  19.317  67.913  0.00  0.00    +0.217 C 
ATOM     12  O   UNL     1      -9.601  20.623  67.459  0.00  0.00    -0.217 OA
ENDBRANCH   9  11
ENDBRANCH   7   9
ENDBRANCH   1   7
TORSDOF 5
ENDMDL
MODEL 7
REMARK VINA RESULT:      -4.5      3.592      5.647
REMARK  Name = 
REMARK  5 active torsions:
REMARK  status: ('A' for Active; 'I' for Inactive)
REMARK    1  A    between atoms: C_2  and  C_3
REMARK    2  A    between atoms: C_3  and  C_5
REMARK    3  A    between atoms: C_5  and  C_7
REMARK    4  A    between atoms: C_7  and  C_9
REMARK    5  A    between atoms: C_9  and  C_11
REMARK                            x       y       z     vdW  Elec       q    Type
REMARK                         _______ _______ _______ _____ _____    ______ ____
ROOT
ATOM      1  C   UNL     1     -11.081  15.058  66.637  0.00  0.00    +0.217 C 
ATOM      2  O   UNL     1      -9.680  15.575  66.480  0.00  0.00    -0.217 OA
ENDROOT
BRANCH   1   3
ATOM      3  C   UNL     1     -10.799  14.708  68.293  0.00  0.00    +0.217 C 
ATOM      4  O   UNL     1     -12.161  14.181  68.658  0.00  0.00    -0.217 OA
BRANCH   3   6
ATOM      5  O   UNL     1     -12.107  16.125  69.696  0.00  0.00    -0.217 OA
ATOM      6  C   UNL     1     -11.196  16.257  68.691  0.00  0.00    +0.217 C 
ENDBRANCH   3   6
ENDBRANCH   1   3
BRANCH   1   7
ATOM      7  C   UNL     1     -10.620  13.564  65.965  0.00  0.00    +0.217 C 
ATOM      8  O   UNL     1     -10.294  14.272  64.686  0.00  0.00    -0.217 OA
BRANCH   7   9
ATOM      9  C   UNL     1     -12.228  13.104  65.557  0.00  0.00    +0.217 C 
ATOM     10  O   UNL     1     -12.089  11.904  66.473  0.00  0.00    -0.217 OA
BRANCH   9  11
ATOM     11  C   UNL     1     -11.844  12.198  64.243  0.00  0.00    +0.217 C 
ATOM     12  O   UNL     1     -13.010  12.101  63.489  0.00  0.00    -0.217 OA
ENDBRANCH   9  11
ENDBRANCH   7   9
ENDBRANCH   1   7
TORSDOF 5
ENDMDL
MODEL 8
REMARK VINA RESULT:      -4.4      3.629      6.484
REMARK  Name = 
REMARK  5 active torsions:
REMARK  status: ('A' for Active; 'I' for Inactive)
REMARK    1  A    between atoms: C_2  and  C_3
REMARK    2  A    between atoms: C_3  and  C_5
REMARK    3  A    between atoms: C_5  and  C_7
REMARK    4  A    between atoms: C_7  and  C_9
REMARK    5  A    between atoms: C_9  and  C_11
REMARK                            x       y       z     vdW  Elec       q    Type
REMARK                         _______ _______ _______ _____ _____    ______ ____
ROOT
ATOM      1  C   UNL     1     -12.141  13.718  66.047  0.00  0.00    +0.217 C 
ATOM      2  O   UNL     1     -12.028  12.600  65.051  0.00  0.00    -0.217 OA
ENDROOT
BRANCH   1   3
ATOM      3  C   UNL     1     -10.928  14.612  65.226  0.00  0.00    +0.217 C 
ATOM      4  O   UNL     1     -10.842  15.797  66.150  0.00  0.00    -0.217 OA
BRANCH   3   6
ATOM      5  O   UNL     1     -11.559  16.539  63.971  0.00  0.00    -0.217 OA
ATOM      6  C   UNL     1     -12.080  15.319  64.285  0.00  0.00    +0.217 C 
ENDBRANCH   3   6
ENDBRANCH   1   3
BRANCH   1   7
ATOM      7  C   UNL     1     -11.153  12.864  67.138  0.00  0.00    +0.217 C 
ATOM      8  O   UNL     1     -12.096  11.705  67.040  0.00  0.00    -0.217 OA
BRANCH   7   9
ATOM      9  C   UNL     1     -11.845  13.593  68.536  0.00  0.00    +0.217 C 
ATOM     10  O   UNL     1     -10.473  14.121  68.907  0.00  0.00    -0.217 OA
BRANCH   9  11
ATOM     11  C   UNL     1     -11.665  12.304  69.537  0.00  0.00    +0.217 C 
ATOM     12  O   UNL     1     -12.311  12.644  70.721  0.00  0.00    -0.217 OA
ENDBRANCH   9  11
ENDBRANCH   7   9
ENDBRANCH   1   7
TORSDOF 5
ENDMDL
MODEL 9
REMARK VINA RESULT:      -4.4      4.112      5.675
REMARK  Name = 
REMARK  5 active torsions:
REMARK  status: ('A' for Active; 'I' for Inactive)
REMARK    1  A    between atoms: C_2  and  C_3
REMARK    2  A    between atoms: C_3  and  C_5
REMARK    3  A    between atoms: C_5  and  C_7
REMARK    4  A    between atoms: C_7  and  C_9
REMARK    5  A    between atoms: C_9  and  C_11
REMARK                            x       y       z     vdW  Elec       q    Type
REMARK                         _______ _______ _______ _____ _____    ______ ____
ROOT
ATOM      1  C   UNL     1     -11.566  13.926  67.924  0.00  0.00    +0.217 C 
ATOM      2  O   UNL     1     -10.800  14.252  69.174  0.00  0.00    -0.217 OA
ENDROOT
BRANCH   1   3
ATOM      3  C   UNL     1     -10.851  12.367  67.856  0.00  0.00    +0.217 C 
ATOM      4  O   UNL     1     -11.797  11.716  66.883  0.00  0.00    -0.217 OA
BRANCH   3   6
ATOM      5  O   UNL     1     -12.328  10.737  68.774  0.00  0.00    -0.217 OA
ATOM      6  C   UNL     1     -11.736  11.900  69.164  0.00  0.00    +0.217 C 
ENDBRANCH   3   6
ENDBRANCH   1   3
BRANCH   1   7
ATOM      7  C   UNL     1     -10.431  14.783  66.989  0.00  0.00    +0.217 C 
ATOM      8  O   UNL     1     -10.918  16.054  67.615  0.00  0.00    -0.217 OA
BRANCH   7   9
ATOM      9  C   UNL     1     -11.430  14.832  65.587  0.00  0.00    +0.217 C 
ATOM     10  O   UNL     1     -10.396  14.002  64.853  0.00  0.00    -0.217 OA
BRANCH   9  11
ATOM     11  C   UNL     1     -10.820  16.223  64.962  0.00  0.00    +0.217 C 
ATOM     12  O   UNL     1     -11.643  16.555  63.890  0.00  0.00    -0.217 OA
ENDBRANCH   9  11
ENDBRANCH   7   9
ENDBRANCH   1   7
TORSDOF 5
ENDMDL
