MODEL 1
REMARK VINA RESULT:      -6.9      0.000      0.000
REMARK  Name = 
REMARK  4 active torsions:
REMARK  status: ('A' for Active; 'I' for Inactive)
REMARK    1  A    between atoms: C_2  and  C_3
REMARK    2  A    between atoms: C_2  and  C_6
REMARK    3  A    between atoms: C_10  and  C_11
REMARK    4  A    between atoms: C_11  and  C_13
REMARK                            x       y       z     vdW  Elec       q    Type
REMARK                         _______ _______ _______ _____ _____    ______ ____
ROOT
ATOM      1  C   UNL     1     -11.333  13.815  65.971  0.00  0.00    -0.012 A 
ATOM      2  C   UNL     1     -11.932  14.431  67.072  0.00  0.00    -0.001 A 
ATOM      3  C   UNL     1     -11.242  14.814  68.198  0.00  0.00    +0.039 A 
ATOM      4  C   UNL     1      -9.881  14.539  68.271  0.00  0.00    +0.003 A 
ATOM      5  C   UNL     1      -9.209  14.204  67.103  0.00  0.00    -0.000 A 
ATOM      6  C   UNL     1      -9.986  13.614  66.123  0.00  0.00    -0.004 A 
ENDROOT
BRANCH   1   8
ATOM      7  C   UNL     1     -10.809  11.582  65.193  0.00  0.00    +0.017 C 
ATOM      8  C   UNL     1     -12.174  12.478  65.533  0.00  0.00    +0.126 C 
BRANCH   8   9
ATOM      9  C   UNL     1     -12.264  12.981  63.979  0.00  0.00    +0.368 C 
ATOM     10  O   UNL     1     -12.806  12.005  63.137  0.00  0.00    -0.245 OA
ATOM     11  O   UNL     1     -12.566  14.186  63.868  0.00  0.00    -0.245 OA
ENDBRANCH   8   9
ENDBRANCH   1   8
BRANCH   3  12
ATOM     12  C   UNL     1     -11.747  15.807  69.160  0.00  0.00    +0.196 C 
ATOM     13  O   UNL     1     -11.200  16.953  69.118  0.00  0.00    -0.287 OA
BRANCH  12  14
ATOM     14  C   UNL     1     -12.050  15.342  70.521  0.00  0.00    +0.039 A 
ATOM     15  C   UNL     1     -12.622  14.094  70.745  0.00  0.00    +0.003 A 
ATOM     16  C   UNL     1     -13.452  13.897  71.839  0.00  0.00    +0.000 A 
ATOM     17  C   UNL     1     -13.081  14.575  72.994  0.00  0.00    +0.000 A 
ATOM     18  C   UNL     1     -12.427  15.771  72.845  0.00  0.00    +0.000 A 
ATOM     19  C   UNL     1     -11.815  16.093  71.640  0.00  0.00    +0.003 A 
ENDBRANCH  12  14
ENDBRANCH   3  12
TORSDOF 4
ENDMDL
MODEL 2
REMARK VINA RESULT:      -6.5      3.422      6.260
REMARK  Name = 
REMARK  4 active torsions:
REMARK  status: ('A' for Active; 'I' for Inactive)
REMARK    1  A    between atoms: C_2  and  C_3
REMARK    2  A    between atoms: C_2  and  C_6
REMARK    3  A    between atoms: C_10  and  C_11
REMARK    4  A    between atoms: C_11  and  C_13
REMARK                            x       y       z     vdW  Elec       q    Type
REMARK                         _______ _______ _______ _____ _____    ______ ____
ROOT
ATOM      1  C   UNL     1     -12.105  14.926  70.732  0.00  0.00    -0.012 A 
ATOM      2  C   UNL     1     -10.955  15.630  70.366  0.00  0.00    -0.001 A 
ATOM      3  C   UNL     1     -10.180  15.307  69.278  0.00  0.00    +0.039 A 
ATOM      4  C   UNL     1     -10.528  14.195  68.519  0.00  0.00    +0.003 A 
ATOM      5  C   UNL     1     -11.800  13.660  68.672  0.00  0.00    -0.000 A 
ATOM      6  C   UNL     1     -12.384  13.868  69.908  0.00  0.00    -0.004 A 
ENDROOT
BRANCH   1   8
ATOM      7  C   UNL     1     -13.515  13.729  72.296  0.00  0.00    +0.017 C 
ATOM      8  C   UNL     1     -12.065  14.553  72.328  0.00  0.00    +0.126 C 
BRANCH   8   9
ATOM      9  C   UNL     1     -12.834  15.942  72.724  0.00  0.00    +0.368 C 
ATOM     10  O   UNL     1     -14.194  15.905  72.403  0.00  0.00    -0.245 OA
ATOM     11  O   UNL     1     -12.423  16.446  73.789  0.00  0.00    -0.245 OA
ENDBRANCH   8   9
ENDBRANCH   1   8
BRANCH   3  12
ATOM     12  C   UNL     1      -9.240  16.246  68.644  0.00  0.00    +0.196 C 
ATOM     13  O   UNL     1      -8.125  16.403  69.232  0.00  0.00    -0.287 OA
BRANCH  12  14
ATOM     14  C   UNL     1      -9.795  17.485  68.080  0.00  0.00    +0.039 A 
ATOM     15  C   UNL     1     -10.438  17.490  66.846  0.00  0.00    +0.003 A 
ATOM     16  C   UNL     1     -10.396  18.623  66.047  0.00  0.00    +0.000 A 
ATOM     17  C   UNL     1     -10.453  19.832  66.729  0.00  0.00    +0.000 A 
ATOM     18  C   UNL     1      -9.919  19.873  67.993  0.00  0.00    +0.000 A 
ATOM     19  C   UNL     1      -9.704  18.698  68.703  0.00  0.00    +0.003 A 
ENDBRANCH  12  14
ENDBRANCH   3  12
TORSDOF 4
ENDMDL
MODEL 3
REMARK VINA RESULT:      -6.4      3.548      6.165
REMARK  Name = 
REMARK  4 active torsions:
REMARK  status: ('A' for Active; 'I' for Inactive)
REMARK    1  A    between atoms: C_2  and  C_3
REMARK    2  A    between atoms: C_2  and  C_6
REMARK    3  A    between atoms: C_10  and  C_11
REMARK    4  A    between atoms: C_11  and  C_13
REMARK                            x       y       z     vdW  Elec       q    Type
REMARK                         _______ _______ _______ _____ _____    ______ ____
ROOT
ATOM      1  C   UNL     1     -11.912  14.866  70.751  0.00  0.00    -0.012 A 
ATOM      2  C   UNL     1     -12.080  13.498  70.526  0.00  0.00    -0.001 A 
ATOM      3  C   UNL     1     -11.940  12.907  69.292  0.00  0.00    +0.039 A 
ATOM      4  C   UNL     1     -11.659  13.714  68.196  0.00  0.00    +0.003 A 
ATOM      5  C   UNL     1     -11.204  15.006  68.423  0.00  0.00    -0.000 A 
ATOM      6  C   UNL     1     -11.607  15.573  69.617  0.00  0.00    -0.004 A 
ENDROOT
BRANCH   1   8
ATOM      7  C   UNL     1     -12.210  16.323  72.663  0.00  0.00    +0.017 C 
ATOM      8  C   UNL     1     -13.175  15.466  71.606  0.00  0.00    +0.126 C 
BRANCH   8   9
ATOM      9  C   UNL     1     -13.174  14.174  72.610  0.00  0.00    +0.368 C 
ATOM     10  O   UNL     1     -12.477  14.426  73.796  0.00  0.00    -0.245 OA
ATOM     11  O   UNL     1     -14.251  13.543  72.602  0.00  0.00    -0.245 OA
ENDBRANCH   8   9
ENDBRANCH   1   8
BRANCH   3  12
ATOM     12  C   UNL     1     -11.703  11.466  69.105  0.00  0.00    +0.196 C 
ATOM     13  O   UNL     1     -12.164  10.958  68.036  0.00  0.00    -0.287 OA
BRANCH  12  14
ATOM     14  C   UNL     1     -11.837  10.597  70.283  0.00  0.00    +0.039 A 
ATOM     15  C   UNL     1     -10.777   9.812  70.723  0.00  0.00    +0.003 A 
ATOM     16  C   UNL     1     -11.025   8.604  71.359  0.00  0.00    +0.000 A 
ATOM     17  C   UNL     1     -12.135   8.591  72.194  0.00  0.00    +0.000 A 
ATOM     18  C   UNL     1     -13.183   9.415  71.869  0.00  0.00    +0.000 A 
ATOM     19  C   UNL     1     -12.994  10.485  71.003  0.00  0.00    +0.003 A 
ENDBRANCH  12  14
ENDBRANCH   3  12
TORSDOF 4
ENDMDL
MODEL 4
REMARK VINA RESULT:      -6.4      2.049      6.354
REMARK  Name = 
REMARK  4 active torsions:
REMARK  status: ('A' for Active; 'I' for Inactive)
REMARK    1  A    between atoms: C_2  and  C_3
REMARK    2  A    between atoms: C_2  and  C_6
REMARK    3  A    between atoms: C_10  and  C_11
REMARK    4  A    between atoms: C_11  and  C_13
REMARK                            x       y       z     vdW  Elec       q    Type
REMARK                         _______ _______ _______ _____ _____    ______ ____
ROOT
ATOM      1  C   UNL     1     -12.618  14.859  69.932  0.00  0.00    -0.012 A 
ATOM      2  C   UNL     1     -11.936  15.401  68.840  0.00  0.00    -0.001 A 
ATOM      3  C   UNL     1     -10.985  14.716  68.121  0.00  0.00    +0.039 A 
ATOM      4  C   UNL     1     -10.647  13.429  68.522  0.00  0.00    +0.003 A 
ATOM      5  C   UNL     1     -11.493  12.764  69.398  0.00  0.00    -0.000 A 
ATOM      6  C   UNL     1     -12.239  13.577  70.231  0.00  0.00    -0.004 A 
ENDROOT
BRANCH   1   8
ATOM      7  C   UNL     1     -11.500  14.970  72.078  0.00  0.00    +0.017 C 
ATOM      8  C   UNL     1     -12.580  15.893  71.203  0.00  0.00    +0.126 C 
BRANCH   8   9
ATOM      9  C   UNL     1     -13.844  15.141  71.919  0.00  0.00    +0.368 C 
ATOM     10  O   UNL     1     -13.565  14.778  73.241  0.00  0.00    -0.245 OA
ATOM     11  O   UNL     1     -14.950  15.612  71.586  0.00  0.00    -0.245 OA
ENDBRANCH   8   9
ENDBRANCH   1   8
BRANCH   3  12
ATOM     12  C   UNL     1     -10.570  15.093  66.760  0.00  0.00    +0.196 C 
ATOM     13  O   UNL     1     -10.583  16.335  66.496  0.00  0.00    -0.287 OA
BRANCH  12  14
ATOM     14  C   UNL     1     -11.028  14.244  65.651  0.00  0.00    +0.039 A 
ATOM     15  C   UNL     1     -12.379  13.969  65.465  0.00  0.00    +0.003 A 
ATOM     16  C   UNL     1     -12.769  12.765  64.896  0.00  0.00    +0.000 A 
ATOM     17  C   UNL     1     -11.942  12.291  63.886  0.00  0.00    +0.000 A 
ATOM     18  C   UNL     1     -10.609  12.606  63.958  0.00  0.00    +0.000 A 
ATOM     19  C   UNL     1     -10.177  13.660  64.753  0.00  0.00    +0.003 A 
ENDBRANCH  12  14
ENDBRANCH   3  12
TORSDOF 4
ENDMDL
MODEL 5
REMARK VINA RESULT:      -6.4      2.922      3.455
REMARK  Name = 
REMARK  4 active torsions:
REMARK  status: ('A' for Active; 'I' for Inactive)
REMARK    1  A    between atoms: C_2  and  C_3
REMARK    2  A    between atoms: C_2  and  C_6
REMARK    3  A    between atoms: C_10  and  C_11
REMARK    4  A    between atoms: C_11  and  C_13
REMARK                            x       y       z     vdW  Elec       q    Type
REMARK                         _______ _______ _______ _____ _____    ______ ____
ROOT
ATOM      1  C   UNL     1     -11.436  11.973  68.421  0.00  0.00    -0.012 A 
ATOM      2  C   UNL     1     -11.462  13.204  69.081  0.00  0.00    -0.001 A 
ATOM      3  C   UNL     1     -11.664  14.405  68.444  0.00  0.00    +0.039 A 
ATOM      4  C   UNL     1     -11.809  14.409  67.061  0.00  0.00    +0.003 A 
ATOM      5  C   UNL     1     -12.078  13.208  66.420  0.00  0.00    -0.000 A 
ATOM      6  C   UNL     1     -11.618  12.076  67.067  0.00  0.00    -0.004 A 
ENDROOT
BRANCH   1   8
ATOM      7  C   UNL     1     -10.071  10.220  67.455  0.00  0.00    +0.017 C 
ATOM      8  C   UNL     1     -10.114  11.112  68.865  0.00  0.00    +0.126 C 
BRANCH   8   9
ATOM      9  C   UNL     1     -11.037   9.972  69.589  0.00  0.00    +0.368 C 
ATOM     10  O   UNL     1     -10.738   8.683  69.137  0.00  0.00    -0.245 OA
ATOM     11  O   UNL     1     -11.261  10.211  70.793  0.00  0.00    -0.245 OA
ENDBRANCH   8   9
ENDBRANCH   1   8
BRANCH   3  12
ATOM     12  C   UNL     1     -12.103  15.627  69.137  0.00  0.00    +0.196 C 
ATOM     13  O   UNL     1     -11.485  16.694  68.833  0.00  0.00    -0.287 OA
BRANCH  12  14
ATOM     14  C   UNL     1     -12.432  15.517  70.566  0.00  0.00    +0.039 A 
ATOM     15  C   UNL     1     -13.621  14.931  70.988  0.00  0.00    +0.003 A 
ATOM     16  C   UNL     1     -14.223  15.354  72.164  0.00  0.00    +0.000 A 
ATOM     17  C   UNL     1     -13.349  15.684  73.192  0.00  0.00    +0.000 A 
ATOM     18  C   UNL     1     -12.118  16.180  72.843  0.00  0.00    +0.000 A 
ATOM     19  C   UNL     1     -11.621  15.989  71.560  0.00  0.00    +0.003 A 
ENDBRANCH  12  14
ENDBRANCH   3  12
TORSDOF 4
ENDMDL
MODEL 6
REMARK VINA RESULT:      -6.3      3.945      4.829
REMARK  Name = 
REMARK  4 active torsions:
REMARK  status: ('A' for Active; 'I' for Inactive)
REMARK    1  A    between atoms: C_2  and  C_3
REMARK    2  A    between atoms: C_2  and  C_6
REMARK    3  A    between atoms: C_10  and  C_11
REMARK    4  A    between atoms: C_11  and  C_13
REMARK                            x       y       z     vdW  Elec       q    Type
REMARK                         _______ _______ _______ _____ _____    ______ ____
ROOT
ATOM      1  C   UNL     1     -12.178  10.710  70.048  0.00  0.00    -0.012 A 
ATOM      2  C   UNL     1     -12.216  12.087  70.278  0.00  0.00    -0.001 A 
ATOM      3  C   UNL     1     -11.717  13.020  69.399  0.00  0.00    +0.039 A 
ATOM      4  C   UNL     1     -11.102  12.574  68.234  0.00  0.00    +0.003 A 
ATOM      5  C   UNL     1     -11.304  11.259  67.839  0.00  0.00    -0.000 A 
ATOM      6  C   UNL     1     -11.581  10.370  68.862  0.00  0.00    -0.004 A 
ENDROOT
BRANCH   1   8
ATOM      7  C   UNL     1     -10.803   8.758  70.455  0.00  0.00    +0.017 C 
ATOM      8  C   UNL     1     -11.582   9.926  71.358  0.00  0.00    +0.126 C 
BRANCH   8   9
ATOM      9  C   UNL     1     -12.918   8.987  71.467  0.00  0.00    +0.368 C 
ATOM     10  O   UNL     1     -12.620   7.626  71.355  0.00  0.00    -0.245 OA
ATOM     11  O   UNL     1     -13.752   9.412  72.293  0.00  0.00    -0.245 OA
ENDBRANCH   8   9
ENDBRANCH   1   8
BRANCH   3  12
ATOM     12  C   UNL     1     -12.106  14.439  69.415  0.00  0.00    +0.196 C 
ATOM     13  O   UNL     1     -11.408  15.218  68.694  0.00  0.00    -0.287 OA
BRANCH  12  14
ATOM     14  C   UNL     1     -12.503  15.020  70.706  0.00  0.00    +0.039 A 
ATOM     15  C   UNL     1     -11.552  15.414  71.642  0.00  0.00    +0.003 A 
ATOM     16  C   UNL     1     -11.846  15.356  72.996  0.00  0.00    +0.000 A 
ATOM     17  C   UNL     1     -13.153  15.684  73.333  0.00  0.00    +0.000 A 
ATOM     18  C   UNL     1     -14.133  15.408  72.414  0.00  0.00    +0.000 A 
ATOM     19  C   UNL     1     -13.807  15.193  71.081  0.00  0.00    +0.003 A 
ENDBRANCH  12  14
ENDBRANCH   3  12
TORSDOF 4
ENDMDL
MODEL 7
REMARK VINA RESULT:      -6.3      2.826      4.765
REMARK  Name = 
REMARK  4 active torsions:
REMARK  status: ('A' for Active; 'I' for Inactive)
REMARK    1  A    between atoms: C_2  and  C_3
REMARK    2  A    between atoms: C_2  and  C_6
REMARK    3  A    between atoms: C_10  and  C_11
REMARK    4  A    between atoms: C_11  and  C_13
REMARK                            x       y       z     vdW  Elec       q    Type
REMARK                         _______ _______ _______ _____ _____    ______ ____
ROOT
ATOM      1  C   UNL     1     -10.033  17.658  67.581  0.00  0.00    -0.012 A 
ATOM      2  C   UNL     1     -10.617  16.951  68.635  0.00  0.00    -0.001 A 
ATOM      3  C   UNL     1     -11.227  15.728  68.486  0.00  0.00    +0.039 A 
ATOM      4  C   UNL     1     -11.308  15.176  67.212  0.00  0.00    +0.003 A 
ATOM      5  C   UNL     1     -10.498  15.696  66.211  0.00  0.00    -0.000 A 
ATOM      6  C   UNL     1     -10.136  17.021  66.372  0.00  0.00    -0.004 A 
ENDROOT
BRANCH   1   8
ATOM      7  C   UNL     1     -10.532  19.341  65.912  0.00  0.00    +0.017 C 
ATOM      8  C   UNL     1     -10.552  19.213  67.576  0.00  0.00    +0.126 C 
BRANCH   8   9
ATOM      9  C   UNL     1      -9.019  19.778  67.664  0.00  0.00    +0.368 C 
ATOM     10  O   UNL     1      -8.336  19.285  68.781  0.00  0.00    -0.245 OA
ATOM     11  O   UNL     1      -8.467  19.882  66.550  0.00  0.00    -0.245 OA
ENDBRANCH   8   9
ENDBRANCH   1   8
BRANCH   3  12
ATOM     12  C   UNL     1     -11.467  14.799  69.602  0.00  0.00    +0.196 C 
ATOM     13  O   UNL     1     -11.713  13.595  69.284  0.00  0.00    -0.287 OA
BRANCH  12  14
ATOM     14  C   UNL     1     -12.267  15.291  70.734  0.00  0.00    +0.039 A 
ATOM     15  C   UNL     1     -11.676  15.976  71.790  0.00  0.00    +0.003 A 
ATOM     16  C   UNL     1     -12.218  15.888  73.064  0.00  0.00    +0.000 A 
ATOM     17  C   UNL     1     -13.605  15.840  73.116  0.00  0.00    +0.000 A 
ATOM     18  C   UNL     1     -14.260  15.261  72.058  0.00  0.00    +0.000 A 
ATOM     19  C   UNL     1     -13.617  15.098  70.837  0.00  0.00    +0.003 A 
ENDBRANCH  12  14
ENDBRANCH   3  12
TORSDOF 4
ENDMDL
MODEL 8
REMARK VINA RESULT:      -6.3      2.606      4.001
REMARK  Name = 
REMARK  4 active torsions:
REMARK  status: ('A' for Active; 'I' for Inactive)
REMARK    1  A    between atoms: C_2  and  C_3
REMARK    2  A    between atoms: C_2  and  C_6
REMARK    3  A    between atoms: C_10  and  C_11
REMARK    4  A    between atoms: C_11  and  C_13
REMARK                            x       y       z     vdW  Elec       q    Type
REMARK                         _______ _______ _______ _____ _____    ______ ____
ROOT
ATOM      1  C   UNL     1     -10.994  14.315  66.109  0.00  0.00    -0.012 A 
ATOM      2  C   UNL     1     -11.183  15.232  67.146  0.00  0.00    -0.001 A 
ATOM      3  C   UNL     1     -10.266  15.448  68.148  0.00  0.00    +0.039 A 
ATOM      4  C   UNL     1      -9.102  14.687  68.159  0.00  0.00    +0.003 A 
ATOM      5  C   UNL     1      -8.752  13.994  67.009  0.00  0.00    -0.000 A 
ATOM      6  C   UNL     1      -9.807  13.636  66.189  0.00  0.00    -0.004 A 
ENDROOT
BRANCH   1   8
ATOM      7  C   UNL     1     -11.428  11.948  65.831  0.00  0.00    +0.017 C 
ATOM      8  C   UNL     1     -12.314  13.358  65.942  0.00  0.00    +0.126 C 
BRANCH   8   9
ATOM      9  C   UNL     1     -12.295  13.529  64.315  0.00  0.00    +0.368 C 
ATOM     10  O   UNL     1     -12.799  12.402  63.658  0.00  0.00    -0.245 OA
ATOM     11  O   UNL     1     -12.569  14.687  63.938  0.00  0.00    -0.245 OA
ENDBRANCH   8   9
ENDBRANCH   1   8
BRANCH   3  12
ATOM     12  C   UNL     1     -10.248  16.659  68.983  0.00  0.00    +0.196 C 
ATOM     13  O   UNL     1     -11.248  16.826  69.748  0.00  0.00    -0.287 OA
BRANCH  12  14
ATOM     14  C   UNL     1      -9.756  17.901  68.368  0.00  0.00    +0.039 A 
ATOM     15  C   UNL     1     -10.591  18.701  67.593  0.00  0.00    +0.003 A 
ATOM     16  C   UNL     1     -10.064  19.452  66.554  0.00  0.00    +0.000 A 
ATOM     17  C   UNL     1      -8.808  19.996  66.793  0.00  0.00    +0.000 A 
ATOM     18  C   UNL     1      -7.965  19.304  67.626  0.00  0.00    +0.000 A 
ATOM     19  C   UNL     1      -8.468  18.341  68.493  0.00  0.00    +0.003 A 
ENDBRANCH  12  14
ENDBRANCH   3  12
TORSDOF 4
ENDMDL
MODEL 9
REMARK VINA RESULT:      -6.2      2.459      6.700
REMARK  Name = 
REMARK  4 active torsions:
REMARK  status: ('A' for Active; 'I' for Inactive)
REMARK    1  A    between atoms: C_2  and  C_3
REMARK    2  A    between atoms: C_2  and  C_6
REMARK    3  A    between atoms: C_10  and  C_11
REMARK    4  A    between atoms: C_11  and  C_13
REMARK                            x       y       z     vdW  Elec       q    Type
REMARK                         _______ _______ _______ _____ _____    ______ ____
ROOT
ATOM      1  C   UNL     1     -11.702  14.563  70.773  0.00  0.00    -0.012 A 
ATOM      2  C   UNL     1     -12.106  13.542  69.911  0.00  0.00    -0.001 A 
ATOM      3  C   UNL     1     -11.587  13.359  68.651  0.00  0.00    +0.039 A 
ATOM      4  C   UNL     1     -10.637  14.262  68.186  0.00  0.00    +0.003 A 
ATOM      5  C   UNL     1     -10.009  15.094  69.102  0.00  0.00    -0.000 A 
ATOM      6  C   UNL     1     -10.742  15.382  70.239  0.00  0.00    -0.004 A 
ENDROOT
BRANCH   1   8
ATOM      7  C   UNL     1     -12.105  16.275  72.439  0.00  0.00    +0.017 C 
ATOM      8  C   UNL     1     -13.005  15.351  71.381  0.00  0.00    +0.126 C 
BRANCH   8   9
ATOM      9  C   UNL     1     -13.227  14.205  72.528  0.00  0.00    +0.368 C 
ATOM     10  O   UNL     1     -12.602  14.536  73.734  0.00  0.00    -0.245 OA
ATOM     11  O   UNL     1     -14.362  13.690  72.495  0.00  0.00    -0.245 OA
ENDBRANCH   8   9
ENDBRANCH   1   8
BRANCH   3  12
ATOM     12  C   UNL     1     -11.683  12.091  67.910  0.00  0.00    +0.196 C 
ATOM     13  O   UNL     1     -11.079  11.098  68.422  0.00  0.00    -0.287 OA
BRANCH  12  14
ATOM     14  C   UNL     1     -11.589  12.153  66.444  0.00  0.00    +0.039 A 
ATOM     15  C   UNL     1     -10.678  11.365  65.747  0.00  0.00    +0.003 A 
ATOM     16  C   UNL     1     -10.142  11.818  64.551  0.00  0.00    +0.000 A 
ATOM     17  C   UNL     1     -11.015  12.537  63.744  0.00  0.00    +0.000 A 
ATOM     18  C   UNL     1     -12.000  13.263  64.365  0.00  0.00    +0.000 A 
ATOM     19  C   UNL     1     -12.358  12.984  65.678  0.00  0.00    +0.003 A 
ENDBRANCH  12  14
ENDBRANCH   3  12
TORSDOF 4
ENDMDL
