MODEL 1
REMARK VINA RESULT:      -7.8      0.000      0.000
REMARK  Name = 
REMARK  5 active torsions:
REMARK  status: ('A' for Active; 'I' for Inactive)
REMARK    1  A    between atoms: N_2  and  S_4
REMARK    2  A    between atoms: S_4  and  C_7
REMARK    3  A    between atoms: C_14  and  C_15
REMARK    4  A    between atoms: C_15  and  C_16
REMARK    5  A    between atoms: C_16  and  N_17
REMARK                            x       y       z     vdW  Elec       q    Type
REMARK                         _______ _______ _______ _____ _____    ______ ____
ROOT
ATOM      1  C   UNL     1     -12.327  13.352  70.711  0.00  0.00    +0.122 A 
ATOM      2  C   UNL     1     -11.849  12.370  69.851  0.00  0.00    +0.020 A 
ATOM      3  C   UNL     1     -11.934  11.056  70.297  0.00  0.00    +0.007 A 
ATOM      4  C   UNL     1     -10.992  10.030  69.835  0.00  0.00    -0.003 C 
ATOM      5  C   UNL     1     -10.635   8.866  70.655  0.00  0.00    +0.006 A 
ATOM      6  C   UNL     1     -11.499   8.340  71.608  0.00  0.00    +0.029 A 
ATOM      7  S   UNL     1     -13.166   9.008  71.599  0.00  0.00    -0.087 S 
ATOM      8  C   UNL     1     -11.008   7.968  72.854  0.00  0.00    +0.006 A 
ATOM      9  C   UNL     1      -9.656   7.672  72.943  0.00  0.00    +0.001 A 
ATOM     10  C   UNL     1      -8.855   7.680  71.808  0.00  0.00    +0.000 A 
ATOM     11  C   UNL     1      -9.336   8.373  70.703  0.00  0.00    +0.000 A 
ATOM     12  C   UNL     1     -10.269  10.245  68.739  0.00  0.00    -0.025 C 
ATOM     13  C   UNL     1     -12.991  10.736  71.141  0.00  0.00    +0.030 A 
ATOM     14  C   UNL     1     -13.374  11.656  72.099  0.00  0.00    +0.008 A 
ATOM     15  C   UNL     1     -13.133  12.988  71.782  0.00  0.00    +0.020 A 
ENDROOT
BRANCH   1  16
ATOM     16  S   UNL     1     -11.882  15.025  70.599  0.00  0.00    +0.063 S 
ATOM     17  O   UNL     1     -11.143  15.472  71.815  0.00  0.00    -0.153 OA
ATOM     18  O   UNL     1     -13.126  15.871  70.444  0.00  0.00    -0.153 OA
BRANCH  16  20
ATOM     19  C   UNL     1      -9.539  15.307  69.568  0.00  0.00    +0.115 C 
ATOM     20  N   UNL     1     -10.926  15.303  69.179  0.00  0.00    -0.153 NA
ATOM     21  C   UNL     1     -11.229  16.587  68.587  0.00  0.00    +0.115 C 
ENDBRANCH  16  20
ENDBRANCH   1  16
BRANCH  12  22
ATOM     22  C   UNL     1     -10.636  11.422  67.890  0.00  0.00    +0.043 C 
BRANCH  22  23
ATOM     23  C   UNL     1     -10.706  10.965  66.443  0.00  0.00    +0.077 C 
BRANCH  23  24
ATOM     24  N   UNL     1     -11.609  11.844  65.714  0.00  0.00    -0.270 NA
ATOM     25  C   UNL     1     -11.818  13.082  66.427  0.00  0.00    +0.090 C 
ATOM     26  C   UNL     1     -12.875  13.878  65.674  0.00  0.00    +0.090 C 
ATOM     27  N   UNL     1     -12.305  14.219  64.375  0.00  0.00    -0.269 NA
ATOM     28  C   UNL     1     -11.043  14.899  64.654  0.00  0.00    +0.090 C 
ATOM     29  C   UNL     1     -12.081  12.977  63.659  0.00  0.00    +0.090 C 
ATOM     30  C   UNL     1     -11.093  12.087  64.386  0.00  0.00    +0.090 C 
ENDBRANCH  23  24
ENDBRANCH  22  23
ENDBRANCH  12  22
TORSDOF 5
ENDMDL
MODEL 2
REMARK VINA RESULT:      -7.7      1.295      1.670
REMARK  Name = 
REMARK  5 active torsions:
REMARK  status: ('A' for Active; 'I' for Inactive)
REMARK    1  A    between atoms: N_2  and  S_4
REMARK    2  A    between atoms: S_4  and  C_7
REMARK    3  A    between atoms: C_14  and  C_15
REMARK    4  A    between atoms: C_15  and  C_16
REMARK    5  A    between atoms: C_16  and  N_17
REMARK                            x       y       z     vdW  Elec       q    Type
REMARK                         _______ _______ _______ _____ _____    ______ ____
ROOT
ATOM      1  C   UNL     1     -12.563  13.256  70.863  0.00  0.00    +0.122 A 
ATOM      2  C   UNL     1     -11.907  12.410  69.975  0.00  0.00    +0.020 A 
ATOM      3  C   UNL     1     -11.794  11.078  70.354  0.00  0.00    +0.007 A 
ATOM      4  C   UNL     1     -10.685  10.241  69.880  0.00  0.00    -0.003 C 
ATOM      5  C   UNL     1     -10.169   9.107  70.655  0.00  0.00    +0.006 A 
ATOM      6  C   UNL     1     -10.965   8.400  71.549  0.00  0.00    +0.029 A 
ATOM      7  S   UNL     1     -12.717   8.793  71.508  0.00  0.00    -0.087 S 
ATOM      8  C   UNL     1     -10.458   8.045  72.793  0.00  0.00    +0.006 A 
ATOM      9  C   UNL     1      -9.079   7.964  72.919  0.00  0.00    +0.001 A 
ATOM     10  C   UNL     1      -8.256   8.160  71.817  0.00  0.00    +0.000 A 
ATOM     11  C   UNL     1      -8.809   8.825  70.729  0.00  0.00    +0.000 A 
ATOM     12  C   UNL     1      -9.973  10.628  68.823  0.00  0.00    -0.025 C 
ATOM     13  C   UNL     1     -12.810  10.549  71.140  0.00  0.00    +0.030 A 
ATOM     14  C   UNL     1     -13.364  11.344  72.127  0.00  0.00    +0.008 A 
ATOM     15  C   UNL     1     -13.332  12.712  71.884  0.00  0.00    +0.020 A 
ENDROOT
BRANCH   1  16
ATOM     16  S   UNL     1     -12.390  14.982  70.847  0.00  0.00    +0.063 S 
ATOM     17  O   UNL     1     -12.233  15.499  69.457  0.00  0.00    -0.153 OA
ATOM     18  O   UNL     1     -11.174  15.376  71.656  0.00  0.00    -0.153 OA
BRANCH  16  20
ATOM     19  C   UNL     1     -13.472  15.815  73.031  0.00  0.00    +0.115 C 
ATOM     20  N   UNL     1     -13.749  15.734  71.618  0.00  0.00    -0.153 NA
ATOM     21  C   UNL     1     -14.952  14.952  71.442  0.00  0.00    +0.115 C 
ENDBRANCH  16  20
ENDBRANCH   1  16
BRANCH  12  22
ATOM     22  C   UNL     1     -10.500  11.774  68.019  0.00  0.00    +0.043 C 
BRANCH  22  23
ATOM     23  C   UNL     1     -10.354  11.432  66.545  0.00  0.00    +0.077 C 
BRANCH  23  24
ATOM     24  N   UNL     1     -11.376  12.144  65.792  0.00  0.00    -0.270 NA
ATOM     25  C   UNL     1     -11.778  13.352  66.474  0.00  0.00    +0.090 C 
ATOM     26  C   UNL     1     -12.940  13.957  65.698  0.00  0.00    +0.090 C 
ATOM     27  N   UNL     1     -12.420  14.352  64.393  0.00  0.00    -0.269 NA
ATOM     28  C   UNL     1     -11.280  15.224  64.659  0.00  0.00    +0.090 C 
ATOM     29  C   UNL     1     -12.003  13.142  63.709  0.00  0.00    +0.090 C 
ATOM     30  C   UNL     1     -10.895  12.432  64.460  0.00  0.00    +0.090 C 
ENDBRANCH  23  24
ENDBRANCH  22  23
ENDBRANCH  12  22
TORSDOF 5
ENDMDL
MODEL 3
REMARK VINA RESULT:      -7.5      2.787      4.972
REMARK  Name = 
REMARK  5 active torsions:
REMARK  status: ('A' for Active; 'I' for Inactive)
REMARK    1  A    between atoms: N_2  and  S_4
REMARK    2  A    between atoms: S_4  and  C_7
REMARK    3  A    between atoms: C_14  and  C_15
REMARK    4  A    between atoms: C_15  and  C_16
REMARK    5  A    between atoms: C_16  and  N_17
REMARK                            x       y       z     vdW  Elec       q    Type
REMARK                         _______ _______ _______ _____ _____    ______ ____
ROOT
ATOM      1  C   UNL     1     -11.061  11.711  66.147  0.00  0.00    +0.122 A 
ATOM      2  C   UNL     1     -11.205  12.309  67.393  0.00  0.00    +0.020 A 
ATOM      3  C   UNL     1     -10.934  11.514  68.501  0.00  0.00    +0.007 A 
ATOM      4  C   UNL     1     -11.579  11.762  69.796  0.00  0.00    -0.003 C 
ATOM      5  C   UNL     1     -11.822  10.692  70.770  0.00  0.00    +0.006 A 
ATOM      6  C   UNL     1     -11.025   9.556  70.833  0.00  0.00    +0.029 A 
ATOM      7  S   UNL     1      -9.537   9.592  69.828  0.00  0.00    -0.087 S 
ATOM      8  C   UNL     1     -11.616   8.307  70.986  0.00  0.00    +0.006 A 
ATOM      9  C   UNL     1     -12.883   8.266  71.550  0.00  0.00    +0.001 A 
ATOM     10  C   UNL     1     -13.491   9.429  72.005  0.00  0.00    +0.000 A 
ATOM     11  C   UNL     1     -12.994  10.632  71.517  0.00  0.00    +0.000 A 
ATOM     12  C   UNL     1     -12.158  12.939  70.028  0.00  0.00    -0.025 C 
ATOM     13  C   UNL     1      -9.974  10.521  68.353  0.00  0.00    +0.030 A 
ATOM     14  C   UNL     1      -9.925   9.820  67.162  0.00  0.00    +0.008 A 
ATOM     15  C   UNL     1     -10.369  10.511  66.041  0.00  0.00    +0.020 A 
ENDROOT
BRANCH   1  16
ATOM     16  S   UNL     1     -11.801  12.318  64.700  0.00  0.00    +0.063 S 
ATOM     17  O   UNL     1     -13.285  12.376  64.834  0.00  0.00    -0.153 OA
ATOM     18  O   UNL     1     -11.449  11.419  63.535  0.00  0.00    -0.153 OA
BRANCH  16  20
ATOM     19  C   UNL     1     -10.031  14.132  65.158  0.00  0.00    +0.115 C 
ATOM     20  N   UNL     1     -11.170  13.885  64.309  0.00  0.00    -0.153 NA
ATOM     21  C   UNL     1     -12.147  14.921  64.559  0.00  0.00    +0.115 C 
ENDBRANCH  16  20
ENDBRANCH   1  16
BRANCH  12  22
ATOM     22  C   UNL     1     -11.904  14.039  69.047  0.00  0.00    +0.043 C 
BRANCH  22  23
ATOM     23  C   UNL     1     -10.922  15.017  69.670  0.00  0.00    +0.077 C 
BRANCH  23  24
ATOM     24  N   UNL     1     -10.170  15.671  68.608  0.00  0.00    -0.270 NA
ATOM     25  C   UNL     1     -10.846  16.862  68.148  0.00  0.00    +0.090 C 
ATOM     26  C   UNL     1     -10.073  17.401  66.953  0.00  0.00    +0.090 C 
ATOM     27  N   UNL     1      -8.762  17.812  67.445  0.00  0.00    -0.269 NA
ATOM     28  C   UNL     1      -9.016  18.744  68.541  0.00  0.00    +0.090 C 
ATOM     29  C   UNL     1      -8.083  16.621  67.920  0.00  0.00    +0.090 C 
ATOM     30  C   UNL     1      -8.833  15.974  69.067  0.00  0.00    +0.090 C 
ENDBRANCH  23  24
ENDBRANCH  22  23
ENDBRANCH  12  22
TORSDOF 5
ENDMDL
MODEL 4
REMARK VINA RESULT:      -7.4      2.748      6.630
REMARK  Name = 
REMARK  5 active torsions:
REMARK  status: ('A' for Active; 'I' for Inactive)
REMARK    1  A    between atoms: N_2  and  S_4
REMARK    2  A    between atoms: S_4  and  C_7
REMARK    3  A    between atoms: C_14  and  C_15
REMARK    4  A    between atoms: C_15  and  C_16
REMARK    5  A    between atoms: C_16  and  N_17
REMARK                            x       y       z     vdW  Elec       q    Type
REMARK                         _______ _______ _______ _____ _____    ______ ____
ROOT
ATOM      1  C   UNL     1     -12.402  14.800  70.836  0.00  0.00    +0.122 A 
ATOM      2  C   UNL     1     -11.971  13.611  70.258  0.00  0.00    +0.020 A 
ATOM      3  C   UNL     1     -11.326  13.714  69.030  0.00  0.00    +0.007 A 
ATOM      4  C   UNL     1     -11.356  12.615  68.057  0.00  0.00    -0.003 C 
ATOM      5  C   UNL     1     -11.255  12.844  66.611  0.00  0.00    +0.006 A 
ATOM      6  C   UNL     1     -10.592  13.945  66.082  0.00  0.00    +0.029 A 
ATOM      7  S   UNL     1      -9.656  14.928  67.258  0.00  0.00    -0.087 S 
ATOM      8  C   UNL     1     -11.159  14.650  65.027  0.00  0.00    +0.006 A 
ATOM      9  C   UNL     1     -12.077  13.979  64.234  0.00  0.00    +0.001 A 
ATOM     10  C   UNL     1     -12.352  12.635  64.453  0.00  0.00    +0.000 A 
ATOM     11  C   UNL     1     -12.012  12.118  65.698  0.00  0.00    +0.000 A 
ATOM     12  C   UNL     1     -11.696  11.391  68.456  0.00  0.00    -0.025 C 
ATOM     13  C   UNL     1     -10.592  14.869  68.791  0.00  0.00    +0.030 A 
ATOM     14  C   UNL     1     -11.094  16.077  69.238  0.00  0.00    +0.008 A 
ATOM     15  C   UNL     1     -11.909  16.009  70.362  0.00  0.00    +0.020 A 
ENDROOT
BRANCH   1  16
ATOM     16  S   UNL     1     -13.626  14.880  72.063  0.00  0.00    +0.063 S 
ATOM     17  O   UNL     1     -14.025  13.518  72.520  0.00  0.00    -0.153 OA
ATOM     18  O   UNL     1     -14.845  15.590  71.516  0.00  0.00    -0.153 OA
BRANCH  16  20
ATOM     19  C   UNL     1     -12.078  16.749  72.924  0.00  0.00    +0.115 C 
ATOM     20  N   UNL     1     -13.076  15.828  73.407  0.00  0.00    -0.153 NA
ATOM     21  C   UNL     1     -12.465  14.998  74.420  0.00  0.00    +0.115 C 
ENDBRANCH  16  20
ENDBRANCH   1  16
BRANCH  12  22
ATOM     22  C   UNL     1     -11.788  11.147  69.929  0.00  0.00    +0.043 C 
BRANCH  22  23
ATOM     23  C   UNL     1     -10.793  10.059  70.297  0.00  0.00    +0.077 C 
BRANCH  23  24
ATOM     24  N   UNL     1     -11.500   8.791  70.407  0.00  0.00    -0.270 NA
ATOM     25  C   UNL     1     -10.581   7.677  70.353  0.00  0.00    +0.090 C 
ATOM     26  C   UNL     1     -11.405   6.397  70.332  0.00  0.00    +0.090 C 
ATOM     27  N   UNL     1     -12.103   6.320  71.611  0.00  0.00    -0.269 NA
ATOM     28  C   UNL     1     -11.072   6.423  72.641  0.00  0.00    +0.090 C 
ATOM     29  C   UNL     1     -13.018   7.444  71.675  0.00  0.00    +0.090 C 
ATOM     30  C   UNL     1     -12.279   8.766  71.624  0.00  0.00    +0.090 C 
ENDBRANCH  23  24
ENDBRANCH  22  23
ENDBRANCH  12  22
TORSDOF 5
ENDMDL
MODEL 5
REMARK VINA RESULT:      -7.3      2.730      4.961
REMARK  Name = 
REMARK  5 active torsions:
REMARK  status: ('A' for Active; 'I' for Inactive)
REMARK    1  A    between atoms: N_2  and  S_4
REMARK    2  A    between atoms: S_4  and  C_7
REMARK    3  A    between atoms: C_14  and  C_15
REMARK    4  A    between atoms: C_15  and  C_16
REMARK    5  A    between atoms: C_16  and  N_17
REMARK                            x       y       z     vdW  Elec       q    Type
REMARK                         _______ _______ _______ _____ _____    ______ ____
ROOT
ATOM      1  C   UNL     1     -10.347  10.954  66.757  0.00  0.00    +0.122 A 
ATOM      2  C   UNL     1     -10.714  11.525  67.970  0.00  0.00    +0.020 A 
ATOM      3  C   UNL     1     -10.711  10.686  69.079  0.00  0.00    +0.007 A 
ATOM      4  C   UNL     1     -11.594  10.932  70.225  0.00  0.00    -0.003 C 
ATOM      5  C   UNL     1     -12.081   9.849  71.088  0.00  0.00    +0.006 A 
ATOM      6  C   UNL     1     -11.367   8.670  71.268  0.00  0.00    +0.029 A 
ATOM      7  S   UNL     1      -9.706   8.655  70.586  0.00  0.00    -0.087 S 
ATOM      8  C   UNL     1     -12.035   7.451  71.251  0.00  0.00    +0.006 A 
ATOM      9  C   UNL     1     -13.390   7.463  71.545  0.00  0.00    +0.001 A 
ATOM     10  C   UNL     1     -14.023   8.643  71.912  0.00  0.00    +0.000 A 
ATOM     11  C   UNL     1     -13.381   9.831  71.581  0.00  0.00    +0.000 A 
ATOM     12  C   UNL     1     -12.153  12.130  70.381  0.00  0.00    -0.025 C 
ATOM     13  C   UNL     1      -9.789   9.647  69.090  0.00  0.00    +0.030 A 
ATOM     14  C   UNL     1      -9.531   8.978  67.908  0.00  0.00    +0.008 A 
ATOM     15  C   UNL     1      -9.705   9.723  66.747  0.00  0.00    +0.020 A 
ENDROOT
BRANCH   1  16
ATOM     16  S   UNL     1     -10.747  11.641  65.214  0.00  0.00    +0.063 S 
ATOM     17  O   UNL     1     -10.575  10.646  64.117  0.00  0.00    -0.153 OA
ATOM     18  O   UNL     1      -9.852  12.830  64.942  0.00  0.00    -0.153 OA
BRANCH  16  20
ATOM     19  C   UNL     1     -12.899  12.135  63.889  0.00  0.00    +0.115 C 
ATOM     20  N   UNL     1     -12.370  12.250  65.225  0.00  0.00    -0.153 NA
ATOM     21  C   UNL     1     -12.405  13.646  65.602  0.00  0.00    +0.115 C 
ENDBRANCH  16  20
ENDBRANCH   1  16
BRANCH  12  22
ATOM     22  C   UNL     1     -11.652  13.243  69.514  0.00  0.00    +0.043 C 
BRANCH  22  23
ATOM     23  C   UNL     1     -11.892  14.557  70.237  0.00  0.00    +0.077 C 
BRANCH  23  24
ATOM     24  N   UNL     1     -10.911  15.532  69.781  0.00  0.00    -0.270 NA
ATOM     25  C   UNL     1      -9.695  14.882  69.347  0.00  0.00    +0.090 C 
ATOM     26  C   UNL     1      -8.680  15.970  69.022  0.00  0.00    +0.090 C 
ATOM     27  N   UNL     1      -9.203  16.714  67.882  0.00  0.00    -0.269 NA
ATOM     28  C   UNL     1      -9.465  15.725  66.840  0.00  0.00    +0.090 C 
ATOM     29  C   UNL     1     -10.431  17.358  68.310  0.00  0.00    +0.090 C 
ATOM     30  C   UNL     1     -11.476  16.342  68.726  0.00  0.00    +0.090 C 
ENDBRANCH  23  24
ENDBRANCH  22  23
ENDBRANCH  12  22
TORSDOF 5
ENDMDL
MODEL 6
REMARK VINA RESULT:      -7.3      3.747      8.120
REMARK  Name = 
REMARK  5 active torsions:
REMARK  status: ('A' for Active; 'I' for Inactive)
REMARK    1  A    between atoms: N_2  and  S_4
REMARK    2  A    between atoms: S_4  and  C_7
REMARK    3  A    between atoms: C_14  and  C_15
REMARK    4  A    between atoms: C_15  and  C_16
REMARK    5  A    between atoms: C_16  and  N_17
REMARK                            x       y       z     vdW  Elec       q    Type
REMARK                         _______ _______ _______ _____ _____    ______ ____
ROOT
ATOM      1  C   UNL     1     -11.314  14.599  65.973  0.00  0.00    +0.122 A 
ATOM      2  C   UNL     1     -10.738  15.050  67.156  0.00  0.00    +0.020 A 
ATOM      3  C   UNL     1      -9.986  16.217  67.078  0.00  0.00    +0.007 A 
ATOM      4  C   UNL     1      -8.884  16.479  68.010  0.00  0.00    -0.003 C 
ATOM      5  C   UNL     1      -7.728  17.307  67.647  0.00  0.00    +0.006 A 
ATOM      6  C   UNL     1      -7.813  18.318  66.698  0.00  0.00    +0.029 A 
ATOM      7  S   UNL     1      -9.469  18.715  66.130  0.00  0.00    -0.087 S 
ATOM      8  C   UNL     1      -6.803  18.463  65.753  0.00  0.00    +0.006 A 
ATOM      9  C   UNL     1      -5.555  17.947  66.071  0.00  0.00    +0.001 A 
ATOM     10  C   UNL     1      -5.322  17.379  67.316  0.00  0.00    +0.000 A 
ATOM     11  C   UNL     1      -6.436  16.979  68.045  0.00  0.00    +0.000 A 
ATOM     12  C   UNL     1      -8.804  15.788  69.146  0.00  0.00    -0.025 C 
ATOM     13  C   UNL     1     -10.365  17.157  66.128  0.00  0.00    +0.030 A 
ATOM     14  C   UNL     1     -10.799  16.712  64.892  0.00  0.00    +0.008 A 
ATOM     15  C   UNL     1     -11.393  15.456  64.882  0.00  0.00    +0.020 A 
ENDROOT
BRANCH   1  16
ATOM     16  S   UNL     1     -11.847  12.967  65.728  0.00  0.00    +0.063 S 
ATOM     17  O   UNL     1     -13.130  12.925  64.968  0.00  0.00    -0.153 OA
ATOM     18  O   UNL     1     -12.050  12.294  67.067  0.00  0.00    -0.153 OA
BRANCH  16  20
ATOM     19  C   UNL     1     -11.106  11.770  63.572  0.00  0.00    +0.115 C 
ATOM     20  N   UNL     1     -10.629  12.048  64.904  0.00  0.00    -0.153 NA
ATOM     21  C   UNL     1     -10.387  10.786  65.565  0.00  0.00    +0.115 C 
ENDBRANCH  16  20
ENDBRANCH   1  16
BRANCH  12  22
ATOM     22  C   UNL     1      -9.984  14.952  69.530  0.00  0.00    +0.043 C 
BRANCH  22  23
ATOM     23  C   UNL     1     -10.916  15.801  70.377  0.00  0.00    +0.077 C 
BRANCH  23  24
ATOM     24  N   UNL     1     -11.607  14.940  71.327  0.00  0.00    -0.270 NA
ATOM     25  C   UNL     1     -12.453  15.711  72.208  0.00  0.00    +0.090 C 
ATOM     26  C   UNL     1     -13.024  14.760  73.251  0.00  0.00    +0.090 C 
ATOM     27  N   UNL     1     -13.883  13.817  72.542  0.00  0.00    -0.269 NA
ATOM     28  C   UNL     1     -14.841  14.628  71.795  0.00  0.00    +0.090 C 
ATOM     29  C   UNL     1     -13.039  13.049  71.646  0.00  0.00    +0.090 C 
ATOM     30  C   UNL     1     -12.368  13.937  70.617  0.00  0.00    +0.090 C 
ENDBRANCH  23  24
ENDBRANCH  22  23
ENDBRANCH  12  22
TORSDOF 5
ENDMDL
MODEL 7
REMARK VINA RESULT:      -7.2      3.860      7.903
REMARK  Name = 
REMARK  5 active torsions:
REMARK  status: ('A' for Active; 'I' for Inactive)
REMARK    1  A    between atoms: N_2  and  S_4
REMARK    2  A    between atoms: S_4  and  C_7
REMARK    3  A    between atoms: C_14  and  C_15
REMARK    4  A    between atoms: C_15  and  C_16
REMARK    5  A    between atoms: C_16  and  N_17
REMARK                            x       y       z     vdW  Elec       q    Type
REMARK                         _______ _______ _______ _____ _____    ______ ____
ROOT
ATOM      1  C   UNL     1      -9.961   9.732  66.055  0.00  0.00    +0.122 A 
ATOM      2  C   UNL     1     -10.763  10.462  66.925  0.00  0.00    +0.020 A 
ATOM      3  C   UNL     1     -11.218  11.694  66.467  0.00  0.00    +0.007 A 
ATOM      4  C   UNL     1     -11.529  12.787  67.396  0.00  0.00    -0.003 C 
ATOM      5  C   UNL     1     -11.418  14.199  67.013  0.00  0.00    +0.006 A 
ATOM      6  C   UNL     1     -11.566  14.621  65.698  0.00  0.00    +0.029 A 
ATOM      7  S   UNL     1     -12.150  13.377  64.543  0.00  0.00    -0.087 S 
ATOM      8  C   UNL     1     -10.690  15.564  65.172  0.00  0.00    +0.006 A 
ATOM      9  C   UNL     1     -10.034  16.393  66.070  0.00  0.00    +0.001 A 
ATOM     10  C   UNL     1     -10.310  16.322  67.430  0.00  0.00    +0.000 A 
ATOM     11  C   UNL     1     -10.922  15.160  67.887  0.00  0.00    +0.000 A 
ATOM     12  C   UNL     1     -11.714  12.521  68.688  0.00  0.00    -0.025 C 
ATOM     13  C   UNL     1     -11.436  11.826  65.101  0.00  0.00    +0.030 A 
ATOM     14  C   UNL     1     -10.550  11.221  64.229  0.00  0.00    +0.008 A 
ATOM     15  C   UNL     1      -9.917  10.081  64.711  0.00  0.00    +0.020 A 
ENDROOT
BRANCH   1  16
ATOM     16  S   UNL     1      -8.903   8.457  66.569  0.00  0.00    +0.063 S 
ATOM     17  O   UNL     1      -7.686   9.000  67.239  0.00  0.00    -0.153 OA
ATOM     18  O   UNL     1      -8.477   7.639  65.370  0.00  0.00    -0.153 OA
BRANCH  16  20
ATOM     19  C   UNL     1      -8.808   6.345  68.039  0.00  0.00    +0.115 C 
ATOM     20  N   UNL     1      -9.738   7.367  67.628  0.00  0.00    -0.153 NA
ATOM     21  C   UNL     1     -10.841   6.721  66.952  0.00  0.00    +0.115 C 
ENDBRANCH  16  20
ENDBRANCH   1  16
BRANCH  12  22
ATOM     22  C   UNL     1     -11.843  11.084  69.084  0.00  0.00    +0.043 C 
BRANCH  22  23
ATOM     23  C   UNL     1     -12.346  11.026  70.517  0.00  0.00    +0.077 C 
BRANCH  23  24
ATOM     24  N   UNL     1     -11.627   9.979  71.228  0.00  0.00    -0.270 NA
ATOM     25  C   UNL     1     -12.536   8.982  71.745  0.00  0.00    +0.090 C 
ATOM     26  C   UNL     1     -11.725   8.008  72.588  0.00  0.00    +0.090 C 
ATOM     27  N   UNL     1     -10.805   7.326  71.684  0.00  0.00    -0.269 NA
ATOM     28  C   UNL     1     -11.632   6.751  70.626  0.00  0.00    +0.090 C 
ATOM     29  C   UNL     1      -9.898   8.326  71.152  0.00  0.00    +0.090 C 
ATOM     30  C   UNL     1     -10.639   9.383  70.358  0.00  0.00    +0.090 C 
ENDBRANCH  23  24
ENDBRANCH  22  23
ENDBRANCH  12  22
TORSDOF 5
ENDMDL
MODEL 8
REMARK VINA RESULT:      -7.2      2.973      5.278
REMARK  Name = 
REMARK  5 active torsions:
REMARK  status: ('A' for Active; 'I' for Inactive)
REMARK    1  A    between atoms: N_2  and  S_4
REMARK    2  A    between atoms: S_4  and  C_7
REMARK    3  A    between atoms: C_14  and  C_15
REMARK    4  A    between atoms: C_15  and  C_16
REMARK    5  A    between atoms: C_16  and  N_17
REMARK                            x       y       z     vdW  Elec       q    Type
REMARK                         _______ _______ _______ _____ _____    ______ ____
ROOT
ATOM      1  C   UNL     1      -9.989  11.773  66.973  0.00  0.00    +0.122 A 
ATOM      2  C   UNL     1     -10.454  11.422  68.235  0.00  0.00    +0.020 A 
ATOM      3  C   UNL     1      -9.838  10.336  68.846  0.00  0.00    +0.007 A 
ATOM      4  C   UNL     1     -10.551   9.502  69.821  0.00  0.00    -0.003 C 
ATOM      5  C   UNL     1     -10.228   8.085  70.028  0.00  0.00    +0.006 A 
ATOM      6  C   UNL     1      -8.959   7.574  69.786  0.00  0.00    +0.029 A 
ATOM      7  S   UNL     1      -7.681   8.790  69.450  0.00  0.00    -0.087 S 
ATOM      8  C   UNL     1      -8.820   6.358  69.125  0.00  0.00    +0.006 A 
ATOM      9  C   UNL     1      -9.896   5.484  69.167  0.00  0.00    +0.001 A 
ATOM     10  C   UNL     1     -11.030   5.795  69.906  0.00  0.00    +0.000 A 
ATOM     11  C   UNL     1     -11.217   7.131  70.242  0.00  0.00    +0.000 A 
ATOM     12  C   UNL     1     -11.661   9.962  70.394  0.00  0.00    -0.025 C 
ATOM     13  C   UNL     1      -8.498  10.113  68.551  0.00  0.00    +0.030 A 
ATOM     14  C   UNL     1      -8.063  10.321  67.255  0.00  0.00    +0.008 A 
ATOM     15  C   UNL     1      -8.772  11.270  66.529  0.00  0.00    +0.020 A 
ENDROOT
BRANCH   1  16
ATOM     16  S   UNL     1     -10.900  12.729  65.847  0.00  0.00    +0.063 S 
ATOM     17  O   UNL     1     -12.341  12.346  65.854  0.00  0.00    -0.153 OA
ATOM     18  O   UNL     1     -10.347  12.531  64.453  0.00  0.00    -0.153 OA
BRANCH  16  20
ATOM     19  C   UNL     1     -11.636  14.744  67.270  0.00  0.00    +0.115 C 
ATOM     20  N   UNL     1     -10.723  14.416  66.203  0.00  0.00    -0.153 NA
ATOM     21  C   UNL     1     -11.061  15.232  65.059  0.00  0.00    +0.115 C 
ENDBRANCH  16  20
ENDBRANCH   1  16
BRANCH  12  22
ATOM     22  C   UNL     1     -11.989  11.409  70.199  0.00  0.00    +0.043 C 
BRANCH  22  23
ATOM     23  C   UNL     1     -12.732  11.900  71.430  0.00  0.00    +0.077 C 
BRANCH  23  24
ATOM     24  N   UNL     1     -13.175  13.268  71.199  0.00  0.00    -0.270 NA
ATOM     25  C   UNL     1     -14.048  13.718  72.258  0.00  0.00    +0.090 C 
ATOM     26  C   UNL     1     -14.574  15.093  71.871  0.00  0.00    +0.090 C 
ATOM     27  N   UNL     1     -13.428  15.996  71.845  0.00  0.00    -0.269 NA
ATOM     28  C   UNL     1     -12.791  15.878  73.154  0.00  0.00    +0.090 C 
ATOM     29  C   UNL     1     -12.541  15.540  70.791  0.00  0.00    +0.090 C 
ATOM     30  C   UNL     1     -12.030  14.139  71.061  0.00  0.00    +0.090 C 
ENDBRANCH  23  24
ENDBRANCH  22  23
ENDBRANCH  12  22
TORSDOF 5
ENDMDL
MODEL 9
REMARK VINA RESULT:      -7.1      3.727      7.354
REMARK  Name = 
REMARK  5 active torsions:
REMARK  status: ('A' for Active; 'I' for Inactive)
REMARK    1  A    between atoms: N_2  and  S_4
REMARK    2  A    between atoms: S_4  and  C_7
REMARK    3  A    between atoms: C_14  and  C_15
REMARK    4  A    between atoms: C_15  and  C_16
REMARK    5  A    between atoms: C_16  and  N_17
REMARK                            x       y       z     vdW  Elec       q    Type
REMARK                         _______ _______ _______ _____ _____    ______ ____
ROOT
ATOM      1  C   UNL     1      -9.792  10.825  69.108  0.00  0.00    +0.122 A 
ATOM      2  C   UNL     1     -11.044  10.846  69.712  0.00  0.00    +0.020 A 
ATOM      3  C   UNL     1     -11.668  12.084  69.809  0.00  0.00    +0.007 A 
ATOM      4  C   UNL     1     -12.628  12.374  70.881  0.00  0.00    -0.003 C 
ATOM      5  C   UNL     1     -12.842  13.731  71.397  0.00  0.00    +0.006 A 
ATOM      6  C   UNL     1     -12.627  14.861  70.618  0.00  0.00    +0.029 A 
ATOM      7  S   UNL     1     -12.318  14.556  68.875  0.00  0.00    -0.087 S 
ATOM      8  C   UNL     1     -11.970  15.959  71.161  0.00  0.00    +0.006 A 
ATOM      9  C   UNL     1     -11.989  16.093  72.542  0.00  0.00    +0.001 A 
ATOM     10  C   UNL     1     -12.704  15.199  73.329  0.00  0.00    +0.000 A 
ATOM     11  C   UNL     1     -13.035  13.978  72.752  0.00  0.00    +0.000 A 
ATOM     12  C   UNL     1     -13.177  11.371  71.562  0.00  0.00    -0.025 C 
ATOM     13  C   UNL     1     -11.402  13.012  68.810  0.00  0.00    +0.030 A 
ATOM     14  C   UNL     1     -10.115  13.095  68.310  0.00  0.00    +0.008 A 
ATOM     15  C   UNL     1      -9.374  11.921  68.364  0.00  0.00    +0.020 A 
ENDROOT
BRANCH   1  16
ATOM     16  S   UNL     1      -8.647   9.539  69.320  0.00  0.00    +0.063 S 
ATOM     17  O   UNL     1      -8.181   9.456  70.735  0.00  0.00    -0.153 OA
ATOM     18  O   UNL     1      -7.451   9.773  68.425  0.00  0.00    -0.153 OA
BRANCH  16  20
ATOM     19  C   UNL     1      -8.271   7.057  68.746  0.00  0.00    +0.115 C 
ATOM     20  N   UNL     1      -9.335   8.027  68.824  0.00  0.00    -0.153 NA
ATOM     21  C   UNL     1      -9.942   8.131  67.516  0.00  0.00    +0.115 C 
ENDBRANCH  16  20
ENDBRANCH   1  16
BRANCH  12  22
ATOM     22  C   UNL     1     -12.975   9.986  71.034  0.00  0.00    +0.043 C 
BRANCH  22  23
ATOM     23  C   UNL     1     -12.715   9.058  72.209  0.00  0.00    +0.077 C 
BRANCH  23  24
ATOM     24  N   UNL     1     -11.715   8.074  71.821  0.00  0.00    -0.270 NA
ATOM     25  C   UNL     1     -10.906   7.681  72.952  0.00  0.00    +0.090 C 
ATOM     26  C   UNL     1      -9.804   6.766  72.437  0.00  0.00    +0.090 C 
ATOM     27  N   UNL     1     -10.453   5.561  71.931  0.00  0.00    -0.269 NA
ATOM     28  C   UNL     1     -11.272   5.053  73.028  0.00  0.00    +0.090 C 
ATOM     29  C   UNL     1     -11.277   5.953  70.802  0.00  0.00    +0.090 C 
ATOM     30  C   UNL     1     -12.358   6.930  71.217  0.00  0.00    +0.090 C 
ENDBRANCH  23  24
ENDBRANCH  22  23
ENDBRANCH  12  22
TORSDOF 5
ENDMDL
