MODEL 1
REMARK VINA RESULT:      -7.7      0.000      0.000
REMARK  Name = 
REMARK  6 active torsions:
REMARK  status: ('A' for Active; 'I' for Inactive)
REMARK    1  A    between atoms: C_2  and  C_4
REMARK    2  A    between atoms: C_6  and  N_7
REMARK    3  A    between atoms: N_8  and  C_9
REMARK    4  A    between atoms: C_12  and  S_13
REMARK    5  A    between atoms: S_13  and  N_16
REMARK    6  A    between atoms: N_16  and  C_17
REMARK                            x       y       z     vdW  Elec       q    Type
REMARK                         _______ _______ _______ _____ _____    ______ ____
ROOT
ATOM      1  C   UNL     1     -11.649  12.468  67.543  0.00  0.00    +0.103 A 
ATOM      2  C   UNL     1     -11.711  13.628  68.307  0.00  0.00    +0.022 A 
ATOM      3  C   UNL     1     -11.619  14.858  67.664  0.00  0.00    +0.022 A 
ATOM      4  C   UNL     1     -11.520  14.956  66.282  0.00  0.00    +0.127 A 
ATOM      5  C   UNL     1     -11.810  13.819  65.538  0.00  0.00    +0.022 A 
ATOM      6  C   UNL     1     -12.012  12.621  66.213  0.00  0.00    +0.022 A 
ENDROOT
BRANCH   4   7
ATOM      7  S   UNL     1     -10.566  16.232  65.535  0.00  0.00    +0.094 S 
ATOM      8  O   UNL     1      -9.208  15.674  65.242  0.00  0.00    -0.148 OA
ATOM      9  O   UNL     1     -11.272  16.716  64.307  0.00  0.00    -0.148 OA
BRANCH   7  10
ATOM     10  N   UNL     1     -10.468  17.513  66.704  0.00  0.00    -0.077 NA
BRANCH  10  11
ATOM     11  C   UNL     1      -9.225  18.164  66.931  0.00  0.00    +0.172 A 
ATOM     12  N   UNL     1      -8.629  18.930  65.998  0.00  0.00    -0.226 NA
ATOM     13  C   UNL     1      -7.670  19.828  66.317  0.00  0.00    +0.100 A 
ATOM     14  C   UNL     1      -7.478  20.197  67.641  0.00  0.00    +0.021 A 
ATOM     15  C   UNL     1      -7.948  19.349  68.624  0.00  0.00    +0.005 A 
ATOM     16  C   UNL     1      -8.706  18.264  68.214  0.00  0.00    +0.038 A 
ENDBRANCH  10  11
ENDBRANCH   7  10
ENDBRANCH   4   7
BRANCH   1  18
ATOM     17  N   UNL     1     -12.516  10.917  69.123  0.00  0.00    -0.148 NA
ATOM     18  N   UNL     1     -11.685  11.249  68.241  0.00  0.00    -0.148 NA
BRANCH  17  24
ATOM     19  C   UNL     1     -10.578   8.709  71.205  0.00  0.00    +0.120 A 
ATOM     20  C   UNL     1     -11.537   8.257  72.101  0.00  0.00    +0.202 A 
ATOM     21  O   UNL     1     -11.155   7.467  73.191  0.00  0.00    -0.286 OA
ATOM     22  C   UNL     1     -12.766   8.903  72.177  0.00  0.00    +0.044 A 
ATOM     23  C   UNL     1     -13.071   9.957  71.328  0.00  0.00    +0.024 A 
ATOM     24  C   UNL     1     -12.135  10.367  70.390  0.00  0.00    +0.103 A 
ATOM     25  C   UNL     1     -10.831   9.941  70.614  0.00  0.00    +0.031 A 
BRANCH  19  27
ATOM     26  O   UNL     1      -8.922   7.177  70.580  0.00  0.00    -0.240 OA
ATOM     27  C   UNL     1      -9.208   8.194  71.280  0.00  0.00    +0.391 C 
ATOM     28  O   UNL     1      -8.188   9.135  71.429  0.00  0.00    -0.240 OA
ENDBRANCH  19  27
ENDBRANCH  17  24
ENDBRANCH   1  18
TORSDOF 6
ENDMDL
MODEL 2
REMARK VINA RESULT:      -7.6      2.360      4.240
REMARK  Name = 
REMARK  6 active torsions:
REMARK  status: ('A' for Active; 'I' for Inactive)
REMARK    1  A    between atoms: C_2  and  C_4
REMARK    2  A    between atoms: C_6  and  N_7
REMARK    3  A    between atoms: N_8  and  C_9
REMARK    4  A    between atoms: C_12  and  S_13
REMARK    5  A    between atoms: S_13  and  N_16
REMARK    6  A    between atoms: N_16  and  C_17
REMARK                            x       y       z     vdW  Elec       q    Type
REMARK                         _______ _______ _______ _____ _____    ______ ____
ROOT
ATOM      1  C   UNL     1     -11.528  13.824  68.824  0.00  0.00    +0.103 A 
ATOM      2  C   UNL     1     -10.175  13.665  68.548  0.00  0.00    +0.022 A 
ATOM      3  C   UNL     1      -9.482  14.718  67.963  0.00  0.00    +0.022 A 
ATOM      4  C   UNL     1     -10.092  15.937  67.697  0.00  0.00    +0.127 A 
ATOM      5  C   UNL     1     -11.323  16.180  68.293  0.00  0.00    +0.022 A 
ATOM      6  C   UNL     1     -11.946  15.139  68.973  0.00  0.00    +0.022 A 
ENDROOT
BRANCH   4   7
ATOM      7  S   UNL     1      -9.639  16.882  66.283  0.00  0.00    +0.094 S 
ATOM      8  O   UNL     1      -9.768  18.330  66.642  0.00  0.00    -0.148 OA
ATOM      9  O   UNL     1      -8.249  16.510  65.870  0.00  0.00    -0.148 OA
BRANCH   7  10
ATOM     10  N   UNL     1     -10.763  16.454  65.031  0.00  0.00    -0.077 NA
BRANCH  10  11
ATOM     11  C   UNL     1     -11.077  15.086  64.804  0.00  0.00    +0.172 A 
ATOM     12  N   UNL     1     -10.128  14.139  64.672  0.00  0.00    -0.226 NA
ATOM     13  C   UNL     1     -10.404  12.826  64.826  0.00  0.00    +0.100 A 
ATOM     14  C   UNL     1     -11.599  12.432  65.411  0.00  0.00    +0.021 A 
ATOM     15  C   UNL     1     -12.643  13.337  65.424  0.00  0.00    +0.005 A 
ATOM     16  C   UNL     1     -12.371  14.621  64.981  0.00  0.00    +0.038 A 
ENDBRANCH  10  11
ENDBRANCH   7  10
ENDBRANCH   4   7
BRANCH   1  18
ATOM     17  N   UNL     1     -11.891  12.083  70.401  0.00  0.00    -0.148 NA
ATOM     18  N   UNL     1     -12.200  12.712  69.359  0.00  0.00    -0.148 NA
BRANCH  17  24
ATOM     19  C   UNL     1     -12.809   8.841  71.674  0.00  0.00    +0.120 A 
ATOM     20  C   UNL     1     -11.569   8.226  71.790  0.00  0.00    +0.202 A 
ATOM     21  O   UNL     1     -11.494   6.870  72.127  0.00  0.00    -0.286 OA
ATOM     22  C   UNL     1     -10.458   8.799  71.183  0.00  0.00    +0.044 A 
ATOM     23  C   UNL     1     -10.556  10.010  70.511  0.00  0.00    +0.024 A 
ATOM     24  C   UNL     1     -11.782  10.654  70.450  0.00  0.00    +0.103 A 
ATOM     25  C   UNL     1     -12.892   9.870  70.743  0.00  0.00    +0.031 A 
BRANCH  19  27
ATOM     26  O   UNL     1     -14.848   8.768  72.821  0.00  0.00    -0.240 OA
ATOM     27  C   UNL     1     -14.018   8.134  72.103  0.00  0.00    +0.391 C 
ATOM     28  O   UNL     1     -14.569   7.223  71.200  0.00  0.00    -0.240 OA
ENDBRANCH  19  27
ENDBRANCH  17  24
ENDBRANCH   1  18
TORSDOF 6
ENDMDL
MODEL 3
REMARK VINA RESULT:      -7.5      3.327      9.400
REMARK  Name = 
REMARK  6 active torsions:
REMARK  status: ('A' for Active; 'I' for Inactive)
REMARK    1  A    between atoms: C_2  and  C_4
REMARK    2  A    between atoms: C_6  and  N_7
REMARK    3  A    between atoms: N_8  and  C_9
REMARK    4  A    between atoms: C_12  and  S_13
REMARK    5  A    between atoms: S_13  and  N_16
REMARK    6  A    between atoms: N_16  and  C_17
REMARK                            x       y       z     vdW  Elec       q    Type
REMARK                         _______ _______ _______ _____ _____    ______ ____
ROOT
ATOM      1  C   UNL     1     -10.996  10.335  68.228  0.00  0.00    +0.103 A 
ATOM      2  C   UNL     1      -9.964  10.678  69.093  0.00  0.00    +0.022 A 
ATOM      3  C   UNL     1      -9.234   9.662  69.700  0.00  0.00    +0.022 A 
ATOM      4  C   UNL     1      -9.476   8.322  69.425  0.00  0.00    +0.127 A 
ATOM      5  C   UNL     1     -10.258   8.029  68.315  0.00  0.00    +0.022 A 
ATOM      6  C   UNL     1     -10.888   9.077  67.654  0.00  0.00    +0.022 A 
ENDROOT
BRANCH   4   7
ATOM      7  S   UNL     1      -9.292   7.098  70.674  0.00  0.00    +0.094 S 
ATOM      8  O   UNL     1      -9.653   5.775  70.074  0.00  0.00    -0.148 OA
ATOM      9  O   UNL     1      -7.888   7.134  71.193  0.00  0.00    -0.148 OA
BRANCH   7  10
ATOM     10  N   UNL     1     -10.401   7.525  71.941  0.00  0.00    -0.077 NA
BRANCH  10  11
ATOM     11  C   UNL     1     -11.748   7.847  71.617  0.00  0.00    +0.172 A 
ATOM     12  N   UNL     1     -12.691   6.905  71.427  0.00  0.00    -0.226 NA
ATOM     13  C   UNL     1     -14.010   7.192  71.489  0.00  0.00    +0.100 A 
ATOM     14  C   UNL     1     -14.433   8.395  72.036  0.00  0.00    +0.021 A 
ATOM     15  C   UNL     1     -13.523   9.431  72.103  0.00  0.00    +0.005 A 
ATOM     16  C   UNL     1     -12.214   9.147  71.752  0.00  0.00    +0.038 A 
ENDBRANCH  10  11
ENDBRANCH   7  10
ENDBRANCH   4   7
BRANCH   1  18
ATOM     17  N   UNL     1     -11.299  12.356  67.013  0.00  0.00    -0.148 NA
ATOM     18  N   UNL     1     -11.745  11.394  67.686  0.00  0.00    -0.148 NA
BRANCH  17  24
ATOM     19  C   UNL     1     -10.755  15.904  66.719  0.00  0.00    +0.120 A 
ATOM     20  C   UNL     1     -10.985  16.330  68.020  0.00  0.00    +0.202 A 
ATOM     21  O   UNL     1     -11.014  17.699  68.310  0.00  0.00    -0.286 OA
ATOM     22  C   UNL     1     -11.590  15.470  68.929  0.00  0.00    +0.044 A 
ATOM     23  C   UNL     1     -11.914  14.168  68.572  0.00  0.00    +0.024 A 
ATOM     24  C   UNL     1     -11.626  13.724  67.290  0.00  0.00    +0.103 A 
ATOM     25  C   UNL     1     -11.375  14.716  66.350  0.00  0.00    +0.031 A 
BRANCH  19  27
ATOM     26  O   UNL     1      -9.101  17.113  65.586  0.00  0.00    -0.240 OA
ATOM     27  C   UNL     1     -10.339  16.869  65.697  0.00  0.00    +0.391 C 
ATOM     28  O   UNL     1     -11.070  16.880  64.507  0.00  0.00    -0.240 OA
ENDBRANCH  19  27
ENDBRANCH  17  24
ENDBRANCH   1  18
TORSDOF 6
ENDMDL
MODEL 4
REMARK VINA RESULT:      -7.4      3.545      9.590
REMARK  Name = 
REMARK  6 active torsions:
REMARK  status: ('A' for Active; 'I' for Inactive)
REMARK    1  A    between atoms: C_2  and  C_4
REMARK    2  A    between atoms: C_6  and  N_7
REMARK    3  A    between atoms: N_8  and  C_9
REMARK    4  A    between atoms: C_12  and  S_13
REMARK    5  A    between atoms: S_13  and  N_16
REMARK    6  A    between atoms: N_16  and  C_17
REMARK                            x       y       z     vdW  Elec       q    Type
REMARK                         _______ _______ _______ _____ _____    ______ ____
ROOT
ATOM      1  C   UNL     1     -10.505  10.326  68.236  0.00  0.00    +0.103 A 
ATOM      2  C   UNL     1      -9.443  10.295  69.133  0.00  0.00    +0.022 A 
ATOM      3  C   UNL     1      -9.008   9.066  69.614  0.00  0.00    +0.022 A 
ATOM      4  C   UNL     1      -9.570   7.871  69.182  0.00  0.00    +0.127 A 
ATOM      5  C   UNL     1     -10.370   7.913  68.047  0.00  0.00    +0.022 A 
ATOM      6  C   UNL     1     -10.699   9.155  67.516  0.00  0.00    +0.022 A 
ENDROOT
BRANCH   4   7
ATOM      7  S   UNL     1      -9.732   6.504  70.278  0.00  0.00    +0.094 S 
ATOM      8  O   UNL     1     -10.487   5.429  69.558  0.00  0.00    -0.148 OA
ATOM      9  O   UNL     1      -8.371   6.062  70.715  0.00  0.00    -0.148 OA
BRANCH   7  10
ATOM     10  N   UNL     1     -10.634   7.081  71.645  0.00  0.00    -0.077 NA
BRANCH  10  11
ATOM     11  C   UNL     1     -11.929   7.635  71.451  0.00  0.00    +0.172 A 
ATOM     12  N   UNL     1     -13.038   6.875  71.386  0.00  0.00    -0.226 NA
ATOM     13  C   UNL     1     -14.272   7.394  71.573  0.00  0.00    +0.100 A 
ATOM     14  C   UNL     1     -14.416   8.659  72.124  0.00  0.00    +0.021 A 
ATOM     15  C   UNL     1     -13.335   9.517  72.067  0.00  0.00    +0.005 A 
ATOM     16  C   UNL     1     -12.141   8.998  71.594  0.00  0.00    +0.038 A 
ENDBRANCH  10  11
ENDBRANCH   7  10
ENDBRANCH   4   7
BRANCH   1  18
ATOM     17  N   UNL     1     -11.704  11.842  66.852  0.00  0.00    -0.148 NA
ATOM     18  N   UNL     1     -10.949  11.594  67.825  0.00  0.00    -0.148 NA
BRANCH  17  24
ATOM     19  C   UNL     1     -10.926  15.208  65.836  0.00  0.00    +0.120 A 
ATOM     20  C   UNL     1     -11.722  15.350  64.707  0.00  0.00    +0.202 A 
ATOM     21  O   UNL     1     -11.605  16.496  63.913  0.00  0.00    -0.286 OA
ATOM     22  C   UNL     1     -12.305  14.227  64.132  0.00  0.00    +0.044 A 
ATOM     23  C   UNL     1     -12.153  12.971  64.704  0.00  0.00    +0.024 A 
ATOM     24  C   UNL     1     -11.410  12.841  65.867  0.00  0.00    +0.103 A 
ATOM     25  C   UNL     1     -10.570  13.907  66.170  0.00  0.00    +0.031 A 
BRANCH  19  27
ATOM     26  O   UNL     1     -10.225  16.665  67.529  0.00  0.00    -0.240 OA
ATOM     27  C   UNL     1     -10.121  16.338  66.310  0.00  0.00    +0.391 C 
ATOM     28  O   UNL     1      -8.853  16.488  65.746  0.00  0.00    -0.240 OA
ENDBRANCH  19  27
ENDBRANCH  17  24
ENDBRANCH   1  18
TORSDOF 6
ENDMDL
MODEL 5
REMARK VINA RESULT:      -7.4      3.389      9.721
REMARK  Name = 
REMARK  6 active torsions:
REMARK  status: ('A' for Active; 'I' for Inactive)
REMARK    1  A    between atoms: C_2  and  C_4
REMARK    2  A    between atoms: C_6  and  N_7
REMARK    3  A    between atoms: N_8  and  C_9
REMARK    4  A    between atoms: C_12  and  S_13
REMARK    5  A    between atoms: S_13  and  N_16
REMARK    6  A    between atoms: N_16  and  C_17
REMARK                            x       y       z     vdW  Elec       q    Type
REMARK                         _______ _______ _______ _____ _____    ______ ____
ROOT
ATOM      1  C   UNL     1     -11.542  11.030  68.974  0.00  0.00    +0.103 A 
ATOM      2  C   UNL     1     -12.290  10.886  70.137  0.00  0.00    +0.022 A 
ATOM      3  C   UNL     1     -11.846  10.001  71.113  0.00  0.00    +0.022 A 
ATOM      4  C   UNL     1     -10.654   9.300  70.978  0.00  0.00    +0.127 A 
ATOM      5  C   UNL     1      -9.773   9.721  69.990  0.00  0.00    +0.022 A 
ATOM      6  C   UNL     1     -10.201  10.693  69.093  0.00  0.00    +0.022 A 
ENDROOT
BRANCH   4   7
ATOM      7  S   UNL     1     -10.492   7.667  71.613  0.00  0.00    +0.094 S 
ATOM      8  O   UNL     1      -9.032   7.340  71.662  0.00  0.00    -0.148 OA
ATOM      9  O   UNL     1     -11.146   7.597  72.958  0.00  0.00    -0.148 OA
BRANCH   7  10
ATOM     10  N   UNL     1     -11.321   6.627  70.497  0.00  0.00    -0.077 NA
BRANCH  10  11
ATOM     11  C   UNL     1     -10.658   6.189  69.318  0.00  0.00    +0.172 A 
ATOM     12  N   UNL     1     -10.039   4.996  69.238  0.00  0.00    -0.226 NA
ATOM     13  C   UNL     1      -9.740   4.425  68.050  0.00  0.00    +0.100 A 
ATOM     14  C   UNL     1     -10.319   4.906  66.884  0.00  0.00    +0.021 A 
ATOM     15  C   UNL     1     -10.828   6.189  66.895  0.00  0.00    +0.005 A 
ATOM     16  C   UNL     1     -10.853   6.848  68.113  0.00  0.00    +0.038 A 
ENDBRANCH  10  11
ENDBRANCH   7  10
ENDBRANCH   4   7
BRANCH   1  18
ATOM     17  N   UNL     1     -11.980  11.736  66.747  0.00  0.00    -0.148 NA
ATOM     18  N   UNL     1     -12.060  11.889  67.991  0.00  0.00    -0.148 NA
BRANCH  17  24
ATOM     19  C   UNL     1     -10.890  15.092  66.025  0.00  0.00    +0.120 A 
ATOM     20  C   UNL     1     -11.594  15.370  64.861  0.00  0.00    +0.202 A 
ATOM     21  O   UNL     1     -11.339  16.553  64.159  0.00  0.00    -0.286 OA
ATOM     22  C   UNL     1     -12.217  14.336  64.171  0.00  0.00    +0.044 A 
ATOM     23  C   UNL     1     -12.197  13.037  64.661  0.00  0.00    +0.024 A 
ATOM     24  C   UNL     1     -11.547  12.773  65.856  0.00  0.00    +0.103 A 
ATOM     25  C   UNL     1     -10.654  13.747  66.286  0.00  0.00    +0.031 A 
BRANCH  19  27
ATOM     26  O   UNL     1     -10.209  16.383  67.855  0.00  0.00    -0.240 OA
ATOM     27  C   UNL     1     -10.038  16.121  66.627  0.00  0.00    +0.391 C 
ATOM     28  O   UNL     1      -8.723  16.200  66.166  0.00  0.00    -0.240 OA
ENDBRANCH  19  27
ENDBRANCH  17  24
ENDBRANCH   1  18
TORSDOF 6
ENDMDL
MODEL 6
REMARK VINA RESULT:      -7.4      3.501      9.122
REMARK  Name = 
REMARK  6 active torsions:
REMARK  status: ('A' for Active; 'I' for Inactive)
REMARK    1  A    between atoms: C_2  and  C_4
REMARK    2  A    between atoms: C_6  and  N_7
REMARK    3  A    between atoms: N_8  and  C_9
REMARK    4  A    between atoms: C_12  and  S_13
REMARK    5  A    between atoms: S_13  and  N_16
REMARK    6  A    between atoms: N_16  and  C_17
REMARK                            x       y       z     vdW  Elec       q    Type
REMARK                         _______ _______ _______ _____ _____    ______ ____
ROOT
ATOM      1  C   UNL     1      -9.021  10.434  67.203  0.00  0.00    +0.103 A 
ATOM      2  C   UNL     1      -8.001   9.847  67.942  0.00  0.00    +0.022 A 
ATOM      3  C   UNL     1      -8.197   8.572  68.459  0.00  0.00    +0.022 A 
ATOM      4  C   UNL     1      -9.361   7.853  68.214  0.00  0.00    +0.127 A 
ATOM      5  C   UNL     1     -10.196   8.314  67.204  0.00  0.00    +0.022 A 
ATOM      6  C   UNL     1      -9.912   9.544  66.620  0.00  0.00    +0.022 A 
ENDROOT
BRANCH   4   7
ATOM      7  S   UNL     1     -10.029   6.776  69.434  0.00  0.00    +0.094 S 
ATOM      8  O   UNL     1     -11.314   6.223  68.900  0.00  0.00    -0.148 OA
ATOM      9  O   UNL     1      -9.026   5.710  69.748  0.00  0.00    -0.148 OA
BRANCH   7  10
ATOM     10  N   UNL     1     -10.315   7.752  70.841  0.00  0.00    -0.077 NA
BRANCH  10  11
ATOM     11  C   UNL     1     -11.468   8.582  70.899  0.00  0.00    +0.172 A 
ATOM     12  N   UNL     1     -12.506   8.321  71.716  0.00  0.00    -0.226 NA
ATOM     13  C   UNL     1     -13.410   9.269  72.046  0.00  0.00    +0.100 A 
ATOM     14  C   UNL     1     -13.138  10.606  71.795  0.00  0.00    +0.021 A 
ATOM     15  C   UNL     1     -12.179  10.904  70.847  0.00  0.00    +0.005 A 
ATOM     16  C   UNL     1     -11.458   9.844  70.322  0.00  0.00    +0.038 A 
ENDBRANCH  10  11
ENDBRANCH   7  10
ENDBRANCH   4   7
BRANCH   1  18
ATOM     17  N   UNL     1      -8.898  12.797  67.433  0.00  0.00    -0.148 NA
ATOM     18  N   UNL     1      -8.801  11.747  66.752  0.00  0.00    -0.148 NA
BRANCH  17  24
ATOM     19  C   UNL     1     -11.212  14.482  65.248  0.00  0.00    +0.120 A 
ATOM     20  C   UNL     1     -10.580  15.704  65.061  0.00  0.00    +0.202 A 
ATOM     21  O   UNL     1     -11.235  16.729  64.369  0.00  0.00    -0.286 OA
ATOM     22  C   UNL     1      -9.520  16.063  65.886  0.00  0.00    +0.044 A 
ATOM     23  C   UNL     1      -9.044  15.193  66.857  0.00  0.00    +0.024 A 
ATOM     24  C   UNL     1      -9.636  13.947  66.999  0.00  0.00    +0.103 A 
ATOM     25  C   UNL     1     -10.890  13.804  66.418  0.00  0.00    +0.031 A 
BRANCH  19  27
ATOM     26  O   UNL     1     -12.408  13.499  63.492  0.00  0.00    -0.240 OA
ATOM     27  C   UNL     1     -12.468  14.195  64.549  0.00  0.00    +0.391 C 
ATOM     28  O   UNL     1     -13.599  13.998  65.342  0.00  0.00    -0.240 OA
ENDBRANCH  19  27
ENDBRANCH  17  24
ENDBRANCH   1  18
TORSDOF 6
ENDMDL
MODEL 7
REMARK VINA RESULT:      -7.4      2.309      3.742
REMARK  Name = 
REMARK  6 active torsions:
REMARK  status: ('A' for Active; 'I' for Inactive)
REMARK    1  A    between atoms: C_2  and  C_4
REMARK    2  A    between atoms: C_6  and  N_7
REMARK    3  A    between atoms: N_8  and  C_9
REMARK    4  A    between atoms: C_12  and  S_13
REMARK    5  A    between atoms: S_13  and  N_16
REMARK    6  A    between atoms: N_16  and  C_17
REMARK                            x       y       z     vdW  Elec       q    Type
REMARK                         _______ _______ _______ _____ _____    ______ ____
ROOT
ATOM      1  C   UNL     1     -11.413  13.233  68.684  0.00  0.00    +0.103 A 
ATOM      2  C   UNL     1     -10.042  13.184  68.456  0.00  0.00    +0.022 A 
ATOM      3  C   UNL     1      -9.404  14.319  67.969  0.00  0.00    +0.022 A 
ATOM      4  C   UNL     1     -10.089  15.509  67.756  0.00  0.00    +0.127 A 
ATOM      5  C   UNL     1     -11.355  15.627  68.313  0.00  0.00    +0.022 A 
ATOM      6  C   UNL     1     -11.928  14.503  68.898  0.00  0.00    +0.022 A 
ENDROOT
BRANCH   4   7
ATOM      7  S   UNL     1      -9.650  16.574  66.426  0.00  0.00    +0.094 S 
ATOM      8  O   UNL     1      -9.820  17.986  66.898  0.00  0.00    -0.148 OA
ATOM      9  O   UNL     1      -8.248  16.272  65.998  0.00  0.00    -0.148 OA
BRANCH   7  10
ATOM     10  N   UNL     1     -10.753  16.219  65.133  0.00  0.00    -0.077 NA
BRANCH  10  11
ATOM     11  C   UNL     1     -11.052  14.865  64.815  0.00  0.00    +0.172 A 
ATOM     12  N   UNL     1     -10.095  13.935  64.641  0.00  0.00    -0.226 NA
ATOM     13  C   UNL     1     -10.364  12.613  64.709  0.00  0.00    +0.100 A 
ATOM     14  C   UNL     1     -11.566  12.175  65.246  0.00  0.00    +0.021 A 
ATOM     15  C   UNL     1     -12.616  13.071  65.296  0.00  0.00    +0.005 A 
ATOM     16  C   UNL     1     -12.347  14.381  64.940  0.00  0.00    +0.038 A 
ENDBRANCH  10  11
ENDBRANCH   7  10
ENDBRANCH   4   7
BRANCH   1  18
ATOM     17  N   UNL     1     -12.489  11.818  70.263  0.00  0.00    -0.148 NA
ATOM     18  N   UNL     1     -12.024  12.044  69.118  0.00  0.00    -0.148 NA
BRANCH  17  24
ATOM     19  C   UNL     1     -11.270   8.443  70.569  0.00  0.00    +0.120 A 
ATOM     20  C   UNL     1     -12.203   7.887  71.435  0.00  0.00    +0.202 A 
ATOM     21  O   UNL     1     -12.007   6.594  71.932  0.00  0.00    -0.286 OA
ATOM     22  C   UNL     1     -13.076   8.716  72.129  0.00  0.00    +0.044 A 
ATOM     23  C   UNL     1     -13.070  10.089  71.926  0.00  0.00    +0.024 A 
ATOM     24  C   UNL     1     -12.181  10.636  71.014  0.00  0.00    +0.103 A 
ATOM     25  C   UNL     1     -11.116   9.822  70.646  0.00  0.00    +0.031 A 
BRANCH  19  27
ATOM     26  O   UNL     1     -10.469   6.895  69.006  0.00  0.00    -0.240 OA
ATOM     27  C   UNL     1     -10.199   7.610  70.017  0.00  0.00    +0.391 C 
ATOM     28  O   UNL     1      -8.906   8.135  70.061  0.00  0.00    -0.240 OA
ENDBRANCH  19  27
ENDBRANCH  17  24
ENDBRANCH   1  18
TORSDOF 6
ENDMDL
MODEL 8
REMARK VINA RESULT:      -7.4      3.804      5.392
REMARK  Name = 
REMARK  6 active torsions:
REMARK  status: ('A' for Active; 'I' for Inactive)
REMARK    1  A    between atoms: C_2  and  C_4
REMARK    2  A    between atoms: C_6  and  N_7
REMARK    3  A    between atoms: N_8  and  C_9
REMARK    4  A    between atoms: C_12  and  S_13
REMARK    5  A    between atoms: S_13  and  N_16
REMARK    6  A    between atoms: N_16  and  C_17
REMARK                            x       y       z     vdW  Elec       q    Type
REMARK                         _______ _______ _______ _____ _____    ______ ____
ROOT
ATOM      1  C   UNL     1      -8.182  15.217  68.142  0.00  0.00    +0.103 A 
ATOM      2  C   UNL     1      -7.711  15.659  66.911  0.00  0.00    +0.022 A 
ATOM      3  C   UNL     1      -6.767  16.679  66.884  0.00  0.00    +0.022 A 
ATOM      4  C   UNL     1      -6.248  17.228  68.049  0.00  0.00    +0.127 A 
ATOM      5  C   UNL     1      -6.471  16.539  69.235  0.00  0.00    +0.022 A 
ATOM      6  C   UNL     1      -7.333  15.449  69.214  0.00  0.00    +0.022 A 
ENDROOT
BRANCH   4   7
ATOM      7  S   UNL     1      -5.825  18.934  68.132  0.00  0.00    +0.094 S 
ATOM      8  O   UNL     1      -4.654  19.070  69.055  0.00  0.00    -0.148 OA
ATOM      9  O   UNL     1      -5.536  19.434  66.751  0.00  0.00    -0.148 OA
BRANCH   7  10
ATOM     10  N   UNL     1      -7.217  19.749  68.776  0.00  0.00    -0.077 NA
BRANCH  10  11
ATOM     11  C   UNL     1      -8.483  19.582  68.151  0.00  0.00    +0.172 A 
ATOM     12  N   UNL     1      -8.707  19.925  66.868  0.00  0.00    -0.226 NA
ATOM     13  C   UNL     1      -9.760  19.442  66.173  0.00  0.00    +0.100 A 
ATOM     14  C   UNL     1     -10.474  18.357  66.660  0.00  0.00    +0.021 A 
ATOM     15  C   UNL     1     -10.381  18.074  68.009  0.00  0.00    +0.005 A 
ATOM     16  C   UNL     1      -9.467  18.807  68.747  0.00  0.00    +0.038 A 
ENDBRANCH  10  11
ENDBRANCH   7  10
ENDBRANCH   4   7
BRANCH   1  18
ATOM     17  N   UNL     1     -10.397  14.398  67.863  0.00  0.00    -0.148 NA
ATOM     18  N   UNL     1      -9.179  14.227  68.119  0.00  0.00    -0.148 NA
BRANCH  17  24
ATOM     19  C   UNL     1     -12.399  14.363  70.856  0.00  0.00    +0.120 A 
ATOM     20  C   UNL     1     -12.506  13.001  71.104  0.00  0.00    +0.202 A 
ATOM     21  O   UNL     1     -13.345  12.544  72.126  0.00  0.00    -0.286 OA
ATOM     22  C   UNL     1     -12.142  12.092  70.117  0.00  0.00    +0.044 A 
ATOM     23  C   UNL     1     -11.616  12.524  68.908  0.00  0.00    +0.024 A 
ATOM     24  C   UNL     1     -11.451  13.883  68.686  0.00  0.00    +0.103 A 
ATOM     25  C   UNL     1     -12.161  14.723  69.535  0.00  0.00    +0.031 A 
BRANCH  19  27
ATOM     26  O   UNL     1     -12.246  16.233  72.257  0.00  0.00    -0.240 OA
ATOM     27  C   UNL     1     -12.995  15.325  71.788  0.00  0.00    +0.391 C 
ATOM     28  O   UNL     1     -14.320  15.693  71.551  0.00  0.00    -0.240 OA
ENDBRANCH  19  27
ENDBRANCH  17  24
ENDBRANCH   1  18
TORSDOF 6
ENDMDL
MODEL 9
REMARK VINA RESULT:      -7.3      1.697      2.176
REMARK  Name = 
REMARK  6 active torsions:
REMARK  status: ('A' for Active; 'I' for Inactive)
REMARK    1  A    between atoms: C_2  and  C_4
REMARK    2  A    between atoms: C_6  and  N_7
REMARK    3  A    between atoms: N_8  and  C_9
REMARK    4  A    between atoms: C_12  and  S_13
REMARK    5  A    between atoms: S_13  and  N_16
REMARK    6  A    between atoms: N_16  and  C_17
REMARK                            x       y       z     vdW  Elec       q    Type
REMARK                         _______ _______ _______ _____ _____    ______ ____
ROOT
ATOM      1  C   UNL     1     -11.454  12.654  67.599  0.00  0.00    +0.103 A 
ATOM      2  C   UNL     1     -11.695  13.776  68.383  0.00  0.00    +0.022 A 
ATOM      3  C   UNL     1     -11.650  15.031  67.787  0.00  0.00    +0.022 A 
ATOM      4  C   UNL     1     -11.423  15.188  66.425  0.00  0.00    +0.127 A 
ATOM      5  C   UNL     1     -11.535  14.058  65.625  0.00  0.00    +0.022 A 
ATOM      6  C   UNL     1     -11.695  12.823  66.243  0.00  0.00    +0.022 A 
ENDROOT
BRANCH   4   7
ATOM      7  S   UNL     1     -10.519  16.567  65.815  0.00  0.00    +0.094 S 
ATOM      8  O   UNL     1     -11.094  16.937  64.482  0.00  0.00    -0.148 OA
ATOM      9  O   UNL     1     -10.597  17.684  66.809  0.00  0.00    -0.148 OA
BRANCH   7  10
ATOM     10  N   UNL     1      -8.873  16.037  65.651  0.00  0.00    -0.077 NA
BRANCH  10  11
ATOM     11  C   UNL     1      -8.127  15.690  66.811  0.00  0.00    +0.172 A 
ATOM     12  N   UNL     1      -7.704  16.608  67.700  0.00  0.00    -0.226 NA
ATOM     13  C   UNL     1      -7.333  16.270  68.954  0.00  0.00    +0.100 A 
ATOM     14  C   UNL     1      -7.652  15.017  69.458  0.00  0.00    +0.021 A 
ATOM     15  C   UNL     1      -7.943  14.012  68.556  0.00  0.00    +0.005 A 
ATOM     16  C   UNL     1      -8.036  14.368  67.221  0.00  0.00    +0.038 A 
ENDBRANCH  10  11
ENDBRANCH   7  10
ENDBRANCH   4   7
BRANCH   1  18
ATOM     17  N   UNL     1     -12.320  10.988  69.057  0.00  0.00    -0.148 NA
ATOM     18  N   UNL     1     -11.450  11.412  68.256  0.00  0.00    -0.148 NA
BRANCH  17  24
ATOM     19  C   UNL     1     -10.507   8.732  71.201  0.00  0.00    +0.120 A 
ATOM     20  C   UNL     1     -11.509   8.294  72.056  0.00  0.00    +0.202 A 
ATOM     21  O   UNL     1     -11.185   7.492  73.155  0.00  0.00    -0.286 OA
ATOM     22  C   UNL     1     -12.727   8.963  72.087  0.00  0.00    +0.044 A 
ATOM     23  C   UNL     1     -12.979  10.028  71.233  0.00  0.00    +0.024 A 
ATOM     24  C   UNL     1     -12.000  10.424  70.335  0.00  0.00    +0.103 A 
ATOM     25  C   UNL     1     -10.714   9.972  70.607  0.00  0.00    +0.031 A 
BRANCH  19  27
ATOM     26  O   UNL     1      -8.632   7.658  70.299  0.00  0.00    -0.240 OA
ATOM     27  C   UNL     1      -9.151   8.191  71.326  0.00  0.00    +0.391 C 
ATOM     28  O   UNL     1      -8.272   8.880  72.162  0.00  0.00    -0.240 OA
ENDBRANCH  19  27
ENDBRANCH  17  24
ENDBRANCH   1  18
TORSDOF 6
ENDMDL
