MODEL 1
REMARK VINA RESULT:      -5.1      0.000      0.000
REMARK  Name = 
REMARK  5 active torsions:
REMARK  status: ('A' for Active; 'I' for Inactive)
REMARK    1  A    between atoms: C_2  and  C_3
REMARK    2  A    between atoms: C_3  and  C_4
REMARK    3  A    between atoms: C_3  and  C_11
REMARK    4  A    between atoms: C_11  and  C_13
REMARK    5  A    between atoms: C_13  and  N_14
REMARK                            x       y       z     vdW  Elec       q    Type
REMARK                         _______ _______ _______ _____ _____    ______ ____
ROOT
ATOM      1  C   UNL     1     -10.687  14.515  68.876  0.00  0.00    +0.024 C 
ENDROOT
BRANCH   1   2
ATOM      2  C   UNL     1     -10.795  14.453  67.292  0.00  0.00    -0.019 A 
ATOM      3  C   UNL     1     -12.067  14.259  66.774  0.00  0.00    +0.038 A 
ATOM      4  C   UNL     1     -12.180  13.733  65.494  0.00  0.00    +0.195 A 
ATOM      5  O   UNL     1     -13.160  12.793  65.159  0.00  0.00    -0.287 OA
ATOM      6  C   UNL     1     -11.090  13.884  64.644  0.00  0.00    +0.042 A 
ATOM      7  C   UNL     1      -9.875  14.324  65.153  0.00  0.00    +0.003 A 
ATOM      8  C   UNL     1      -9.686  14.359  66.531  0.00  0.00    -0.004 A 
ENDBRANCH   1   2
BRANCH   1  10
ATOM      9  C   UNL     1     -11.803  12.624  69.494  0.00  0.00    +0.000 C 
ATOM     10  C   UNL     1     -12.010  13.606  69.122  0.00  0.00    +0.004 C 
ENDBRANCH   1  10
BRANCH   1  11
ATOM     11  C   UNL     1     -11.577  15.955  68.968  0.00  0.00    +0.020 C 
ATOM     12  C   UNL     1     -11.569  15.923  70.586  0.00  0.00    +0.002 C 
BRANCH  11  13
ATOM     13  C   UNL     1     -10.230  16.840  68.858  0.00  0.00    +0.072 C 
BRANCH  13  14
ATOM     14  N   UNL     1     -10.548  18.065  68.195  0.00  0.00    -0.270 NA
ATOM     15  C   UNL     1      -9.816  19.209  68.717  0.00  0.00    +0.090 C 
ATOM     16  C   UNL     1     -10.372  18.032  66.767  0.00  0.00    +0.090 C 
ENDBRANCH  13  14
ENDBRANCH  11  13
ENDBRANCH   1  11
TORSDOF 5
ENDMDL
MODEL 2
REMARK VINA RESULT:      -4.8      2.079      3.482
REMARK  Name = 
REMARK  5 active torsions:
REMARK  status: ('A' for Active; 'I' for Inactive)
REMARK    1  A    between atoms: C_2  and  C_3
REMARK    2  A    between atoms: C_3  and  C_4
REMARK    3  A    between atoms: C_3  and  C_11
REMARK    4  A    between atoms: C_11  and  C_13
REMARK    5  A    between atoms: C_13  and  N_14
REMARK                            x       y       z     vdW  Elec       q    Type
REMARK                         _______ _______ _______ _____ _____    ______ ____
ROOT
ATOM      1  C   UNL     1     -10.324  12.259  67.244  0.00  0.00    +0.024 C 
ENDROOT
BRANCH   1   2
ATOM      2  C   UNL     1     -10.687  13.570  66.424  0.00  0.00    -0.019 A 
ATOM      3  C   UNL     1     -11.879  13.536  65.714  0.00  0.00    +0.038 A 
ATOM      4  C   UNL     1     -12.025  14.404  64.640  0.00  0.00    +0.195 A 
ATOM      5  O   UNL     1     -12.651  14.016  63.450  0.00  0.00    -0.287 OA
ATOM      6  C   UNL     1     -11.233  15.546  64.629  0.00  0.00    +0.042 A 
ATOM      7  C   UNL     1     -10.183  15.665  65.530  0.00  0.00    +0.003 A 
ATOM      8  C   UNL     1      -9.774  14.547  66.251  0.00  0.00    -0.004 A 
ENDBRANCH   1   2
BRANCH   1  10
ATOM      9  C   UNL     1     -10.131  10.720  65.571  0.00  0.00    +0.000 C 
ATOM     10  C   UNL     1     -10.892  11.247  66.108  0.00  0.00    +0.004 C 
ENDBRANCH   1  10
BRANCH   1  11
ATOM     11  C   UNL     1     -11.803  12.263  68.075  0.00  0.00    +0.020 C 
ATOM     12  C   UNL     1     -11.433  10.895  68.856  0.00  0.00    +0.002 C 
BRANCH  11  13
ATOM     13  C   UNL     1     -11.198  13.226  69.223  0.00  0.00    +0.072 C 
BRANCH  13  14
ATOM     14  N   UNL     1     -12.227  14.122  69.648  0.00  0.00    -0.270 NA
ATOM     15  C   UNL     1     -12.613  13.937  71.039  0.00  0.00    +0.090 C 
ATOM     16  C   UNL     1     -11.926  15.514  69.446  0.00  0.00    +0.090 C 
ENDBRANCH  13  14
ENDBRANCH  11  13
ENDBRANCH   1  11
TORSDOF 5
ENDMDL
MODEL 3
REMARK VINA RESULT:      -4.7      2.807      4.519
REMARK  Name = 
REMARK  5 active torsions:
REMARK  status: ('A' for Active; 'I' for Inactive)
REMARK    1  A    between atoms: C_2  and  C_3
REMARK    2  A    between atoms: C_3  and  C_4
REMARK    3  A    between atoms: C_3  and  C_11
REMARK    4  A    between atoms: C_11  and  C_13
REMARK    5  A    between atoms: C_13  and  N_14
REMARK                            x       y       z     vdW  Elec       q    Type
REMARK                         _______ _______ _______ _____ _____    ______ ____
ROOT
ATOM      1  C   UNL     1     -11.903  12.728  68.014  0.00  0.00    +0.024 C 
ENDROOT
BRANCH   1   2
ATOM      2  C   UNL     1     -11.640  13.831  66.903  0.00  0.00    -0.019 A 
ATOM      3  C   UNL     1     -12.571  13.898  65.876  0.00  0.00    +0.038 A 
ATOM      4  C   UNL     1     -12.178  14.469  64.672  0.00  0.00    +0.195 A 
ATOM      5  O   UNL     1     -12.576  13.948  63.437  0.00  0.00    -0.287 OA
ATOM      6  C   UNL     1     -11.103  15.348  64.704  0.00  0.00    +0.042 A 
ATOM      7  C   UNL     1     -10.323  15.443  65.850  0.00  0.00    +0.003 A 
ATOM      8  C   UNL     1     -10.462  14.485  66.849  0.00  0.00    -0.004 A 
ENDBRANCH   1   2
BRANCH   1  10
ATOM      9  C   UNL     1     -12.125  14.116  69.810  0.00  0.00    +0.000 C 
ATOM     10  C   UNL     1     -11.354  13.651  69.232  0.00  0.00    +0.004 C 
ENDBRANCH   1  10
BRANCH   1  11
ATOM     11  C   UNL     1     -10.385  12.009  67.786  0.00  0.00    +0.020 C 
ATOM     12  C   UNL     1     -10.599  11.019  69.048  0.00  0.00    +0.002 C 
BRANCH  11  13
ATOM     13  C   UNL     1     -10.996  10.969  66.711  0.00  0.00    +0.072 C 
BRANCH  13  14
ATOM     14  N   UNL     1     -10.013  10.733  65.702  0.00  0.00    -0.270 NA
ATOM     15  C   UNL     1      -9.616   9.337  65.600  0.00  0.00    +0.090 C 
ATOM     16  C   UNL     1     -10.383  11.192  64.390  0.00  0.00    +0.090 C 
ENDBRANCH  13  14
ENDBRANCH  11  13
ENDBRANCH   1  11
TORSDOF 5
ENDMDL
MODEL 4
REMARK VINA RESULT:      -4.7      2.761      4.722
REMARK  Name = 
REMARK  5 active torsions:
REMARK  status: ('A' for Active; 'I' for Inactive)
REMARK    1  A    between atoms: C_2  and  C_3
REMARK    2  A    between atoms: C_3  and  C_4
REMARK    3  A    between atoms: C_3  and  C_11
REMARK    4  A    between atoms: C_11  and  C_13
REMARK    5  A    between atoms: C_13  and  N_14
REMARK                            x       y       z     vdW  Elec       q    Type
REMARK                         _______ _______ _______ _____ _____    ______ ____
ROOT
ATOM      1  C   UNL     1      -9.825  11.263  66.359  0.00  0.00    +0.024 C 
ENDROOT
BRANCH   1   2
ATOM      2  C   UNL     1     -10.444  12.678  65.991  0.00  0.00    -0.019 A 
ATOM      3  C   UNL     1     -11.648  12.658  65.303  0.00  0.00    +0.038 A 
ATOM      4  C   UNL     1     -11.993  13.776  64.554  0.00  0.00    +0.195 A 
ATOM      5  O   UNL     1     -12.607  13.671  63.301  0.00  0.00    -0.287 OA
ATOM      6  C   UNL     1     -11.404  14.984  64.904  0.00  0.00    +0.042 A 
ATOM      7  C   UNL     1     -10.343  15.001  65.800  0.00  0.00    +0.003 A 
ATOM      8  C   UNL     1      -9.716  13.805  66.135  0.00  0.00    -0.004 A 
ENDBRANCH   1   2
BRANCH   1  10
ATOM      9  C   UNL     1      -9.507  10.354  64.291  0.00  0.00    +0.000 C 
ATOM     10  C   UNL     1     -10.303  10.559  64.976  0.00  0.00    +0.004 C 
ENDBRANCH   1  10
BRANCH   1  11
ATOM     11  C   UNL     1     -11.225  10.765  67.176  0.00  0.00    +0.020 C 
ATOM     12  C   UNL     1     -10.585   9.316  67.509  0.00  0.00    +0.002 C 
BRANCH  11  13
ATOM     13  C   UNL     1     -10.712  11.443  68.550  0.00  0.00    +0.072 C 
BRANCH  13  14
ATOM     14  N   UNL     1     -11.841  11.993  69.231  0.00  0.00    -0.270 NA
ATOM     15  C   UNL     1     -12.106  11.357  70.513  0.00  0.00    +0.090 C 
ATOM     16  C   UNL     1     -11.778  13.415  69.439  0.00  0.00    +0.090 C 
ENDBRANCH  13  14
ENDBRANCH  11  13
ENDBRANCH   1  11
TORSDOF 5
ENDMDL
MODEL 5
REMARK VINA RESULT:      -4.7      2.149      3.199
REMARK  Name = 
REMARK  5 active torsions:
REMARK  status: ('A' for Active; 'I' for Inactive)
REMARK    1  A    between atoms: C_2  and  C_3
REMARK    2  A    between atoms: C_3  and  C_4
REMARK    3  A    between atoms: C_3  and  C_11
REMARK    4  A    between atoms: C_11  and  C_13
REMARK    5  A    between atoms: C_13  and  N_14
REMARK                            x       y       z     vdW  Elec       q    Type
REMARK                         _______ _______ _______ _____ _____    ______ ____
ROOT
ATOM      1  C   UNL     1     -10.498  12.410  67.828  0.00  0.00    +0.024 C 
ENDROOT
BRANCH   1   2
ATOM      2  C   UNL     1     -10.808  13.300  66.550  0.00  0.00    -0.019 A 
ATOM      3  C   UNL     1      -9.806  14.176  66.158  0.00  0.00    +0.038 A 
ATOM      4  C   UNL     1     -10.162  15.277  65.390  0.00  0.00    +0.195 A 
ATOM      5  O   UNL     1      -9.587  16.537  65.586  0.00  0.00    -0.287 OA
ATOM      6  C   UNL     1     -11.345  15.195  64.667  0.00  0.00    +0.042 A 
ATOM      7  C   UNL     1     -12.231  14.152  64.910  0.00  0.00    +0.003 A 
ATOM      8  C   UNL     1     -12.054  13.358  66.038  0.00  0.00    -0.004 A 
ENDBRANCH   1   2
BRANCH   1  10
ATOM      9  C   UNL     1     -10.519  10.372  66.805  0.00  0.00    +0.000 C 
ATOM     10  C   UNL     1     -11.204  11.080  67.222  0.00  0.00    +0.004 C 
ENDBRANCH   1  10
BRANCH   1  11
ATOM     11  C   UNL     1     -11.922  12.889  68.615  0.00  0.00    +0.020 C 
ATOM     12  C   UNL     1     -11.707  11.800  69.792  0.00  0.00    +0.002 C 
BRANCH  11  13
ATOM     13  C   UNL     1     -11.141  14.068  69.396  0.00  0.00    +0.072 C 
BRANCH  13  14
ATOM     14  N   UNL     1     -11.939  15.252  69.341  0.00  0.00    -0.270 NA
ATOM     15  C   UNL     1     -12.493  15.632  70.632  0.00  0.00    +0.090 C 
ATOM     16  C   UNL     1     -11.270  16.396  68.784  0.00  0.00    +0.090 C 
ENDBRANCH  13  14
ENDBRANCH  11  13
ENDBRANCH   1  11
TORSDOF 5
ENDMDL
MODEL 6
REMARK VINA RESULT:      -4.7      2.462      4.130
REMARK  Name = 
REMARK  5 active torsions:
REMARK  status: ('A' for Active; 'I' for Inactive)
REMARK    1  A    between atoms: C_2  and  C_3
REMARK    2  A    between atoms: C_3  and  C_4
REMARK    3  A    between atoms: C_3  and  C_11
REMARK    4  A    between atoms: C_11  and  C_13
REMARK    5  A    between atoms: C_13  and  N_14
REMARK                            x       y       z     vdW  Elec       q    Type
REMARK                         _______ _______ _______ _____ _____    ______ ____
ROOT
ATOM      1  C   UNL     1      -9.809  17.599  68.159  0.00  0.00    +0.024 C 
ENDROOT
BRANCH   1   2
ATOM      2  C   UNL     1     -10.353  16.427  67.236  0.00  0.00    -0.019 A 
ATOM      3  C   UNL     1     -10.192  16.601  65.869  0.00  0.00    +0.038 A 
ATOM      4  C   UNL     1     -11.029  15.894  65.015  0.00  0.00    +0.195 A 
ATOM      5  O   UNL     1     -11.559  16.463  63.853  0.00  0.00    -0.287 OA
ATOM      6  C   UNL     1     -11.616  14.736  65.512  0.00  0.00    +0.042 A 
ATOM      7  C   UNL     1     -11.547  14.457  66.871  0.00  0.00    +0.003 A 
ATOM      8  C   UNL     1     -11.127  15.450  67.750  0.00  0.00    -0.004 A 
ENDBRANCH   1   2
BRANCH   1  10
ATOM      9  C   UNL     1     -10.688  19.498  67.251  0.00  0.00    +0.000 C 
ATOM     10  C   UNL     1      -9.973  18.739  67.014  0.00  0.00    +0.004 C 
ENDBRANCH   1  10
BRANCH   1  11
ATOM     11  C   UNL     1      -8.195  17.306  67.731  0.00  0.00    +0.020 C 
ATOM     12  C   UNL     1      -7.673  18.556  68.617  0.00  0.00    +0.002 C 
BRANCH  11  13
ATOM     13  C   UNL     1      -8.032  16.233  68.929  0.00  0.00    +0.072 C 
BRANCH  13  14
ATOM     14  N   UNL     1      -6.961  15.348  68.598  0.00  0.00    -0.270 NA
ATOM     15  C   UNL     1      -6.398  14.669  69.756  0.00  0.00    +0.090 C 
ATOM     16  C   UNL     1      -7.291  14.355  67.611  0.00  0.00    +0.090 C 
ENDBRANCH  13  14
ENDBRANCH  11  13
ENDBRANCH   1  11
TORSDOF 5
ENDMDL
MODEL 7
REMARK VINA RESULT:      -4.6      2.289      3.074
REMARK  Name = 
REMARK  5 active torsions:
REMARK  status: ('A' for Active; 'I' for Inactive)
REMARK    1  A    between atoms: C_2  and  C_3
REMARK    2  A    between atoms: C_3  and  C_4
REMARK    3  A    between atoms: C_3  and  C_11
REMARK    4  A    between atoms: C_11  and  C_13
REMARK    5  A    between atoms: C_13  and  N_14
REMARK                            x       y       z     vdW  Elec       q    Type
REMARK                         _______ _______ _______ _____ _____    ______ ____
ROOT
ATOM      1  C   UNL     1     -10.347  12.554  67.502  0.00  0.00    +0.024 C 
ENDROOT
BRANCH   1   2
ATOM      2  C   UNL     1     -11.031  12.231  66.105  0.00  0.00    -0.019 A 
ATOM      3  C   UNL     1     -10.281  11.473  65.218  0.00  0.00    +0.038 A 
ATOM      4  C   UNL     1     -10.587  11.555  63.865  0.00  0.00    +0.195 A 
ATOM      5  O   UNL     1      -9.596  11.576  62.878  0.00  0.00    -0.287 OA
ATOM      6  C   UNL     1     -11.869  11.970  63.526  0.00  0.00    +0.042 A 
ATOM      7  C   UNL     1     -12.701  12.506  64.500  0.00  0.00    +0.003 A 
ATOM      8  C   UNL     1     -12.165  12.859  65.734  0.00  0.00    -0.004 A 
ENDBRANCH   1   2
BRANCH   1  10
ATOM      9  C   UNL     1     -11.820  11.411  68.817  0.00  0.00    +0.000 C 
ATOM     10  C   UNL     1     -11.718  12.370  68.352  0.00  0.00    +0.004 C 
ENDBRANCH   1  10
BRANCH   1  11
ATOM     11  C   UNL     1     -10.594  14.223  67.336  0.00  0.00    +0.020 C 
ATOM     12  C   UNL     1     -10.122  14.502  68.859  0.00  0.00    +0.002 C 
BRANCH  11  13
ATOM     13  C   UNL     1      -9.116  14.419  66.713  0.00  0.00    +0.072 C 
BRANCH  13  14
ATOM     14  N   UNL     1      -9.138  15.557  65.850  0.00  0.00    -0.270 NA
ATOM     15  C   UNL     1     -10.483  16.026  65.550  0.00  0.00    +0.090 C 
ATOM     16  C   UNL     1      -8.365  16.676  66.319  0.00  0.00    +0.090 C 
ENDBRANCH  13  14
ENDBRANCH  11  13
ENDBRANCH   1  11
TORSDOF 5
ENDMDL
MODEL 8
REMARK VINA RESULT:      -4.6      2.497      4.731
REMARK  Name = 
REMARK  5 active torsions:
REMARK  status: ('A' for Active; 'I' for Inactive)
REMARK    1  A    between atoms: C_2  and  C_3
REMARK    2  A    between atoms: C_3  and  C_4
REMARK    3  A    between atoms: C_3  and  C_11
REMARK    4  A    between atoms: C_11  and  C_13
REMARK    5  A    between atoms: C_13  and  N_14
REMARK                            x       y       z     vdW  Elec       q    Type
REMARK                         _______ _______ _______ _____ _____    ______ ____
ROOT
ATOM      1  C   UNL     1      -9.981  15.646  68.137  0.00  0.00    +0.024 C 
ENDROOT
BRANCH   1   2
ATOM      2  C   UNL     1      -9.848  17.228  68.152  0.00  0.00    -0.019 A 
ATOM      3  C   UNL     1     -10.761  17.925  67.374  0.00  0.00    +0.038 A 
ATOM      4  C   UNL     1     -10.427  19.211  66.967  0.00  0.00    +0.195 A 
ATOM      5  O   UNL     1     -10.729  19.687  65.686  0.00  0.00    -0.287 OA
ATOM      6  C   UNL     1      -9.481  19.893  67.721  0.00  0.00    +0.042 A 
ATOM      7  C   UNL     1      -8.742  19.213  68.681  0.00  0.00    +0.003 A 
ATOM      8  C   UNL     1      -8.768  17.822  68.700  0.00  0.00    -0.004 A 
ENDBRANCH   1   2
BRANCH   1  10
ATOM      9  C   UNL     1      -9.535  15.272  65.931  0.00  0.00    +0.000 C 
ATOM     10  C   UNL     1     -10.349  15.572  66.557  0.00  0.00    +0.004 C 
ENDBRANCH   1  10
BRANCH   1  11
ATOM     11  C   UNL     1     -11.616  15.691  68.585  0.00  0.00    +0.020 C 
ATOM     12  C   UNL     1     -11.816  14.125  68.228  0.00  0.00    +0.002 C 
BRANCH  11  13
ATOM     13  C   UNL     1     -11.240  15.416  70.132  0.00  0.00    +0.072 C 
BRANCH  13  14
ATOM     14  N   UNL     1     -12.288  15.937  70.950  0.00  0.00    -0.270 NA
ATOM     15  C   UNL     1     -13.455  15.069  71.012  0.00  0.00    +0.090 C 
ATOM     16  C   UNL     1     -11.892  16.254  72.296  0.00  0.00    +0.090 C 
ENDBRANCH  13  14
ENDBRANCH  11  13
ENDBRANCH   1  11
TORSDOF 5
ENDMDL
MODEL 9
REMARK VINA RESULT:      -4.5      2.653      4.258
REMARK  Name = 
REMARK  5 active torsions:
REMARK  status: ('A' for Active; 'I' for Inactive)
REMARK    1  A    between atoms: C_2  and  C_3
REMARK    2  A    between atoms: C_3  and  C_4
REMARK    3  A    between atoms: C_3  and  C_11
REMARK    4  A    between atoms: C_11  and  C_13
REMARK    5  A    between atoms: C_13  and  N_14
REMARK                            x       y       z     vdW  Elec       q    Type
REMARK                         _______ _______ _______ _____ _____    ______ ____
ROOT
ATOM      1  C   UNL     1     -10.155  14.846  68.170  0.00  0.00    +0.024 C 
ENDROOT
BRANCH   1   2
ATOM      2  C   UNL     1     -10.856  14.549  66.776  0.00  0.00    -0.019 A 
ATOM      3  C   UNL     1     -10.471  15.357  65.715  0.00  0.00    +0.038 A 
ATOM      4  C   UNL     1     -11.341  15.482  64.639  0.00  0.00    +0.195 A 
ATOM      5  O   UNL     1     -11.542  16.701  63.983  0.00  0.00    -0.287 OA
ATOM      6  C   UNL     1     -12.272  14.467  64.450  0.00  0.00    +0.042 A 
ATOM      7  C   UNL     1     -12.463  13.513  65.441  0.00  0.00    +0.003 A 
ATOM      8  C   UNL     1     -11.921  13.725  66.704  0.00  0.00    -0.004 A 
ENDBRANCH   1   2
BRANCH   1  10
ATOM      9  C   UNL     1     -10.577  17.066  68.482  0.00  0.00    +0.000 C 
ATOM     10  C   UNL     1      -9.966  16.432  67.874  0.00  0.00    +0.004 C 
ENDBRANCH   1  10
BRANCH   1  11
ATOM     11  C   UNL     1      -8.611  14.482  67.571  0.00  0.00    +0.020 C 
ATOM     12  C   UNL     1      -7.911  14.861  68.980  0.00  0.00    +0.002 C 
BRANCH  11  13
ATOM     13  C   UNL     1      -8.793  12.920  67.941  0.00  0.00    +0.072 C 
BRANCH  13  14
ATOM     14  N   UNL     1      -8.180  12.139  66.914  0.00  0.00    -0.270 NA
ATOM     15  C   UNL     1      -7.014  11.399  67.373  0.00  0.00    +0.090 C 
ATOM     16  C   UNL     1      -9.067  11.217  66.257  0.00  0.00    +0.090 C 
ENDBRANCH  13  14
ENDBRANCH  11  13
ENDBRANCH   1  11
TORSDOF 5
ENDMDL
