MODEL 1
REMARK VINA RESULT:      -7.7      0.000      0.000
REMARK  Name = 
REMARK  12 active torsions:
REMARK  status: ('A' for Active; 'I' for Inactive)
REMARK    1  A    between atoms: C_2  and  C_4
REMARK    2  A    between atoms: C_5  and  C_6
REMARK    3  A    between atoms: N_8  and  C_9
REMARK    4  A    between atoms: C_15  and  C_16
REMARK    5  A    between atoms: C_22  and  C_23
REMARK    6  A    between atoms: N_30  and  C_31
REMARK    7  A    between atoms: C_31  and  C_32
REMARK    8  A    between atoms: C_32  and  C_33
REMARK    9  A    between atoms: C_33  and  C_35
REMARK   10  A    between atoms: C_35  and  C_36
REMARK   11  A    between atoms: C_36  and  C_38
REMARK   12  A    between atoms: C_38  and  C_39
REMARK                            x       y       z     vdW  Elec       q    Type
REMARK                         _______ _______ _______ _____ _____    ______ ____
ROOT
ATOM      1  C   UNL     1     -11.566  13.545  67.169  0.00  0.00    +0.041 A 
ATOM      2  N   UNL     1     -11.317  12.268  67.553  0.00  0.00    -0.330 N 
ATOM      3  C   UNL     1     -11.415  12.227  68.903  0.00  0.00    +0.060 A 
ATOM      4  C   UNL     1     -11.459  13.524  69.406  0.00  0.00    +0.021 A 
ATOM      5  C   UNL     1     -11.322  14.337  68.286  0.00  0.00    +0.068 A 
ENDROOT
BRANCH   3   6
ATOM      6  C   UNL     1     -11.756  10.979  69.594  0.00  0.00    +0.016 A 
ATOM      7  C   UNL     1     -10.806  10.189  70.220  0.00  0.00    +0.004 A 
ATOM      8  C   UNL     1     -11.155   9.454  71.349  0.00  0.00    +0.030 A 
ATOM      9  C   UNL     1     -12.463   9.426  71.766  0.00  0.00    +0.140 A 
ATOM     10  F   UNL     1     -12.826   9.296  73.076  0.00  0.00    -0.204 F 
ATOM     11  C   UNL     1     -13.418   9.712  70.798  0.00  0.00    +0.030 A 
ATOM     12  C   UNL     1     -13.069  10.557  69.752  0.00  0.00    +0.004 A 
ENDBRANCH   3   6
BRANCH   4  13
ATOM     13  C   UNL     1     -12.006  13.914  70.710  0.00  0.00    +0.002 A 
ATOM     14  C   UNL     1     -11.303  14.858  71.449  0.00  0.00    +0.000 A 
ATOM     15  C   UNL     1     -11.944  15.526  72.486  0.00  0.00    +0.000 A 
ATOM     16  C   UNL     1     -12.835  14.742  73.210  0.00  0.00    +0.000 A 
ATOM     17  C   UNL     1     -13.517  13.756  72.509  0.00  0.00    +0.000 A 
ATOM     18  C   UNL     1     -13.236  13.548  71.168  0.00  0.00    +0.000 A 
ENDBRANCH   4  13
BRANCH   1  20
ATOM     19  C   UNL     1     -12.455  13.840  65.749  0.00  0.00    +0.006 C 
ATOM     20  C   UNL     1     -12.152  14.021  65.883  0.00  0.00    +0.038 C 
ATOM     21  C   UNL     1     -11.034  14.227  64.881  0.00  0.00    +0.006 C 
ENDBRANCH   1  20
BRANCH   5  22
ATOM     22  C   UNL     1     -11.232  15.803  68.293  0.00  0.00    +0.270 C 
ATOM     23  N   UNL     1     -10.377  16.492  67.372  0.00  0.00    -0.175 NA
ATOM     24  O   UNL     1     -12.289  16.446  68.577  0.00  0.00    -0.268 OA
BRANCH  23  25
ATOM     25  C   UNL     1     -10.241  17.902  67.591  0.00  0.00    +0.074 A 
ATOM     26  C   UNL     1      -9.526  18.389  68.679  0.00  0.00    +0.017 A 
ATOM     27  C   UNL     1      -8.762  19.539  68.523  0.00  0.00    +0.001 A 
ATOM     28  C   UNL     1      -8.878  20.297  67.365  0.00  0.00    +0.000 A 
ATOM     29  C   UNL     1      -9.992  20.047  66.577  0.00  0.00    +0.001 A 
ATOM     30  C   UNL     1     -10.672  18.842  66.679  0.00  0.00    +0.017 A 
ENDBRANCH  23  25
ENDBRANCH   5  22
BRANCH   2  31
ATOM     31  C   UNL     1     -10.848  11.269  66.628  0.00  0.00    +0.108 C 
BRANCH  31  32
ATOM     32  C   UNL     1      -9.365  11.290  66.409  0.00  0.00    +0.057 C 
BRANCH  32  33
ATOM     33  C   UNL     1      -9.152   9.821  65.642  0.00  0.00    +0.156 C 
ATOM     34  O   UNL     1     -10.218  10.172  64.593  0.00  0.00    -0.223 OA
BRANCH  33  35
ATOM     35  C   UNL     1     -10.283   9.069  66.619  0.00  0.00    +0.066 C 
BRANCH  35  36
ATOM     36  C   UNL     1      -9.494   7.595  66.533  0.00  0.00    +0.166 C 
ATOM     37  O   UNL     1      -8.126   8.286  66.667  0.00  0.00    -0.222 OA
BRANCH  36  38
ATOM     38  C   UNL     1      -9.589   7.371  68.186  0.00  0.00    +0.147 C 
BRANCH  38  39
ATOM     39  C   UNL     1     -10.771   6.479  68.296  0.00  0.00    +0.367 C 
ATOM     40  O   UNL     1     -11.492   6.355  69.485  0.00  0.00    -0.246 OA
ATOM     41  O   UNL     1     -10.979   5.622  67.397  0.00  0.00    -0.246 OA
ENDBRANCH  38  39
ENDBRANCH  36  38
ENDBRANCH  35  36
ENDBRANCH  33  35
ENDBRANCH  32  33
ENDBRANCH  31  32
ENDBRANCH   2  31
TORSDOF 12
ENDMDL
MODEL 2
REMARK VINA RESULT:      -7.4      1.351      1.807
REMARK  Name = 
REMARK  12 active torsions:
REMARK  status: ('A' for Active; 'I' for Inactive)
REMARK    1  A    between atoms: C_2  and  C_4
REMARK    2  A    between atoms: C_5  and  C_6
REMARK    3  A    between atoms: N_8  and  C_9
REMARK    4  A    between atoms: C_15  and  C_16
REMARK    5  A    between atoms: C_22  and  C_23
REMARK    6  A    between atoms: N_30  and  C_31
REMARK    7  A    between atoms: C_31  and  C_32
REMARK    8  A    between atoms: C_32  and  C_33
REMARK    9  A    between atoms: C_33  and  C_35
REMARK   10  A    between atoms: C_35  and  C_36
REMARK   11  A    between atoms: C_36  and  C_38
REMARK   12  A    between atoms: C_38  and  C_39
REMARK                            x       y       z     vdW  Elec       q    Type
REMARK                         _______ _______ _______ _____ _____    ______ ____
ROOT
ATOM      1  C   UNL     1     -11.375  12.610  67.669  0.00  0.00    +0.041 A 
ATOM      2  N   UNL     1     -11.264  11.463  68.384  0.00  0.00    -0.330 N 
ATOM      3  C   UNL     1     -11.499  11.773  69.682  0.00  0.00    +0.060 A 
ATOM      4  C   UNL     1     -11.492  13.156  69.837  0.00  0.00    +0.021 A 
ATOM      5  C   UNL     1     -11.183  13.648  68.574  0.00  0.00    +0.068 A 
ENDROOT
BRANCH   3   6
ATOM      6  C   UNL     1     -12.002  10.761  70.618  0.00  0.00    +0.016 A 
ATOM      7  C   UNL     1     -13.352  10.500  70.780  0.00  0.00    +0.004 A 
ATOM      8  C   UNL     1     -13.772   9.214  71.104  0.00  0.00    +0.030 A 
ATOM      9  C   UNL     1     -12.841   8.241  71.373  0.00  0.00    +0.140 A 
ATOM     10  F   UNL     1     -13.046   6.918  71.104  0.00  0.00    -0.204 F 
ATOM     11  C   UNL     1     -11.591   8.690  71.781  0.00  0.00    +0.030 A 
ATOM     12  C   UNL     1     -11.151   9.927  71.330  0.00  0.00    +0.004 A 
ENDBRANCH   3   6
BRANCH   4  13
ATOM     13  C   UNL     1     -12.135  13.893  70.932  0.00  0.00    +0.002 A 
ATOM     14  C   UNL     1     -11.379  14.854  71.593  0.00  0.00    +0.000 A 
ATOM     15  C   UNL     1     -12.025  15.818  72.360  0.00  0.00    +0.000 A 
ATOM     16  C   UNL     1     -13.136  15.350  73.052  0.00  0.00    +0.000 A 
ATOM     17  C   UNL     1     -13.884  14.354  72.438  0.00  0.00    +0.000 A 
ATOM     18  C   UNL     1     -13.463  13.824  71.228  0.00  0.00    +0.000 A 
ENDBRANCH   4  13
BRANCH   1  20
ATOM     19  C   UNL     1     -12.084  12.565  66.123  0.00  0.00    +0.006 C 
ATOM     20  C   UNL     1     -11.792  12.769  66.246  0.00  0.00    +0.038 C 
ATOM     21  C   UNL     1     -10.560  12.715  65.365  0.00  0.00    +0.006 C 
ENDBRANCH   1  20
BRANCH   5  22
ATOM     22  C   UNL     1     -10.980  15.060  68.227  0.00  0.00    +0.270 C 
ATOM     23  N   UNL     1      -9.828  15.478  67.484  0.00  0.00    -0.175 NA
ATOM     24  O   UNL     1     -12.018  15.748  67.976  0.00  0.00    -0.268 OA
BRANCH  23  25
ATOM     25  C   UNL     1      -9.653  16.895  67.358  0.00  0.00    +0.074 A 
ATOM     26  C   UNL     1      -9.870  17.535  66.143  0.00  0.00    +0.017 A 
ATOM     27  C   UNL     1     -10.446  18.800  66.140  0.00  0.00    +0.001 A 
ATOM     28  C   UNL     1     -10.610  19.490  67.334  0.00  0.00    +0.000 A 
ATOM     29  C   UNL     1      -9.884  19.019  68.419  0.00  0.00    +0.001 A 
ATOM     30  C   UNL     1      -9.412  17.714  68.441  0.00  0.00    +0.017 A 
ENDBRANCH  23  25
ENDBRANCH   5  22
BRANCH   2  31
ATOM     31  C   UNL     1     -10.784  10.238  67.798  0.00  0.00    +0.108 C 
BRANCH  31  32
ATOM     32  C   UNL     1      -9.291  10.110  67.793  0.00  0.00    +0.057 C 
BRANCH  32  33
ATOM     33  C   UNL     1      -9.122   8.561  67.188  0.00  0.00    +0.156 C 
ATOM     34  O   UNL     1     -10.116   8.856  66.054  0.00  0.00    -0.223 OA
BRANCH  33  35
ATOM     35  C   UNL     1     -10.339   7.971  68.173  0.00  0.00    +0.066 C 
BRANCH  35  36
ATOM     36  C   UNL     1      -9.667   6.438  68.218  0.00  0.00    +0.166 C 
ATOM     37  O   UNL     1      -8.263   7.014  67.970  0.00  0.00    -0.222 OA
BRANCH  36  38
ATOM     38  C   UNL     1      -9.448   6.509  69.873  0.00  0.00    +0.147 C 
BRANCH  38  39
ATOM     39  C   UNL     1     -10.125   5.262  70.314  0.00  0.00    +0.367 C 
ATOM     40  O   UNL     1     -10.566   5.088  71.627  0.00  0.00    -0.246 OA
ATOM     41  O   UNL     1     -10.071   4.242  69.578  0.00  0.00    -0.246 OA
ENDBRANCH  38  39
ENDBRANCH  36  38
ENDBRANCH  35  36
ENDBRANCH  33  35
ENDBRANCH  32  33
ENDBRANCH  31  32
ENDBRANCH   2  31
TORSDOF 12
ENDMDL
MODEL 3
REMARK VINA RESULT:      -7.3      2.117      3.352
REMARK  Name = 
REMARK  12 active torsions:
REMARK  status: ('A' for Active; 'I' for Inactive)
REMARK    1  A    between atoms: C_2  and  C_4
REMARK    2  A    between atoms: C_5  and  C_6
REMARK    3  A    between atoms: N_8  and  C_9
REMARK    4  A    between atoms: C_15  and  C_16
REMARK    5  A    between atoms: C_22  and  C_23
REMARK    6  A    between atoms: N_30  and  C_31
REMARK    7  A    between atoms: C_31  and  C_32
REMARK    8  A    between atoms: C_32  and  C_33
REMARK    9  A    between atoms: C_33  and  C_35
REMARK   10  A    between atoms: C_35  and  C_36
REMARK   11  A    between atoms: C_36  and  C_38
REMARK   12  A    between atoms: C_38  and  C_39
REMARK                            x       y       z     vdW  Elec       q    Type
REMARK                         _______ _______ _______ _____ _____    ______ ____
ROOT
ATOM      1  C   UNL     1     -11.596  13.492  67.212  0.00  0.00    +0.041 A 
ATOM      2  N   UNL     1     -11.369  12.215  67.607  0.00  0.00    -0.330 N 
ATOM      3  C   UNL     1     -11.466  12.188  68.958  0.00  0.00    +0.060 A 
ATOM      4  C   UNL     1     -11.487  13.490  69.448  0.00  0.00    +0.021 A 
ATOM      5  C   UNL     1     -11.338  14.290  68.321  0.00  0.00    +0.068 A 
ENDROOT
BRANCH   3   6
ATOM      6  C   UNL     1     -11.827  10.952  69.662  0.00  0.00    +0.016 A 
ATOM      7  C   UNL     1     -10.899  10.182  70.342  0.00  0.00    +0.004 A 
ATOM      8  C   UNL     1     -11.289   9.469  71.471  0.00  0.00    +0.030 A 
ATOM      9  C   UNL     1     -12.613   9.441  71.836  0.00  0.00    +0.140 A 
ATOM     10  F   UNL     1     -13.027   9.337  73.133  0.00  0.00    -0.204 F 
ATOM     11  C   UNL     1     -13.529   9.700  70.824  0.00  0.00    +0.030 A 
ATOM     12  C   UNL     1     -13.143  10.525  69.776  0.00  0.00    +0.004 A 
ENDBRANCH   3   6
BRANCH   4  13
ATOM     13  C   UNL     1     -12.027  13.902  70.750  0.00  0.00    +0.002 A 
ATOM     14  C   UNL     1     -11.315  14.853  71.472  0.00  0.00    +0.000 A 
ATOM     15  C   UNL     1     -11.948  15.539  72.501  0.00  0.00    +0.000 A 
ATOM     16  C   UNL     1     -12.839  14.770  73.241  0.00  0.00    +0.000 A 
ATOM     17  C   UNL     1     -13.530  13.778  72.557  0.00  0.00    +0.000 A 
ATOM     18  C   UNL     1     -13.257  13.549  71.218  0.00  0.00    +0.000 A 
ENDBRANCH   4  13
BRANCH   1  20
ATOM     19  C   UNL     1     -12.482  13.789  65.790  0.00  0.00    +0.006 C 
ATOM     20  C   UNL     1     -12.176  13.965  65.922  0.00  0.00    +0.038 C 
ATOM     21  C   UNL     1     -11.056  14.138  64.915  0.00  0.00    +0.006 C 
ENDBRANCH   1  20
BRANCH   5  22
ATOM     22  C   UNL     1     -11.223  15.754  68.314  0.00  0.00    +0.270 C 
ATOM     23  N   UNL     1     -10.355  16.420  67.387  0.00  0.00    -0.175 NA
ATOM     24  O   UNL     1     -12.270  16.417  68.589  0.00  0.00    -0.268 OA
BRANCH  23  25
ATOM     25  C   UNL     1     -10.196  17.830  67.593  0.00  0.00    +0.074 A 
ATOM     26  C   UNL     1      -9.465  18.314  68.671  0.00  0.00    +0.017 A 
ATOM     27  C   UNL     1      -8.685  19.452  68.500  0.00  0.00    +0.001 A 
ATOM     28  C   UNL     1      -8.797  20.201  67.336  0.00  0.00    +0.000 A 
ATOM     29  C   UNL     1      -9.921  19.961  66.559  0.00  0.00    +0.001 A 
ATOM     30  C   UNL     1     -10.619  18.768  66.675  0.00  0.00    +0.017 A 
ENDBRANCH  23  25
ENDBRANCH   5  22
BRANCH   2  31
ATOM     31  C   UNL     1     -10.917  11.199  66.692  0.00  0.00    +0.108 C 
BRANCH  31  32
ATOM     32  C   UNL     1      -9.574  10.627  67.031  0.00  0.00    +0.057 C 
BRANCH  32  33
ATOM     33  C   UNL     1      -8.580  11.877  66.541  0.00  0.00    +0.156 C 
ATOM     34  O   UNL     1      -7.472  10.888  66.143  0.00  0.00    -0.223 OA
BRANCH  33  35
ATOM     35  C   UNL     1      -7.940  12.061  68.075  0.00  0.00    +0.066 C 
BRANCH  35  36
ATOM     36  C   UNL     1      -7.238  13.531  67.692  0.00  0.00    +0.166 C 
ATOM     37  O   UNL     1      -7.959  14.215  68.865  0.00  0.00    -0.222 OA
BRANCH  36  38
ATOM     38  C   UNL     1      -5.901  13.218  68.643  0.00  0.00    +0.147 C 
BRANCH  38  39
ATOM     39  C   UNL     1      -4.796  13.379  67.663  0.00  0.00    +0.367 C 
ATOM     40  O   UNL     1      -4.208  14.619  67.413  0.00  0.00    -0.246 OA
ATOM     41  O   UNL     1      -4.558  12.446  66.850  0.00  0.00    -0.246 OA
ENDBRANCH  38  39
ENDBRANCH  36  38
ENDBRANCH  35  36
ENDBRANCH  33  35
ENDBRANCH  32  33
ENDBRANCH  31  32
ENDBRANCH   2  31
TORSDOF 12
ENDMDL
MODEL 4
REMARK VINA RESULT:      -7.3      2.859      7.417
REMARK  Name = 
REMARK  12 active torsions:
REMARK  status: ('A' for Active; 'I' for Inactive)
REMARK    1  A    between atoms: C_2  and  C_4
REMARK    2  A    between atoms: C_5  and  C_6
REMARK    3  A    between atoms: N_8  and  C_9
REMARK    4  A    between atoms: C_15  and  C_16
REMARK    5  A    between atoms: C_22  and  C_23
REMARK    6  A    between atoms: N_30  and  C_31
REMARK    7  A    between atoms: C_31  and  C_32
REMARK    8  A    between atoms: C_32  and  C_33
REMARK    9  A    between atoms: C_33  and  C_35
REMARK   10  A    between atoms: C_35  and  C_36
REMARK   11  A    between atoms: C_36  and  C_38
REMARK   12  A    between atoms: C_38  and  C_39
REMARK                            x       y       z     vdW  Elec       q    Type
REMARK                         _______ _______ _______ _____ _____    ______ ____
ROOT
ATOM      1  C   UNL     1     -10.611  12.547  66.422  0.00  0.00    +0.041 A 
ATOM      2  N   UNL     1     -11.212  12.385  67.627  0.00  0.00    -0.330 N 
ATOM      3  C   UNL     1     -11.116  11.073  67.950  0.00  0.00    +0.060 A 
ATOM      4  C   UNL     1     -10.698  10.349  66.839  0.00  0.00    +0.021 A 
ATOM      5  C   UNL     1     -10.606  11.293  65.821  0.00  0.00    +0.068 A 
ENDROOT
BRANCH   3   6
ATOM      6  C   UNL     1     -11.140  10.641  69.353  0.00  0.00    +0.016 A 
ATOM      7  C   UNL     1     -12.299  10.633  70.111  0.00  0.00    +0.004 A 
ATOM      8  C   UNL     1     -12.464   9.679  71.109  0.00  0.00    +0.030 A 
ATOM      9  C   UNL     1     -11.431   8.826  71.413  0.00  0.00    +0.140 A 
ATOM     10  F   UNL     1     -11.625   7.552  71.867  0.00  0.00    -0.204 F 
ATOM     11  C   UNL     1     -10.158   9.263  71.070  0.00  0.00    +0.030 A 
ATOM     12  C   UNL     1     -10.021  10.116  69.983  0.00  0.00    +0.004 A 
ENDBRANCH   3   6
BRANCH   4  13
ATOM     13  C   UNL     1     -10.048   9.033  66.873  0.00  0.00    +0.002 A 
ATOM     14  C   UNL     1      -8.670   8.998  67.049  0.00  0.00    +0.000 A 
ATOM     15  C   UNL     1      -8.065   7.814  67.456  0.00  0.00    +0.000 A 
ATOM     16  C   UNL     1      -8.628   6.666  66.911  0.00  0.00    +0.000 A 
ATOM     17  C   UNL     1      -9.998   6.687  66.678  0.00  0.00    +0.000 A 
ATOM     18  C   UNL     1     -10.717   7.847  66.920  0.00  0.00    +0.000 A 
ENDBRANCH   4  13
BRANCH   1  20
ATOM     19  C   UNL     1      -9.726  13.972  66.134  0.00  0.00    +0.006 C 
ATOM     20  C   UNL     1      -9.926  13.762  65.893  0.00  0.00    +0.038 C 
ATOM     21  C   UNL     1     -10.901  14.537  65.028  0.00  0.00    +0.006 C 
ENDBRANCH   1  20
BRANCH   5  22
ATOM     22  C   UNL     1     -10.273  11.017  64.418  0.00  0.00    +0.270 C 
ATOM     23  N   UNL     1      -9.251  10.071  64.078  0.00  0.00    -0.175 NA
ATOM     24  O   UNL     1     -11.226  11.053  63.580  0.00  0.00    -0.268 OA
BRANCH  23  25
ATOM     25  C   UNL     1      -8.897  10.016  62.689  0.00  0.00    +0.074 A 
ATOM     26  C   UNL     1      -8.238  11.078  62.080  0.00  0.00    +0.017 A 
ATOM     27  C   UNL     1      -7.272  10.808  61.117  0.00  0.00    +0.001 A 
ATOM     28  C   UNL     1      -7.120   9.516  60.631  0.00  0.00    +0.000 A 
ATOM     29  C   UNL     1      -8.162   8.637  60.888  0.00  0.00    +0.001 A 
ATOM     30  C   UNL     1      -9.049   8.878  61.927  0.00  0.00    +0.017 A 
ENDBRANCH  23  25
ENDBRANCH   5  22
BRANCH   2  31
ATOM     31  C   UNL     1     -11.957  13.442  68.260  0.00  0.00    +0.108 C 
BRANCH  31  32
ATOM     32  C   UNL     1     -11.204  14.155  69.342  0.00  0.00    +0.057 C 
BRANCH  32  33
ATOM     33  C   UNL     1     -12.025  15.610  69.374  0.00  0.00    +0.156 C 
ATOM     34  O   UNL     1     -10.885  16.311  68.618  0.00  0.00    -0.223 OA
BRANCH  33  35
ATOM     35  C   UNL     1     -11.370  16.025  70.856  0.00  0.00    +0.066 C 
BRANCH  35  36
ATOM     36  C   UNL     1     -12.151  14.770  71.641  0.00  0.00    +0.166 C 
ATOM     37  O   UNL     1     -11.567  15.211  72.993  0.00  0.00    -0.222 OA
BRANCH  36  38
ATOM     38  C   UNL     1     -13.525  15.689  71.887  0.00  0.00    +0.147 C 
BRANCH  38  39
ATOM     39  C   UNL     1     -14.573  14.639  71.966  0.00  0.00    +0.367 C 
ATOM     40  O   UNL     1     -14.311  13.374  72.495  0.00  0.00    -0.246 OA
ATOM     41  O   UNL     1     -15.639  14.787  71.312  0.00  0.00    -0.246 OA
ENDBRANCH  38  39
ENDBRANCH  36  38
ENDBRANCH  35  36
ENDBRANCH  33  35
ENDBRANCH  32  33
ENDBRANCH  31  32
ENDBRANCH   2  31
TORSDOF 12
ENDMDL
MODEL 5
REMARK VINA RESULT:      -7.2      2.880      9.017
REMARK  Name = 
REMARK  12 active torsions:
REMARK  status: ('A' for Active; 'I' for Inactive)
REMARK    1  A    between atoms: C_2  and  C_4
REMARK    2  A    between atoms: C_5  and  C_6
REMARK    3  A    between atoms: N_8  and  C_9
REMARK    4  A    between atoms: C_15  and  C_16
REMARK    5  A    between atoms: C_22  and  C_23
REMARK    6  A    between atoms: N_30  and  C_31
REMARK    7  A    between atoms: C_31  and  C_32
REMARK    8  A    between atoms: C_32  and  C_33
REMARK    9  A    between atoms: C_33  and  C_35
REMARK   10  A    between atoms: C_35  and  C_36
REMARK   11  A    between atoms: C_36  and  C_38
REMARK   12  A    between atoms: C_38  and  C_39
REMARK                            x       y       z     vdW  Elec       q    Type
REMARK                         _______ _______ _______ _____ _____    ______ ____
ROOT
ATOM      1  C   UNL     1     -11.763  11.394  70.272  0.00  0.00    +0.041 A 
ATOM      2  N   UNL     1     -11.702  12.501  69.491  0.00  0.00    -0.330 N 
ATOM      3  C   UNL     1     -10.914  12.202  68.430  0.00  0.00    +0.060 A 
ATOM      4  C   UNL     1     -10.254  11.000  68.665  0.00  0.00    +0.021 A 
ATOM      5  C   UNL     1     -10.647  10.631  69.947  0.00  0.00    +0.068 A 
ENDROOT
BRANCH   3   6
ATOM      6  C   UNL     1     -11.066  12.915  67.156  0.00  0.00    +0.016 A 
ATOM      7  C   UNL     1      -9.986  13.407  66.443  0.00  0.00    +0.004 A 
ATOM      8  C   UNL     1     -10.044  13.462  65.054  0.00  0.00    +0.030 A 
ATOM      9  C   UNL     1     -11.211  13.137  64.407  0.00  0.00    +0.140 A 
ATOM     10  F   UNL     1     -11.243  12.576  63.163  0.00  0.00    -0.204 F 
ATOM     11  C   UNL     1     -12.375  13.246  65.158  0.00  0.00    +0.030 A 
ATOM     12  C   UNL     1     -12.298  13.056  66.532  0.00  0.00    +0.004 A 
ENDBRANCH   3   6
BRANCH   4  13
ATOM     13  C   UNL     1      -9.693  10.120  67.633  0.00  0.00    +0.002 A 
ATOM     14  C   UNL     1      -8.312  10.104  67.479  0.00  0.00    +0.000 A 
ATOM     15  C   UNL     1      -7.715   9.047  66.802  0.00  0.00    +0.000 A 
ATOM     16  C   UNL     1      -8.443   8.578  65.715  0.00  0.00    +0.000 A 
ATOM     17  C   UNL     1      -9.827   8.626  65.819  0.00  0.00    +0.000 A 
ATOM     18  C   UNL     1     -10.413   9.194  66.939  0.00  0.00    +0.000 A 
ENDBRANCH   4  13
BRANCH   1  20
ATOM     19  C   UNL     1     -12.800  10.933  71.539  0.00  0.00    +0.006 C 
ATOM     20  C   UNL     1     -12.872  10.964  71.171  0.00  0.00    +0.038 C 
ATOM     21  C   UNL     1     -13.568   9.767  70.554  0.00  0.00    +0.006 C 
ENDBRANCH   1  20
BRANCH   5  22
ATOM     22  C   UNL     1     -10.162   9.463  70.692  0.00  0.00    +0.270 C 
ATOM     23  N   UNL     1     -10.656   8.149  70.404  0.00  0.00    -0.175 NA
ATOM     24  O   UNL     1      -8.946   9.474  71.059  0.00  0.00    -0.268 OA
BRANCH  23  25
ATOM     25  C   UNL     1     -10.240   7.119  71.310  0.00  0.00    +0.074 A 
ATOM     26  C   UNL     1     -10.735   7.069  72.608  0.00  0.00    +0.017 A 
ATOM     27  C   UNL     1     -10.991   5.831  73.186  0.00  0.00    +0.001 A 
ATOM     28  C   UNL     1     -10.566   4.670  72.553  0.00  0.00    +0.000 A 
ATOM     29  C   UNL     1      -9.619   4.828  71.552  0.00  0.00    +0.001 A 
ATOM     30  C   UNL     1      -9.460   6.052  70.917  0.00  0.00    +0.017 A 
ENDBRANCH  23  25
ENDBRANCH   5  22
BRANCH   2  31
ATOM     31  C   UNL     1     -12.246  13.766  69.911  0.00  0.00    +0.108 C 
BRANCH  31  32
ATOM     32  C   UNL     1     -11.496  14.407  71.039  0.00  0.00    +0.057 C 
BRANCH  32  33
ATOM     33  C   UNL     1     -11.789  16.021  70.719  0.00  0.00    +0.156 C 
ATOM     34  O   UNL     1     -13.306  15.776  70.677  0.00  0.00    -0.223 OA
BRANCH  33  35
ATOM     35  C   UNL     1     -11.652  15.788  69.068  0.00  0.00    +0.066 C 
BRANCH  35  36
ATOM     36  C   UNL     1     -10.494  16.987  68.915  0.00  0.00    +0.166 C 
ATOM     37  O   UNL     1      -9.364  15.946  68.974  0.00  0.00    -0.222 OA
BRANCH  36  38
ATOM     38  C   UNL     1     -10.535  16.909  67.246  0.00  0.00    +0.147 C 
BRANCH  38  39
ATOM     39  C   UNL     1     -10.378  18.340  66.879  0.00  0.00    +0.367 C 
ATOM     40  O   UNL     1      -9.374  18.772  66.011  0.00  0.00    -0.246 OA
ATOM     41  O   UNL     1     -10.981  19.215  67.555  0.00  0.00    -0.246 OA
ENDBRANCH  38  39
ENDBRANCH  36  38
ENDBRANCH  35  36
ENDBRANCH  33  35
ENDBRANCH  32  33
ENDBRANCH  31  32
ENDBRANCH   2  31
TORSDOF 12
ENDMDL
MODEL 6
REMARK VINA RESULT:      -7.2      3.396      9.284
REMARK  Name = 
REMARK  12 active torsions:
REMARK  status: ('A' for Active; 'I' for Inactive)
REMARK    1  A    between atoms: C_2  and  C_4
REMARK    2  A    between atoms: C_5  and  C_6
REMARK    3  A    between atoms: N_8  and  C_9
REMARK    4  A    between atoms: C_15  and  C_16
REMARK    5  A    between atoms: C_22  and  C_23
REMARK    6  A    between atoms: N_30  and  C_31
REMARK    7  A    between atoms: C_31  and  C_32
REMARK    8  A    between atoms: C_32  and  C_33
REMARK    9  A    between atoms: C_33  and  C_35
REMARK   10  A    between atoms: C_35  and  C_36
REMARK   11  A    between atoms: C_36  and  C_38
REMARK   12  A    between atoms: C_38  and  C_39
REMARK                            x       y       z     vdW  Elec       q    Type
REMARK                         _______ _______ _______ _____ _____    ______ ____
ROOT
ATOM      1  C   UNL     1     -11.600  10.897  69.701  0.00  0.00    +0.041 A 
ATOM      2  N   UNL     1     -11.492  11.967  68.876  0.00  0.00    -0.330 N 
ATOM      3  C   UNL     1     -10.545  11.671  67.953  0.00  0.00    +0.060 A 
ATOM      4  C   UNL     1      -9.857  10.527  68.345  0.00  0.00    +0.021 A 
ATOM      5  C   UNL     1     -10.407  10.194  69.579  0.00  0.00    +0.068 A 
ENDROOT
BRANCH   3   6
ATOM      6  C   UNL     1     -10.555  12.312  66.634  0.00  0.00    +0.016 A 
ATOM      7  C   UNL     1     -11.438  11.945  65.632  0.00  0.00    +0.004 A 
ATOM      8  C   UNL     1     -11.884  12.898  64.723  0.00  0.00    +0.030 A 
ATOM      9  C   UNL     1     -11.359  14.167  64.753  0.00  0.00    +0.140 A 
ATOM     10  F   UNL     1     -12.069  15.277  64.395  0.00  0.00    -0.204 F 
ATOM     11  C   UNL     1     -10.104  14.294  65.336  0.00  0.00    +0.030 A 
ATOM     12  C   UNL     1      -9.745  13.399  66.336  0.00  0.00    +0.004 A 
ENDBRANCH   3   6
BRANCH   4  13
ATOM     13  C   UNL     1      -9.105   9.637  67.453  0.00  0.00    +0.002 A 
ATOM     14  C   UNL     1      -7.719   9.635  67.562  0.00  0.00    +0.000 A 
ATOM     15  C   UNL     1      -6.996   8.575  67.027  0.00  0.00    +0.000 A 
ATOM     16  C   UNL     1      -7.503   8.081  65.830  0.00  0.00    +0.000 A 
ATOM     17  C   UNL     1      -8.882   8.115  65.671  0.00  0.00    +0.000 A 
ATOM     18  C   UNL     1      -9.673   8.694  66.651  0.00  0.00    +0.000 A 
ENDBRANCH   4  13
BRANCH   1  20
ATOM     19  C   UNL     1     -13.128  10.418  70.275  0.00  0.00    +0.006 C 
ATOM     20  C   UNL     1     -12.800  10.438  70.459  0.00  0.00    +0.038 C 
ATOM     21  C   UNL     1     -12.854  11.173  71.783  0.00  0.00    +0.006 C 
ENDBRANCH   1  20
BRANCH   5  22
ATOM     22  C   UNL     1      -9.967   9.096  70.448  0.00  0.00    +0.270 C 
ATOM     23  N   UNL     1     -10.362   7.743  70.183  0.00  0.00    -0.175 NA
ATOM     24  O   UNL     1      -8.808   9.191  70.959  0.00  0.00    -0.268 OA
BRANCH  23  25
ATOM     25  C   UNL     1     -10.016   6.788  71.195  0.00  0.00    +0.074 A 
ATOM     26  C   UNL     1     -10.604   6.840  72.454  0.00  0.00    +0.017 A 
ATOM     27  C   UNL     1     -10.906   5.651  73.106  0.00  0.00    +0.001 A 
ATOM     28  C   UNL     1     -10.440   4.444  72.599  0.00  0.00    +0.000 A 
ATOM     29  C   UNL     1      -9.422   4.526  71.660  0.00  0.00    +0.001 A 
ATOM     30  C   UNL     1      -9.213   5.696  70.945  0.00  0.00    +0.017 A 
ENDBRANCH  23  25
ENDBRANCH   5  22
BRANCH   2  31
ATOM     31  C   UNL     1     -12.164  13.213  69.145  0.00  0.00    +0.108 C 
BRANCH  31  32
ATOM     32  C   UNL     1     -11.251  14.309  69.605  0.00  0.00    +0.057 C 
BRANCH  32  33
ATOM     33  C   UNL     1     -12.371  15.461  70.067  0.00  0.00    +0.156 C 
ATOM     34  O   UNL     1     -11.285  16.285  70.777  0.00  0.00    -0.223 OA
BRANCH  33  35
ATOM     35  C   UNL     1     -12.740  14.635  71.475  0.00  0.00    +0.066 C 
BRANCH  35  36
ATOM     36  C   UNL     1     -12.655  16.024  72.405  0.00  0.00    +0.166 C 
ATOM     37  O   UNL     1     -14.182  16.031  72.588  0.00  0.00    -0.222 OA
BRANCH  36  38
ATOM     38  C   UNL     1     -12.450  15.149  73.814  0.00  0.00    +0.147 C 
BRANCH  38  39
ATOM     39  C   UNL     1     -12.471  16.227  74.836  0.00  0.00    +0.367 C 
ATOM     40  O   UNL     1     -12.022  17.518  74.555  0.00  0.00    -0.246 OA
ATOM     41  O   UNL     1     -12.645  15.921  76.045  0.00  0.00    -0.246 OA
ENDBRANCH  38  39
ENDBRANCH  36  38
ENDBRANCH  35  36
ENDBRANCH  33  35
ENDBRANCH  32  33
ENDBRANCH  31  32
ENDBRANCH   2  31
TORSDOF 12
ENDMDL
MODEL 7
REMARK VINA RESULT:      -6.8      2.852      5.780
REMARK  Name = 
REMARK  12 active torsions:
REMARK  status: ('A' for Active; 'I' for Inactive)
REMARK    1  A    between atoms: C_2  and  C_4
REMARK    2  A    between atoms: C_5  and  C_6
REMARK    3  A    between atoms: N_8  and  C_9
REMARK    4  A    between atoms: C_15  and  C_16
REMARK    5  A    between atoms: C_22  and  C_23
REMARK    6  A    between atoms: N_30  and  C_31
REMARK    7  A    between atoms: C_31  and  C_32
REMARK    8  A    between atoms: C_32  and  C_33
REMARK    9  A    between atoms: C_33  and  C_35
REMARK   10  A    between atoms: C_35  and  C_36
REMARK   11  A    between atoms: C_36  and  C_38
REMARK   12  A    between atoms: C_38  and  C_39
REMARK                            x       y       z     vdW  Elec       q    Type
REMARK                         _______ _______ _______ _____ _____    ______ ____
ROOT
ATOM      1  C   UNL     1     -10.722  10.547  68.885  0.00  0.00    +0.041 A 
ATOM      2  N   UNL     1     -10.549  10.013  67.650  0.00  0.00    -0.330 N 
ATOM      3  C   UNL     1     -10.405  11.044  66.783  0.00  0.00    +0.060 A 
ATOM      4  C   UNL     1     -10.755  12.234  67.414  0.00  0.00    +0.021 A 
ATOM      5  C   UNL     1     -11.169  11.847  68.684  0.00  0.00    +0.068 A 
ENDROOT
BRANCH   3   6
ATOM      6  C   UNL     1      -9.673  10.870  65.524  0.00  0.00    +0.016 A 
ATOM      7  C   UNL     1      -8.312  10.615  65.481  0.00  0.00    +0.004 A 
ATOM      8  C   UNL     1      -7.788   9.841  64.451  0.00  0.00    +0.030 A 
ATOM      9  C   UNL     1      -8.602   9.432  63.423  0.00  0.00    +0.140 A 
ATOM     10  F   UNL     1      -8.418   8.260  62.747  0.00  0.00    -0.204 F 
ATOM     11  C   UNL     1      -9.744  10.195  63.211  0.00  0.00    +0.030 A 
ATOM     12  C   UNL     1     -10.314  10.850  64.293  0.00  0.00    +0.004 A 
ENDBRANCH   3   6
BRANCH   4  13
ATOM     13  C   UNL     1     -10.320  13.575  67.005  0.00  0.00    +0.002 A 
ATOM     14  C   UNL     1      -9.087  14.022  67.465  0.00  0.00    +0.000 A 
ATOM     15  C   UNL     1      -8.471  15.093  66.828  0.00  0.00    +0.000 A 
ATOM     16  C   UNL     1      -9.344  16.085  66.397  0.00  0.00    +0.000 A 
ATOM     17  C   UNL     1     -10.602  15.674  65.977  0.00  0.00    +0.000 A 
ATOM     18  C   UNL     1     -10.956  14.337  66.071  0.00  0.00    +0.000 A 
ENDBRANCH   4  13
BRANCH   1  20
ATOM     19  C   UNL     1     -10.028   9.760  70.224  0.00  0.00    +0.006 C 
ATOM     20  C   UNL     1     -10.350   9.954  70.202  0.00  0.00    +0.038 C 
ATOM     21  C   UNL     1     -11.561   9.251  70.783  0.00  0.00    +0.006 C 
ENDBRANCH   1  20
BRANCH   5  22
ATOM     22  C   UNL     1     -11.712  12.736  69.719  0.00  0.00    +0.270 C 
ATOM     23  N   UNL     1     -12.084  14.085  69.409  0.00  0.00    -0.175 NA
ATOM     24  O   UNL     1     -12.442  12.205  70.613  0.00  0.00    -0.268 OA
BRANCH  23  25
ATOM     25  C   UNL     1     -12.435  14.904  70.533  0.00  0.00    +0.074 A 
ATOM     26  C   UNL     1     -13.767  15.139  70.855  0.00  0.00    +0.017 A 
ATOM     27  C   UNL     1     -14.134  15.212  72.194  0.00  0.00    +0.001 A 
ATOM     28  C   UNL     1     -13.157  15.254  73.180  0.00  0.00    +0.000 A 
ATOM     29  C   UNL     1     -11.872  15.559  72.756  0.00  0.00    +0.001 A 
ATOM     30  C   UNL     1     -11.501  15.374  71.432  0.00  0.00    +0.017 A 
ENDBRANCH  23  25
ENDBRANCH   5  22
BRANCH   2  31
ATOM     31  C   UNL     1     -10.709   8.605  67.395  0.00  0.00    +0.108 C 
BRANCH  31  32
ATOM     32  C   UNL     1      -9.418   7.846  67.339  0.00  0.00    +0.057 C 
BRANCH  32  33
ATOM     33  C   UNL     1      -9.964   6.297  67.650  0.00  0.00    +0.156 C 
ATOM     34  O   UNL     1     -11.280   6.838  68.232  0.00  0.00    -0.223 OA
BRANCH  33  35
ATOM     35  C   UNL     1      -9.244   6.273  69.160  0.00  0.00    +0.066 C 
BRANCH  35  36
ATOM     36  C   UNL     1     -10.627   5.686  69.898  0.00  0.00    +0.166 C 
ATOM     37  O   UNL     1     -10.060   4.257  69.891  0.00  0.00    -0.222 OA
BRANCH  36  38
ATOM     38  C   UNL     1     -10.014   5.967  71.426  0.00  0.00    +0.147 C 
BRANCH  38  39
ATOM     39  C   UNL     1     -11.201   5.692  72.276  0.00  0.00    +0.367 C 
ATOM     40  O   UNL     1     -11.177   4.728  73.284  0.00  0.00    -0.246 OA
ATOM     41  O   UNL     1     -12.324   6.138  71.923  0.00  0.00    -0.246 OA
ENDBRANCH  38  39
ENDBRANCH  36  38
ENDBRANCH  35  36
ENDBRANCH  33  35
ENDBRANCH  32  33
ENDBRANCH  31  32
ENDBRANCH   2  31
TORSDOF 12
ENDMDL
MODEL 8
REMARK VINA RESULT:      -6.8      2.547      7.581
REMARK  Name = 
REMARK  12 active torsions:
REMARK  status: ('A' for Active; 'I' for Inactive)
REMARK    1  A    between atoms: C_2  and  C_4
REMARK    2  A    between atoms: C_5  and  C_6
REMARK    3  A    between atoms: N_8  and  C_9
REMARK    4  A    between atoms: C_15  and  C_16
REMARK    5  A    between atoms: C_22  and  C_23
REMARK    6  A    between atoms: N_30  and  C_31
REMARK    7  A    between atoms: C_31  and  C_32
REMARK    8  A    between atoms: C_32  and  C_33
REMARK    9  A    between atoms: C_33  and  C_35
REMARK   10  A    between atoms: C_35  and  C_36
REMARK   11  A    between atoms: C_36  and  C_38
REMARK   12  A    between atoms: C_38  and  C_39
REMARK                            x       y       z     vdW  Elec       q    Type
REMARK                         _______ _______ _______ _____ _____    ______ ____
ROOT
ATOM      1  C   UNL     1     -10.615  12.494  66.697  0.00  0.00    +0.041 A 
ATOM      2  N   UNL     1     -11.239  12.318  67.888  0.00  0.00    -0.330 N 
ATOM      3  C   UNL     1     -11.196  10.994  68.173  0.00  0.00    +0.060 A 
ATOM      4  C   UNL     1     -10.788  10.289  67.045  0.00  0.00    +0.021 A 
ATOM      5  C   UNL     1     -10.647  11.259  66.059  0.00  0.00    +0.068 A 
ENDROOT
BRANCH   3   6
ATOM      6  C   UNL     1     -11.258  10.522  69.561  0.00  0.00    +0.016 A 
ATOM      7  C   UNL     1     -12.438  10.487  70.285  0.00  0.00    +0.004 A 
ATOM      8  C   UNL     1     -12.626   9.504  71.251  0.00  0.00    +0.030 A 
ATOM      9  C   UNL     1     -11.598   8.646  71.559  0.00  0.00    +0.140 A 
ATOM     10  F   UNL     1     -11.798   7.360  71.970  0.00  0.00    -0.204 F 
ATOM     11  C   UNL     1     -10.318   9.099  71.265  0.00  0.00    +0.030 A 
ATOM     12  C   UNL     1     -10.154   9.984  70.207  0.00  0.00    +0.004 A 
ENDBRANCH   3   6
BRANCH   4  13
ATOM     13  C   UNL     1     -10.188   8.950  67.049  0.00  0.00    +0.002 A 
ATOM     14  C   UNL     1      -8.816   8.858  67.247  0.00  0.00    +0.000 A 
ATOM     15  C   UNL     1      -8.263   7.640  67.626  0.00  0.00    +0.000 A 
ATOM     16  C   UNL     1      -8.858   6.531  67.035  0.00  0.00    +0.000 A 
ATOM     17  C   UNL     1     -10.221   6.611  66.779  0.00  0.00    +0.000 A 
ATOM     18  C   UNL     1     -10.902   7.789  67.045  0.00  0.00    +0.000 A 
ENDBRANCH   4  13
BRANCH   1  20
ATOM     19  C   UNL     1      -9.869  13.764  65.844  0.00  0.00    +0.006 C 
ATOM     20  C   UNL     1      -9.877  13.698  66.215  0.00  0.00    +0.038 C 
ATOM     21  C   UNL     1      -8.528  13.754  66.903  0.00  0.00    +0.006 C 
ENDBRANCH   1  20
BRANCH   5  22
ATOM     22  C   UNL     1     -10.303  11.013  64.653  0.00  0.00    +0.270 C 
ATOM     23  N   UNL     1      -9.274  10.079  64.300  0.00  0.00    -0.175 NA
ATOM     24  O   UNL     1     -11.250  11.062  63.809  0.00  0.00    -0.268 OA
BRANCH  23  25
ATOM     25  C   UNL     1      -8.911  10.054  62.914  0.00  0.00    +0.074 A 
ATOM     26  C   UNL     1      -8.362  11.174  62.300  0.00  0.00    +0.017 A 
ATOM     27  C   UNL     1      -7.370  11.001  61.343  0.00  0.00    +0.001 A 
ATOM     28  C   UNL     1      -7.082   9.729  60.865  0.00  0.00    +0.000 A 
ATOM     29  C   UNL     1      -8.029   8.749  61.123  0.00  0.00    +0.001 A 
ATOM     30  C   UNL     1      -8.941   8.902  62.157  0.00  0.00    +0.017 A 
ENDBRANCH  23  25
ENDBRANCH   5  22
BRANCH   2  31
ATOM     31  C   UNL     1     -11.955  13.383  68.542  0.00  0.00    +0.108 C 
BRANCH  31  32
ATOM     32  C   UNL     1     -11.271  13.914  69.765  0.00  0.00    +0.057 C 
BRANCH  32  33
ATOM     33  C   UNL     1     -11.637  15.540  69.635  0.00  0.00    +0.156 C 
ATOM     34  O   UNL     1     -11.915  15.394  68.130  0.00  0.00    -0.223 OA
BRANCH  33  35
ATOM     35  C   UNL     1     -10.038  15.946  69.353  0.00  0.00    +0.066 C 
BRANCH  35  36
ATOM     36  C   UNL     1     -10.446  17.049  68.162  0.00  0.00    +0.166 C 
ATOM     37  O   UNL     1     -10.444  18.199  69.183  0.00  0.00    -0.222 OA
BRANCH  36  38
ATOM     38  C   UNL     1      -8.844  17.331  67.780  0.00  0.00    +0.147 C 
BRANCH  38  39
ATOM     39  C   UNL     1      -8.913  17.474  66.303  0.00  0.00    +0.367 C 
ATOM     40  O   UNL     1     -10.095  17.248  65.596  0.00  0.00    -0.246 OA
ATOM     41  O   UNL     1      -7.843  17.541  65.642  0.00  0.00    -0.246 OA
ENDBRANCH  38  39
ENDBRANCH  36  38
ENDBRANCH  35  36
ENDBRANCH  33  35
ENDBRANCH  32  33
ENDBRANCH  31  32
ENDBRANCH   2  31
TORSDOF 12
ENDMDL
MODEL 9
REMARK VINA RESULT:      -6.8      2.587      7.986
REMARK  Name = 
REMARK  12 active torsions:
REMARK  status: ('A' for Active; 'I' for Inactive)
REMARK    1  A    between atoms: C_2  and  C_4
REMARK    2  A    between atoms: C_5  and  C_6
REMARK    3  A    between atoms: N_8  and  C_9
REMARK    4  A    between atoms: C_15  and  C_16
REMARK    5  A    between atoms: C_22  and  C_23
REMARK    6  A    between atoms: N_30  and  C_31
REMARK    7  A    between atoms: C_31  and  C_32
REMARK    8  A    between atoms: C_32  and  C_33
REMARK    9  A    between atoms: C_33  and  C_35
REMARK   10  A    between atoms: C_35  and  C_36
REMARK   11  A    between atoms: C_36  and  C_38
REMARK   12  A    between atoms: C_38  and  C_39
REMARK                            x       y       z     vdW  Elec       q    Type
REMARK                         _______ _______ _______ _____ _____    ______ ____
ROOT
ATOM      1  C   UNL     1     -10.512  13.677  67.786  0.00  0.00    +0.041 A 
ATOM      2  N   UNL     1     -11.235  14.411  68.668  0.00  0.00    -0.330 N 
ATOM      3  C   UNL     1     -11.745  13.552  69.584  0.00  0.00    +0.060 A 
ATOM      4  C   UNL     1     -11.575  12.245  69.139  0.00  0.00    +0.021 A 
ATOM      5  C   UNL     1     -10.991  12.376  67.884  0.00  0.00    +0.068 A 
ENDROOT
BRANCH   3   6
ATOM      6  C   UNL     1     -12.086  14.009  70.935  0.00  0.00    +0.016 A 
ATOM      7  C   UNL     1     -11.439  15.069  71.550  0.00  0.00    +0.004 A 
ATOM      8  C   UNL     1     -12.134  15.875  72.445  0.00  0.00    +0.030 A 
ATOM      9  C   UNL     1     -13.420  15.549  72.800  0.00  0.00    +0.140 A 
ATOM     10  F   UNL     1     -14.362  16.481  73.127  0.00  0.00    -0.204 F 
ATOM     11  C   UNL     1     -13.775  14.215  72.644  0.00  0.00    +0.030 A 
ATOM     12  C   UNL     1     -13.149  13.475  71.650  0.00  0.00    +0.004 A 
ENDBRANCH   3   6
BRANCH   4  13
ATOM     13  C   UNL     1     -11.562  11.050  69.991  0.00  0.00    +0.002 A 
ATOM     14  C   UNL     1     -12.774  10.618  70.516  0.00  0.00    +0.000 A 
ATOM     15  C   UNL     1     -12.881   9.320  71.004  0.00  0.00    +0.000 A 
ATOM     16  C   UNL     1     -11.746   8.859  71.661  0.00  0.00    +0.000 A 
ATOM     17  C   UNL     1     -10.520   9.312  71.191  0.00  0.00    +0.000 A 
ATOM     18  C   UNL     1     -10.479  10.240  70.161  0.00  0.00    +0.000 A 
ENDBRANCH   4  13
BRANCH   1  20
ATOM     19  C   UNL     1      -9.298  13.986  66.635  0.00  0.00    +0.006 C 
ATOM     20  C   UNL     1      -9.324  14.105  66.992  0.00  0.00    +0.038 C 
ATOM     21  C   UNL     1      -8.076  13.898  67.826  0.00  0.00    +0.006 C 
ENDBRANCH   1  20
BRANCH   5  22
ATOM     22  C   UNL     1     -10.678  11.276  66.962  0.00  0.00    +0.270 C 
ATOM     23  N   UNL     1      -9.431  10.575  67.050  0.00  0.00    -0.175 NA
ATOM     24  O   UNL     1     -11.644  10.542  66.589  0.00  0.00    -0.268 OA
BRANCH  23  25
ATOM     25  C   UNL     1      -9.169   9.645  65.991  0.00  0.00    +0.074 A 
ATOM     26  C   UNL     1      -8.873  10.090  64.708  0.00  0.00    +0.017 A 
ATOM     27  C   UNL     1      -7.936   9.395  63.952  0.00  0.00    +0.001 A 
ATOM     28  C   UNL     1      -7.462   8.166  64.394  0.00  0.00    +0.000 A 
ATOM     29  C   UNL     1      -8.199   7.549  65.393  0.00  0.00    +0.001 A 
ATOM     30  C   UNL     1      -9.048   8.288  66.205  0.00  0.00    +0.017 A 
ENDBRANCH  23  25
ENDBRANCH   5  22
BRANCH   2  31
ATOM     31  C   UNL     1     -11.510  15.809  68.458  0.00  0.00    +0.108 C 
BRANCH  31  32
ATOM     32  C   UNL     1     -10.365  16.712  68.801  0.00  0.00    +0.057 C 
BRANCH  32  33
ATOM     33  C   UNL     1     -10.725  18.035  67.845  0.00  0.00    +0.156 C 
ATOM     34  O   UNL     1     -10.148  17.339  66.602  0.00  0.00    -0.223 OA
BRANCH  33  35
ATOM     35  C   UNL     1      -9.258  18.764  68.183  0.00  0.00    +0.066 C 
BRANCH  35  36
ATOM     36  C   UNL     1      -9.196  19.513  66.687  0.00  0.00    +0.166 C 
ATOM     37  O   UNL     1      -9.707  20.831  67.292  0.00  0.00    -0.222 OA
BRANCH  36  38
ATOM     38  C   UNL     1      -7.607  19.979  66.910  0.00  0.00    +0.147 C 
BRANCH  38  39
ATOM     39  C   UNL     1      -7.001  19.596  65.609  0.00  0.00    +0.367 C 
ATOM     40  O   UNL     1      -6.625  20.550  64.662  0.00  0.00    -0.246 OA
ATOM     41  O   UNL     1      -7.064  18.395  65.234  0.00  0.00    -0.246 OA
ENDBRANCH  38  39
ENDBRANCH  36  38
ENDBRANCH  35  36
ENDBRANCH  33  35
ENDBRANCH  32  33
ENDBRANCH  31  32
ENDBRANCH   2  31
TORSDOF 12
ENDMDL
