MODEL 1
REMARK VINA RESULT:      -3.5      0.000      0.000
REMARK  Name = 
REMARK  2 active torsions:
REMARK  status: ('A' for Active; 'I' for Inactive)
REMARK    1  A    between atoms: N_2  and  C_5
REMARK    2  A    between atoms: C_5  and  C_6
REMARK                            x       y       z     vdW  Elec       q    Type
REMARK                         _______ _______ _______ _____ _____    ______ ____
ROOT
ATOM      1  C   UNL     1     -11.452  14.750  67.227  0.00  0.00    +0.172 C 
ATOM      2  N   UNL     1     -10.807  13.902  66.277  0.00  0.00    +0.319 N 
ATOM      3  C   UNL     1     -11.586  12.675  66.116  0.00  0.00    +0.172 C 
ATOM      4  C   UNL     1      -9.506  13.491  66.783  0.00  0.00    +0.172 C 
ENDROOT
BRANCH   2   5
ATOM      5  C   UNL     1     -10.650  14.433  64.962  0.00  0.00    +0.225 C 
BRANCH   5   6
ATOM      6  C   UNL     1     -11.661  15.437  64.574  0.00  0.00    +0.420 C 
ATOM      7  O   UNL     1     -11.275  16.735  64.228  0.00  0.00    -0.239 OA
ATOM      8  O   UNL     1     -12.641  14.991  63.902  0.00  0.00    -0.239 OA
ENDBRANCH   5   6
ENDBRANCH   2   5
TORSDOF 2
ENDMDL
MODEL 2
REMARK VINA RESULT:      -3.5      1.152      1.466
REMARK  Name = 
REMARK  2 active torsions:
REMARK  status: ('A' for Active; 'I' for Inactive)
REMARK    1  A    between atoms: N_2  and  C_5
REMARK    2  A    between atoms: C_5  and  C_6
REMARK                            x       y       z     vdW  Elec       q    Type
REMARK                         _______ _______ _______ _____ _____    ______ ____
ROOT
ATOM      1  C   UNL     1     -11.600  14.645  67.254  0.00  0.00    +0.172 C 
ATOM      2  N   UNL     1     -11.362  13.980  66.014  0.00  0.00    +0.319 N 
ATOM      3  C   UNL     1     -12.640  13.711  65.356  0.00  0.00    +0.172 C 
ATOM      4  C   UNL     1     -10.750  12.682  66.256  0.00  0.00    +0.172 C 
ENDROOT
BRANCH   2   5
ATOM      5  C   UNL     1     -10.580  14.693  65.057  0.00  0.00    +0.225 C 
BRANCH   5   6
ATOM      6  C   UNL     1     -10.674  16.164  65.150  0.00  0.00    +0.420 C 
ATOM      7  O   UNL     1      -9.592  16.916  65.617  0.00  0.00    -0.239 OA
ATOM      8  O   UNL     1     -11.337  16.727  64.226  0.00  0.00    -0.239 OA
ENDBRANCH   5   6
ENDBRANCH   2   5
TORSDOF 2
ENDMDL
MODEL 3
REMARK VINA RESULT:      -3.4      1.320      2.324
REMARK  Name = 
REMARK  2 active torsions:
REMARK  status: ('A' for Active; 'I' for Inactive)
REMARK    1  A    between atoms: N_2  and  C_5
REMARK    2  A    between atoms: C_5  and  C_6
REMARK                            x       y       z     vdW  Elec       q    Type
REMARK                         _______ _______ _______ _____ _____    ______ ____
ROOT
ATOM      1  C   UNL     1     -10.501  13.373  64.625  0.00  0.00    +0.172 C 
ATOM      2  N   UNL     1     -11.315  13.778  65.725  0.00  0.00    +0.319 N 
ATOM      3  C   UNL     1     -11.020  12.934  66.882  0.00  0.00    +0.172 C 
ATOM      4  C   UNL     1     -12.718  13.559  65.411  0.00  0.00    +0.172 C 
ENDROOT
BRANCH   2   5
ATOM      5  C   UNL     1     -11.141  15.121  66.175  0.00  0.00    +0.225 C 
BRANCH   5   6
ATOM      6  C   UNL     1     -10.512  16.028  65.195  0.00  0.00    +0.420 C 
ATOM      7  O   UNL     1     -11.298  16.765  64.305  0.00  0.00    -0.239 OA
ATOM      8  O   UNL     1      -9.479  16.641  65.605  0.00  0.00    -0.239 OA
ENDBRANCH   5   6
ENDBRANCH   2   5
TORSDOF 2
ENDMDL
MODEL 4
REMARK VINA RESULT:      -3.4      0.697      1.696
REMARK  Name = 
REMARK  2 active torsions:
REMARK  status: ('A' for Active; 'I' for Inactive)
REMARK    1  A    between atoms: N_2  and  C_5
REMARK    2  A    between atoms: C_5  and  C_6
REMARK                            x       y       z     vdW  Elec       q    Type
REMARK                         _______ _______ _______ _____ _____    ______ ____
ROOT
ATOM      1  C   UNL     1     -10.050  12.773  66.616  0.00  0.00    +0.172 C 
ATOM      2  N   UNL     1     -10.325  14.123  66.242  0.00  0.00    +0.319 N 
ATOM      3  C   UNL     1      -9.180  14.964  66.588  0.00  0.00    +0.172 C 
ATOM      4  C   UNL     1     -11.449  14.632  67.012  0.00  0.00    +0.172 C 
ENDROOT
BRANCH   2   5
ATOM      5  C   UNL     1     -10.566  14.355  64.855  0.00  0.00    +0.225 C 
BRANCH   5   6
ATOM      6  C   UNL     1     -11.638  15.328  64.565  0.00  0.00    +0.420 C 
ATOM      7  O   UNL     1     -11.326  16.632  64.172  0.00  0.00    -0.239 OA
ATOM      8  O   UNL     1     -12.670  14.850  64.002  0.00  0.00    -0.239 OA
ENDBRANCH   5   6
ENDBRANCH   2   5
TORSDOF 2
ENDMDL
MODEL 5
REMARK VINA RESULT:      -3.3      1.546      2.534
REMARK  Name = 
REMARK  2 active torsions:
REMARK  status: ('A' for Active; 'I' for Inactive)
REMARK    1  A    between atoms: N_2  and  C_5
REMARK    2  A    between atoms: C_5  and  C_6
REMARK                            x       y       z     vdW  Elec       q    Type
REMARK                         _______ _______ _______ _____ _____    ______ ____
ROOT
ATOM      1  C   UNL     1     -10.084  13.276  66.181  0.00  0.00    +0.172 C 
ATOM      2  N   UNL     1     -11.220  13.639  66.965  0.00  0.00    +0.319 N 
ATOM      3  C   UNL     1     -10.853  14.720  67.879  0.00  0.00    +0.172 C 
ATOM      4  C   UNL     1     -11.624  12.521  67.802  0.00  0.00    +0.172 C 
ENDROOT
BRANCH   2   5
ATOM      5  C   UNL     1     -12.355  14.116  66.243  0.00  0.00    +0.225 C 
BRANCH   5   6
ATOM      6  C   UNL     1     -12.469  13.611  64.860  0.00  0.00    +0.420 C 
ATOM      7  O   UNL     1     -13.169  12.431  64.592  0.00  0.00    -0.239 OA
ATOM      8  O   UNL     1     -12.589  14.502  63.964  0.00  0.00    -0.239 OA
ENDBRANCH   5   6
ENDBRANCH   2   5
TORSDOF 2
ENDMDL
MODEL 6
REMARK VINA RESULT:      -3.3      5.377      6.340
REMARK  Name = 
REMARK  2 active torsions:
REMARK  status: ('A' for Active; 'I' for Inactive)
REMARK    1  A    between atoms: N_2  and  C_5
REMARK    2  A    between atoms: C_5  and  C_6
REMARK                            x       y       z     vdW  Elec       q    Type
REMARK                         _______ _______ _______ _____ _____    ______ ____
ROOT
ATOM      1  C   UNL     1     -13.531  13.243  72.365  0.00  0.00    +0.172 C 
ATOM      2  N   UNL     1     -13.095  14.601  72.295  0.00  0.00    +0.319 N 
ATOM      3  C   UNL     1     -12.671  15.042  73.624  0.00  0.00    +0.172 C 
ATOM      4  C   UNL     1     -14.205  15.461  71.918  0.00  0.00    +0.172 C 
ENDROOT
BRANCH   2   5
ATOM      5  C   UNL     1     -11.988  14.863  71.433  0.00  0.00    +0.225 C 
BRANCH   5   6
ATOM      6  C   UNL     1     -12.338  15.047  70.011  0.00  0.00    +0.420 C 
ATOM      7  O   UNL     1     -12.004  16.231  69.346  0.00  0.00    -0.239 OA
ATOM      8  O   UNL     1     -12.256  14.006  69.290  0.00  0.00    -0.239 OA
ENDBRANCH   5   6
ENDBRANCH   2   5
TORSDOF 2
ENDMDL
MODEL 7
REMARK VINA RESULT:      -3.3      6.810      7.756
REMARK  Name = 
REMARK  2 active torsions:
REMARK  status: ('A' for Active; 'I' for Inactive)
REMARK    1  A    between atoms: N_2  and  C_5
REMARK    2  A    between atoms: C_5  and  C_6
REMARK                            x       y       z     vdW  Elec       q    Type
REMARK                         _______ _______ _______ _____ _____    ______ ____
ROOT
ATOM      1  C   UNL     1     -12.596  14.252  70.685  0.00  0.00    +0.172 C 
ATOM      2  N   UNL     1     -13.302  14.147  71.921  0.00  0.00    +0.319 N 
ATOM      3  C   UNL     1     -13.658  12.748  72.158  0.00  0.00    +0.172 C 
ATOM      4  C   UNL     1     -14.557  14.876  71.840  0.00  0.00    +0.172 C 
ENDROOT
BRANCH   2   5
ATOM      5  C   UNL     1     -12.593  14.565  73.087  0.00  0.00    +0.225 C 
BRANCH   5   6
ATOM      6  C   UNL     1     -12.579  16.024  73.316  0.00  0.00    +0.420 C 
ATOM      7  O   UNL     1     -12.698  16.540  74.609  0.00  0.00    -0.239 OA
ATOM      8  O   UNL     1     -11.800  16.686  72.563  0.00  0.00    -0.239 OA
ENDBRANCH   5   6
ENDBRANCH   2   5
TORSDOF 2
ENDMDL
MODEL 8
REMARK VINA RESULT:      -3.2      1.270      1.860
REMARK  Name = 
REMARK  2 active torsions:
REMARK  status: ('A' for Active; 'I' for Inactive)
REMARK    1  A    between atoms: N_2  and  C_5
REMARK    2  A    between atoms: C_5  and  C_6
REMARK                            x       y       z     vdW  Elec       q    Type
REMARK                         _______ _______ _______ _____ _____    ______ ____
ROOT
ATOM      1  C   UNL     1     -11.276  13.925  67.866  0.00  0.00    +0.172 C 
ATOM      2  N   UNL     1     -11.365  13.414  66.536  0.00  0.00    +0.319 N 
ATOM      3  C   UNL     1     -11.379  11.953  66.579  0.00  0.00    +0.172 C 
ATOM      4  C   UNL     1     -10.180  13.786  65.780  0.00  0.00    +0.172 C 
ENDROOT
BRANCH   2   5
ATOM      5  C   UNL     1     -12.527  13.788  65.796  0.00  0.00    +0.225 C 
BRANCH   5   6
ATOM      6  C   UNL     1     -12.302  13.999  64.352  0.00  0.00    +0.420 C 
ATOM      7  O   UNL     1     -12.551  12.972  63.437  0.00  0.00    -0.239 OA
ATOM      8  O   UNL     1     -12.587  15.158  63.920  0.00  0.00    -0.239 OA
ENDBRANCH   5   6
ENDBRANCH   2   5
TORSDOF 2
ENDMDL
MODEL 9
REMARK VINA RESULT:      -3.1     10.102     10.779
REMARK  Name = 
REMARK  2 active torsions:
REMARK  status: ('A' for Active; 'I' for Inactive)
REMARK    1  A    between atoms: N_2  and  C_5
REMARK    2  A    between atoms: C_5  and  C_6
REMARK                            x       y       z     vdW  Elec       q    Type
REMARK                         _______ _______ _______ _____ _____    ______ ____
ROOT
ATOM      1  C   UNL     1      -4.257  18.722  69.881  0.00  0.00    +0.172 C 
ATOM      2  N   UNL     1      -4.712  20.057  69.664  0.00  0.00    +0.319 N 
ATOM      3  C   UNL     1      -6.096  20.177  70.119  0.00  0.00    +0.172 C 
ATOM      4  C   UNL     1      -4.727  20.352  68.240  0.00  0.00    +0.172 C 
ENDROOT
BRANCH   2   5
ATOM      5  C   UNL     1      -3.994  21.085  70.346  0.00  0.00    +0.225 C 
BRANCH   5   6
ATOM      6  C   UNL     1      -4.173  21.101  71.811  0.00  0.00    +0.420 C 
ATOM      7  O   UNL     1      -3.373  20.301  72.632  0.00  0.00    -0.239 OA
ATOM      8  O   UNL     1      -4.466  22.230  72.312  0.00  0.00    -0.239 OA
ENDBRANCH   5   6
ENDBRANCH   2   5
TORSDOF 2
ENDMDL
