MODEL 1
REMARK VINA RESULT:      -7.3      0.000      0.000
REMARK  Name = 
REMARK  9 active torsions:
REMARK  status: ('A' for Active; 'I' for Inactive)
REMARK    1  A    between atoms: C_2  and  C_3
REMARK    2  A    between atoms: C_5  and  O_6
REMARK    3  A    between atoms: O_6  and  C_7
REMARK    4  A    between atoms: C_8  and  C_9
REMARK    5  A    between atoms: C_12  and  O_13
REMARK    6  A    between atoms: O_13  and  C_14
REMARK    7  A    between atoms: C_15  and  O_16
REMARK    8  A    between atoms: O_16  and  C_17
REMARK    9  A    between atoms: C_19  and  C_20
REMARK                            x       y       z     vdW  Elec       q    Type
REMARK                         _______ _______ _______ _____ _____    ______ ____
ROOT
ATOM      1  O   UNL     1     -10.132  12.241  67.406  0.00  0.00    -0.326 OA
ENDROOT
BRANCH   1   2
ATOM      2  C   UNL     1      -9.846  13.520  68.083  0.00  0.00    +0.178 C 
ATOM      3  C   UNL     1     -11.482  13.817  68.397  0.00  0.00    +0.199 C 
ATOM      4  O   UNL     1     -11.423  15.307  68.308  0.00  0.00    -0.219 OA
ATOM      5  C   UNL     1     -12.390  13.709  66.952  0.00  0.00    +0.126 C 
ATOM      6  N   UNL     1     -11.969  12.291  66.476  0.00  0.00    -0.130 NA
ATOM      7  C   UNL     1     -11.486  14.631  66.076  0.00  0.00    +0.043 C 
ATOM      8  C   UNL     1     -10.156  14.169  65.393  0.00  0.00    +0.123 C 
ATOM      9  N   UNL     1     -10.142  12.604  65.348  0.00  0.00    -0.130 NA
ATOM     10  C   UNL     1      -9.182  14.403  66.796  0.00  0.00    +0.165 C 
BRANCH  10  11
ATOM     11  O   UNL     1      -9.678  15.810  67.054  0.00  0.00    -0.328 OA
BRANCH  11  12
ATOM     12  C   UNL     1      -8.474  16.501  66.396  0.00  0.00    +0.256 C 
ATOM     13  C   UNL     1      -7.642  16.986  67.813  0.00  0.00    +0.181 C 
ATOM     14  N   UNL     1      -8.535  16.442  68.944  0.00  0.00    -0.125 NA
ATOM     15  C   UNL     1      -8.015  18.608  68.121  0.00  0.00    +0.207 C 
ATOM     16  O   UNL     1      -7.782  19.162  66.729  0.00  0.00    -0.219 OA
ATOM     17  C   UNL     1      -9.697  18.847  68.150  0.00  0.00    +0.213 C 
ATOM     18  O   UNL     1     -10.125  17.758  69.082  0.00  0.00    -0.218 OA
ATOM     19  C   UNL     1     -10.289  18.055  66.761  0.00  0.00    +0.183 C 
ATOM     20  O   UNL     1      -9.048  17.831  66.032  0.00  0.00    -0.326 OA
BRANCH  19  21
ATOM     21  C   UNL     1     -10.385  19.556  66.063  0.00  0.00    +0.214 C 
ATOM     22  O   UNL     1     -11.096  19.536  64.954  0.00  0.00    -0.218 OA
ENDBRANCH  19  21
ENDBRANCH  11  12
ENDBRANCH  10  11
ENDBRANCH   1   2
BRANCH   1  26
ATOM     23  C   UNL     1      -8.406   9.038  68.141  0.00  0.00    +0.183 C 
ATOM     24  C   UNL     1      -9.213  10.010  66.994  0.00  0.00    +0.237 C 
ATOM     25  O   UNL     1     -10.532   9.313  66.950  0.00  0.00    -0.215 OA
ATOM     26  C   UNL     1      -9.711  11.076  68.247  0.00  0.00    +0.269 C 
ATOM     27  O   UNL     1      -8.212  11.419  68.273  0.00  0.00    -0.326 OA
ATOM     28  C   UNL     1      -8.285  10.304  69.284  0.00  0.00    +0.180 C 
BRANCH  28  29
ATOM     29  C   UNL     1      -6.665  10.213  69.518  0.00  0.00    +0.214 C 
ATOM     30  O   UNL     1      -6.698  10.214  70.921  0.00  0.00    -0.218 OA
ENDBRANCH  28  29
BRANCH  23  31
ATOM     31  O   UNL     1      -9.613   8.432  68.804  0.00  0.00    -0.326 OA
BRANCH  31  39
ATOM     32  C   UNL     1      -9.194   6.450  71.424  0.00  0.00    +0.170 C 
ATOM     33  C   UNL     1     -10.512   7.407  71.927  0.00  0.00    +0.212 C 
ATOM     34  O   UNL     1      -9.798   8.731  71.937  0.00  0.00    -0.218 OA
ATOM     35  C   UNL     1     -11.194   7.548  70.371  0.00  0.00    +0.207 C 
ATOM     36  O   UNL     1     -12.285   6.583  70.742  0.00  0.00    -0.219 OA
ATOM     37  C   UNL     1     -10.390   6.264  69.626  0.00  0.00    +0.181 C 
ATOM     38  N   UNL     1     -11.144   6.529  68.296  0.00  0.00    -0.125 NA
ATOM     39  C   UNL     1      -8.965   7.088  69.134  0.00  0.00    +0.256 C 
ATOM     40  O   UNL     1      -8.632   7.511  70.553  0.00  0.00    -0.328 OA
BRANCH  32  42
ATOM     41  N   UNL     1      -7.361   6.228  72.350  0.00  0.00    -0.129 NA
ATOM     42  C   UNL     1      -8.306   6.901  72.732  0.00  0.00    +0.142 C 
ENDBRANCH  32  42
ENDBRANCH  31  39
ENDBRANCH  23  31
ENDBRANCH   1  26
TORSDOF 9
ENDMDL
MODEL 2
REMARK VINA RESULT:      -7.2      2.433      9.612
REMARK  Name = 
REMARK  9 active torsions:
REMARK  status: ('A' for Active; 'I' for Inactive)
REMARK    1  A    between atoms: C_2  and  C_3
REMARK    2  A    between atoms: C_5  and  O_6
REMARK    3  A    between atoms: O_6  and  C_7
REMARK    4  A    between atoms: C_8  and  C_9
REMARK    5  A    between atoms: C_12  and  O_13
REMARK    6  A    between atoms: O_13  and  C_14
REMARK    7  A    between atoms: C_15  and  O_16
REMARK    8  A    between atoms: O_16  and  C_17
REMARK    9  A    between atoms: C_19  and  C_20
REMARK                            x       y       z     vdW  Elec       q    Type
REMARK                         _______ _______ _______ _____ _____    ______ ____
ROOT
ATOM      1  O   UNL     1      -9.754  13.372  67.897  0.00  0.00    -0.326 OA
ENDROOT
BRANCH   1   2
ATOM      2  C   UNL     1      -8.920  12.254  67.414  0.00  0.00    +0.178 C 
ATOM      3  C   UNL     1      -9.772  12.137  65.957  0.00  0.00    +0.199 C 
ATOM      4  O   UNL     1      -9.623  10.663  65.770  0.00  0.00    -0.219 OA
ATOM      5  C   UNL     1     -11.448  11.986  66.263  0.00  0.00    +0.126 C 
ATOM      6  N   UNL     1     -11.671  13.238  67.157  0.00  0.00    -0.130 NA
ATOM      7  C   UNL     1     -11.358  10.842  67.319  0.00  0.00    +0.043 C 
ATOM      8  C   UNL     1     -11.001  11.058  68.827  0.00  0.00    +0.123 C 
ATOM      9  N   UNL     1     -11.206  12.573  69.169  0.00  0.00    -0.130 NA
ATOM     10  C   UNL     1      -9.296  11.073  68.573  0.00  0.00    +0.165 C 
BRANCH  10  11
ATOM     11  O   UNL     1      -9.282   9.790  67.769  0.00  0.00    -0.328 OA
BRANCH  11  12
ATOM     12  C   UNL     1      -8.603   8.953  68.863  0.00  0.00    +0.256 C 
ATOM     13  C   UNL     1      -7.291   8.338  67.948  0.00  0.00    +0.181 C 
ATOM     14  N   UNL     1      -7.502   8.981  66.564  0.00  0.00    -0.125 NA
ATOM     15  C   UNL     1      -7.689   6.777  67.428  0.00  0.00    +0.207 C 
ATOM     16  O   UNL     1      -8.181   6.218  68.749  0.00  0.00    -0.219 OA
ATOM     17  C   UNL     1      -9.192   6.768  66.636  0.00  0.00    +0.213 C 
ATOM     18  O   UNL     1      -9.012   7.891  65.665  0.00  0.00    -0.218 OA
ATOM     19  C   UNL     1     -10.241   7.653  67.649  0.00  0.00    +0.183 C 
ATOM     20  O   UNL     1      -9.444   7.718  68.866  0.00  0.00    -0.326 OA
BRANCH  19  21
ATOM     21  C   UNL     1     -10.831   6.189  68.157  0.00  0.00    +0.214 C 
ATOM     22  O   UNL     1     -11.511   6.298  69.280  0.00  0.00    -0.218 OA
ENDBRANCH  19  21
ENDBRANCH  11  12
ENDBRANCH  10  11
ENDBRANCH   1   2
BRANCH   1  26
ATOM     23  C   UNL     1      -7.951  16.498  68.768  0.00  0.00    +0.183 C 
ATOM     24  C   UNL     1      -9.079  15.306  69.238  0.00  0.00    +0.237 C 
ATOM     25  O   UNL     1     -10.350  16.066  69.050  0.00  0.00    -0.215 OA
ATOM     26  C   UNL     1      -9.098  14.692  67.632  0.00  0.00    +0.269 C 
ATOM     27  O   UNL     1      -7.672  14.249  68.001  0.00  0.00    -0.326 OA
ATOM     28  C   UNL     1      -7.422  15.610  67.407  0.00  0.00    +0.180 C 
BRANCH  28  29
ATOM     29  C   UNL     1      -5.821  15.633  67.760  0.00  0.00    +0.214 C 
ATOM     30  O   UNL     1      -5.555  14.298  67.418  0.00  0.00    -0.218 OA
ENDBRANCH  28  29
BRANCH  23  31
ATOM     31  O   UNL     1      -8.875  17.367  67.958  0.00  0.00    -0.326 OA
BRANCH  31  39
ATOM     32  C   UNL     1      -7.579  20.324  67.221  0.00  0.00    +0.170 C 
ATOM     33  C   UNL     1      -8.071  19.774  65.684  0.00  0.00    +0.212 C 
ATOM     34  O   UNL     1      -7.163  18.578  65.605  0.00  0.00    -0.218 OA
ATOM     35  C   UNL     1      -9.451  18.952  66.257  0.00  0.00    +0.207 C 
ATOM     36  O   UNL     1     -10.345  20.026  65.703  0.00  0.00    -0.219 OA
ATOM     37  C   UNL     1      -9.582  19.699  67.764  0.00  0.00    +0.181 C 
ATOM     38  N   UNL     1     -10.856  18.877  68.092  0.00  0.00    -0.125 NA
ATOM     39  C   UNL     1      -8.533  18.677  68.664  0.00  0.00    +0.256 C 
ATOM     40  O   UNL     1      -7.357  18.954  67.746  0.00  0.00    -0.328 OA
BRANCH  32  42
ATOM     41  N   UNL     1      -5.924  21.556  67.316  0.00  0.00    -0.129 NA
ATOM     42  C   UNL     1      -6.025  20.498  66.712  0.00  0.00    +0.142 C 
ENDBRANCH  32  42
ENDBRANCH  31  39
ENDBRANCH  23  31
ENDBRANCH   1  26
TORSDOF 9
ENDMDL
MODEL 3
REMARK VINA RESULT:      -7.2      1.334      1.669
REMARK  Name = 
REMARK  9 active torsions:
REMARK  status: ('A' for Active; 'I' for Inactive)
REMARK    1  A    between atoms: C_2  and  C_3
REMARK    2  A    between atoms: C_5  and  O_6
REMARK    3  A    between atoms: O_6  and  C_7
REMARK    4  A    between atoms: C_8  and  C_9
REMARK    5  A    between atoms: C_12  and  O_13
REMARK    6  A    between atoms: O_13  and  C_14
REMARK    7  A    between atoms: C_15  and  O_16
REMARK    8  A    between atoms: O_16  and  C_17
REMARK    9  A    between atoms: C_19  and  C_20
REMARK                            x       y       z     vdW  Elec       q    Type
REMARK                         _______ _______ _______ _____ _____    ______ ____
ROOT
ATOM      1  O   UNL     1     -10.174  12.172  66.783  0.00  0.00    -0.326 OA
ENDROOT
BRANCH   1   2
ATOM      2  C   UNL     1      -9.892  13.332  67.651  0.00  0.00    +0.178 C 
ATOM      3  C   UNL     1     -11.529  13.569  68.008  0.00  0.00    +0.199 C 
ATOM      4  O   UNL     1     -11.476  15.055  68.152  0.00  0.00    -0.219 OA
ATOM      5  C   UNL     1     -12.438  13.685  66.564  0.00  0.00    +0.126 C 
ATOM      6  N   UNL     1     -12.012  12.360  65.873  0.00  0.00    -0.130 NA
ATOM      7  C   UNL     1     -11.538  14.735  65.843  0.00  0.00    +0.043 C 
ATOM      8  C   UNL     1     -10.207  14.391  65.095  0.00  0.00    +0.123 C 
ATOM      9  N   UNL     1     -10.188  12.852  64.807  0.00  0.00    -0.130 NA
ATOM     10  C   UNL     1      -9.232  14.407  66.517  0.00  0.00    +0.165 C 
BRANCH  10  11
ATOM     11  O   UNL     1      -9.734  15.755  66.992  0.00  0.00    -0.328 OA
BRANCH  11  12
ATOM     12  C   UNL     1      -8.533  16.544  66.449  0.00  0.00    +0.256 C 
ATOM     13  C   UNL     1      -7.788  16.948  67.939  0.00  0.00    +0.181 C 
ATOM     14  N   UNL     1      -8.707  16.279  68.979  0.00  0.00    -0.125 NA
ATOM     15  C   UNL     1      -8.247  18.523  68.354  0.00  0.00    +0.207 C 
ATOM     16  O   UNL     1      -7.975  19.196  67.023  0.00  0.00    -0.219 OA
ATOM     17  C   UNL     1      -9.937  18.690  68.320  0.00  0.00    +0.213 C 
ATOM     18  O   UNL     1     -10.358  17.514  69.141  0.00  0.00    -0.218 OA
ATOM     19  C   UNL     1     -10.430  17.989  66.846  0.00  0.00    +0.183 C 
ATOM     20  O   UNL     1      -9.148  17.875  66.163  0.00  0.00    -0.326 OA
BRANCH  19  21
ATOM     21  C   UNL     1     -10.560  19.537  66.264  0.00  0.00    +0.214 C 
ATOM     22  O   UNL     1     -10.937  19.555  65.002  0.00  0.00    -0.218 OA
ENDBRANCH  19  21
ENDBRANCH  11  12
ENDBRANCH  10  11
ENDBRANCH   1   2
BRANCH   1  26
ATOM     23  C   UNL     1      -7.826   9.405  67.561  0.00  0.00    +0.183 C 
ATOM     24  C   UNL     1      -8.381  10.546  66.420  0.00  0.00    +0.237 C 
ATOM     25  O   UNL     1      -9.171   9.652  65.525  0.00  0.00    -0.215 OA
ATOM     26  C   UNL     1      -9.732  10.894  67.425  0.00  0.00    +0.269 C 
ATOM     27  O   UNL     1      -8.649  11.520  68.319  0.00  0.00    -0.326 OA
ATOM     28  C   UNL     1      -8.702  10.111  68.849  0.00  0.00    +0.180 C 
BRANCH  28  29
ATOM     29  C   UNL     1      -7.438  10.293  69.878  0.00  0.00    +0.214 C 
ATOM     30  O   UNL     1      -7.983   9.561  70.944  0.00  0.00    -0.218 OA
ENDBRANCH  28  29
BRANCH  23  31
ATOM     31  O   UNL     1      -8.859   8.337  67.323  0.00  0.00    -0.326 OA
BRANCH  31  39
ATOM     32  C   UNL     1      -9.188   5.569  69.110  0.00  0.00    +0.170 C 
ATOM     33  C   UNL     1     -10.806   5.895  68.685  0.00  0.00    +0.212 C 
ATOM     34  O   UNL     1     -10.937   7.207  69.407  0.00  0.00    -0.218 OA
ATOM     35  C   UNL     1     -10.428   6.536  67.151  0.00  0.00    +0.207 C 
ATOM     36  O   UNL     1     -10.937   5.289  66.483  0.00  0.00    -0.219 OA
ATOM     37  C   UNL     1      -8.867   5.914  66.995  0.00  0.00    +0.181 C 
ATOM     38  N   UNL     1      -8.724   6.550  65.587  0.00  0.00    -0.125 NA
ATOM     39  C   UNL     1      -7.998   7.165  67.791  0.00  0.00    +0.256 C 
ATOM     40  O   UNL     1      -8.790   6.998  69.075  0.00  0.00    -0.328 OA
BRANCH  32  42
ATOM     41  N   UNL     1      -8.377   5.460  71.007  0.00  0.00    -0.129 NA
ATOM     42  C   UNL     1      -9.554   5.598  70.713  0.00  0.00    +0.142 C 
ENDBRANCH  32  42
ENDBRANCH  31  39
ENDBRANCH  23  31
ENDBRANCH   1  26
TORSDOF 9
ENDMDL
MODEL 4
REMARK VINA RESULT:      -7.1      1.412      2.074
REMARK  Name = 
REMARK  9 active torsions:
REMARK  status: ('A' for Active; 'I' for Inactive)
REMARK    1  A    between atoms: C_2  and  C_3
REMARK    2  A    between atoms: C_5  and  O_6
REMARK    3  A    between atoms: O_6  and  C_7
REMARK    4  A    between atoms: C_8  and  C_9
REMARK    5  A    between atoms: C_12  and  O_13
REMARK    6  A    between atoms: O_13  and  C_14
REMARK    7  A    between atoms: C_15  and  O_16
REMARK    8  A    between atoms: O_16  and  C_17
REMARK    9  A    between atoms: C_19  and  C_20
REMARK                            x       y       z     vdW  Elec       q    Type
REMARK                         _______ _______ _______ _____ _____    ______ ____
ROOT
ATOM      1  O   UNL     1     -10.242  12.320  67.018  0.00  0.00    -0.326 OA
ENDROOT
BRANCH   1   2
ATOM      2  C   UNL     1      -9.927  13.518  67.821  0.00  0.00    +0.178 C 
ATOM      3  C   UNL     1     -11.558  13.841  68.134  0.00  0.00    +0.199 C 
ATOM      4  O   UNL     1     -11.446  15.330  68.190  0.00  0.00    -0.219 OA
ATOM      5  C   UNL     1     -12.439  13.906  66.670  0.00  0.00    +0.126 C 
ATOM      6  N   UNL     1     -12.057  12.526  66.067  0.00  0.00    -0.130 NA
ATOM      7  C   UNL     1     -11.486  14.874  65.903  0.00  0.00    +0.043 C 
ATOM      8  C   UNL     1     -10.158  14.433  65.201  0.00  0.00    +0.123 C 
ATOM      9  N   UNL     1     -10.198  12.879  65.006  0.00  0.00    -0.130 NA
ATOM     10  C   UNL     1      -9.206  14.495  66.637  0.00  0.00    +0.165 C 
BRANCH  10  11
ATOM     11  O   UNL     1      -9.659  15.888  67.021  0.00  0.00    -0.328 OA
BRANCH  11  12
ATOM     12  C   UNL     1      -8.448  16.600  66.397  0.00  0.00    +0.256 C 
ATOM     13  C   UNL     1      -7.646  17.065  67.837  0.00  0.00    +0.181 C 
ATOM     14  N   UNL     1      -8.554  16.494  68.942  0.00  0.00    -0.125 NA
ATOM     15  C   UNL     1      -8.038  18.678  68.169  0.00  0.00    +0.207 C 
ATOM     16  O   UNL     1      -7.784  19.259  66.791  0.00  0.00    -0.219 OA
ATOM     17  C   UNL     1      -9.722  18.903  68.173  0.00  0.00    +0.213 C 
ATOM     18  O   UNL     1     -10.157  17.794  69.076  0.00  0.00    -0.218 OA
ATOM     19  C   UNL     1     -10.283  18.133  66.759  0.00  0.00    +0.183 C 
ATOM     20  O   UNL     1      -9.027  17.932  66.048  0.00  0.00    -0.326 OA
BRANCH  19  21
ATOM     21  C   UNL     1     -10.379  19.646  66.087  0.00  0.00    +0.214 C 
ATOM     22  O   UNL     1     -11.071  19.642  64.966  0.00  0.00    -0.218 OA
ENDBRANCH  19  21
ENDBRANCH  11  12
ENDBRANCH  10  11
ENDBRANCH   1   2
BRANCH   1  26
ATOM     23  C   UNL     1     -10.289   8.721  67.925  0.00  0.00    +0.183 C 
ATOM     24  C   UNL     1     -11.185  10.123  67.546  0.00  0.00    +0.237 C 
ATOM     25  O   UNL     1     -11.670  10.495  68.907  0.00  0.00    -0.215 OA
ATOM     26  C   UNL     1      -9.759  11.073  67.692  0.00  0.00    +0.269 C 
ATOM     27  O   UNL     1      -9.373  10.325  66.405  0.00  0.00    -0.326 OA
ATOM     28  C   UNL     1      -8.799   9.421  67.465  0.00  0.00    +0.180 C 
BRANCH  28  29
ATOM     29  C   UNL     1      -8.337   8.244  66.420  0.00  0.00    +0.214 C 
ATOM     30  O   UNL     1      -7.853   9.095  65.413  0.00  0.00    -0.218 OA
ENDBRANCH  28  29
BRANCH  23  31
ATOM     31  O   UNL     1     -10.068   8.991  69.389  0.00  0.00    -0.326 OA
BRANCH  31  39
ATOM     32  C   UNL     1      -9.052   6.192  70.838  0.00  0.00    +0.170 C 
ATOM     33  C   UNL     1      -7.766   7.252  71.202  0.00  0.00    +0.212 C 
ATOM     34  O   UNL     1      -7.317   7.505  69.790  0.00  0.00    -0.218 OA
ATOM     35  C   UNL     1      -8.754   8.632  71.360  0.00  0.00    +0.207 C 
ATOM     36  O   UNL     1      -8.602   8.595  72.854  0.00  0.00    -0.219 OA
ATOM     37  C   UNL     1     -10.242   7.858  71.549  0.00  0.00    +0.181 C 
ATOM     38  N   UNL     1     -10.963   9.223  71.706  0.00  0.00    -0.125 NA
ATOM     39  C   UNL     1     -10.665   7.678  69.893  0.00  0.00    +0.256 C 
ATOM     40  O   UNL     1      -9.402   6.896  69.580  0.00  0.00    -0.328 OA
BRANCH  32  42
ATOM     41  N   UNL     1      -8.962   4.386  69.841  0.00  0.00    -0.129 NA
ATOM     42  C   UNL     1      -8.034   5.138  70.093  0.00  0.00    +0.142 C 
ENDBRANCH  32  42
ENDBRANCH  31  39
ENDBRANCH  23  31
ENDBRANCH   1  26
TORSDOF 9
ENDMDL
MODEL 5
REMARK VINA RESULT:      -7.0      2.968      5.665
REMARK  Name = 
REMARK  9 active torsions:
REMARK  status: ('A' for Active; 'I' for Inactive)
REMARK    1  A    between atoms: C_2  and  C_3
REMARK    2  A    between atoms: C_5  and  O_6
REMARK    3  A    between atoms: O_6  and  C_7
REMARK    4  A    between atoms: C_8  and  C_9
REMARK    5  A    between atoms: C_12  and  O_13
REMARK    6  A    between atoms: O_13  and  C_14
REMARK    7  A    between atoms: C_15  and  O_16
REMARK    8  A    between atoms: O_16  and  C_17
REMARK    9  A    between atoms: C_19  and  C_20
REMARK                            x       y       z     vdW  Elec       q    Type
REMARK                         _______ _______ _______ _____ _____    ______ ____
ROOT
ATOM      1  O   UNL     1      -9.750  16.727  66.876  0.00  0.00    -0.326 OA
ENDROOT
BRANCH   1   2
ATOM      2  C   UNL     1      -8.326  16.904  67.223  0.00  0.00    +0.178 C 
ATOM      3  C   UNL     1      -8.687  17.437  68.788  0.00  0.00    +0.199 C 
ATOM      4  O   UNL     1      -7.532  18.372  68.939  0.00  0.00    -0.219 OA
ATOM      5  C   UNL     1      -9.801  18.734  68.728  0.00  0.00    +0.126 C 
ATOM      6  N   UNL     1     -10.930  18.077  67.887  0.00  0.00    -0.130 NA
ATOM      7  C   UNL     1      -9.055  19.592  67.662  0.00  0.00    +0.043 C 
ATOM      8  C   UNL     1      -9.119  19.335  66.119  0.00  0.00    +0.123 C 
ATOM      9  N   UNL     1     -10.360  18.426  65.824  0.00  0.00    -0.130 NA
ATOM     10  C   UNL     1      -7.895  18.121  66.122  0.00  0.00    +0.165 C 
BRANCH  10  11
ATOM     11  O   UNL     1      -6.902  18.954  66.905  0.00  0.00    -0.328 OA
BRANCH  11  12
ATOM     12  C   UNL     1      -5.658  18.301  66.283  0.00  0.00    +0.256 C 
ATOM     13  C   UNL     1      -4.458  19.030  67.264  0.00  0.00    +0.181 C 
ATOM     14  N   UNL     1      -5.283  19.900  68.232  0.00  0.00    -0.125 NA
ATOM     15  C   UNL     1      -3.811  20.349  66.423  0.00  0.00    +0.207 C 
ATOM     16  O   UNL     1      -3.565  19.668  65.091  0.00  0.00    -0.219 OA
ATOM     17  C   UNL     1      -5.043  21.390  65.890  0.00  0.00    +0.213 C 
ATOM     18  O   UNL     1      -5.825  21.578  67.151  0.00  0.00    -0.218 OA
ATOM     19  C   UNL     1      -6.212  20.377  65.174  0.00  0.00    +0.183 C 
ATOM     20  O   UNL     1      -5.456  19.136  65.061  0.00  0.00    -0.326 OA
BRANCH  19  21
ATOM     21  C   UNL     1      -5.586  20.848  63.712  0.00  0.00    +0.214 C 
ATOM     22  O   UNL     1      -5.897  20.003  62.751  0.00  0.00    -0.218 OA
ENDBRANCH  19  21
ENDBRANCH  11  12
ENDBRANCH  10  11
ENDBRANCH   1   2
BRANCH   1  26
ATOM     23  C   UNL     1     -11.808  13.647  66.651  0.00  0.00    +0.183 C 
ATOM     24  C   UNL     1     -11.414  15.055  67.530  0.00  0.00    +0.237 C 
ATOM     25  O   UNL     1     -10.597  14.455  68.625  0.00  0.00    -0.215 OA
ATOM     26  C   UNL     1     -10.047  15.304  66.517  0.00  0.00    +0.269 C 
ATOM     27  O   UNL     1     -11.132  15.616  65.473  0.00  0.00    -0.326 OA
ATOM     28  C   UNL     1     -10.931  14.137  65.269  0.00  0.00    +0.180 C 
BRANCH  28  29
ATOM     29  C   UNL     1     -12.151  13.971  64.185  0.00  0.00    +0.214 C 
ATOM     30  O   UNL     1     -12.335  15.339  63.930  0.00  0.00    -0.218 OA
ENDBRANCH  28  29
BRANCH  23  31
ATOM     31  O   UNL     1     -10.702  12.758  67.152  0.00  0.00    -0.326 OA
BRANCH  31  39
ATOM     32  C   UNL     1      -9.602   9.752  66.303  0.00  0.00    +0.170 C 
ATOM     33  C   UNL     1      -8.384  10.271  67.377  0.00  0.00    +0.212 C 
ATOM     34  O   UNL     1      -7.898  11.442  66.568  0.00  0.00    -0.218 OA
ATOM     35  C   UNL     1      -9.443  11.141  68.391  0.00  0.00    +0.207 C 
ATOM     36  O   UNL     1      -9.341  10.074  69.445  0.00  0.00    -0.219 OA
ATOM     37  C   UNL     1     -10.896  10.439  67.900  0.00  0.00    +0.181 C 
ATOM     38  N   UNL     1     -11.688  11.300  68.919  0.00  0.00    -0.125 NA
ATOM     39  C   UNL     1     -11.251  11.460  66.564  0.00  0.00    +0.256 C 
ATOM     40  O   UNL     1      -9.942  11.130  65.871  0.00  0.00    -0.328 OA
BRANCH  32  42
ATOM     41  N   UNL     1      -9.397   9.544  64.259  0.00  0.00    -0.129 NA
ATOM     42  C   UNL     1      -8.509   9.527  65.096  0.00  0.00    +0.142 C 
ENDBRANCH  32  42
ENDBRANCH  31  39
ENDBRANCH  23  31
ENDBRANCH   1  26
TORSDOF 9
ENDMDL
MODEL 6
REMARK VINA RESULT:      -6.9      2.056      9.410
REMARK  Name = 
REMARK  9 active torsions:
REMARK  status: ('A' for Active; 'I' for Inactive)
REMARK    1  A    between atoms: C_2  and  C_3
REMARK    2  A    between atoms: C_5  and  O_6
REMARK    3  A    between atoms: O_6  and  C_7
REMARK    4  A    between atoms: C_8  and  C_9
REMARK    5  A    between atoms: C_12  and  O_13
REMARK    6  A    between atoms: O_13  and  C_14
REMARK    7  A    between atoms: C_15  and  O_16
REMARK    8  A    between atoms: O_16  and  C_17
REMARK    9  A    between atoms: C_19  and  C_20
REMARK                            x       y       z     vdW  Elec       q    Type
REMARK                         _______ _______ _______ _____ _____    ______ ____
ROOT
ATOM      1  O   UNL     1     -10.195  12.804  67.834  0.00  0.00    -0.326 OA
ENDROOT
BRANCH   1   2
ATOM      2  C   UNL     1      -9.112  11.891  68.253  0.00  0.00    +0.178 C 
ATOM      3  C   UNL     1      -8.695  11.519  66.656  0.00  0.00    +0.199 C 
ATOM      4  O   UNL     1      -8.253  10.113  66.901  0.00  0.00    -0.219 OA
ATOM      5  C   UNL     1     -10.075  10.995  65.791  0.00  0.00    +0.126 C 
ATOM      6  N   UNL     1     -11.025  12.196  66.051  0.00  0.00    -0.130 NA
ATOM      7  C   UNL     1     -10.579   9.947  66.831  0.00  0.00    +0.043 C 
ATOM      8  C   UNL     1     -11.397  10.304  68.117  0.00  0.00    +0.123 C 
ATOM      9  N   UNL     1     -11.991  11.742  67.939  0.00  0.00    -0.130 NA
ATOM     10  C   UNL     1     -10.013  10.705  69.064  0.00  0.00    +0.165 C 
BRANCH  10  11
ATOM     11  O   UNL     1      -9.269   9.427  68.736  0.00  0.00    -0.328 OA
BRANCH  11  12
ATOM     12  C   UNL     1      -9.005   9.045  70.201  0.00  0.00    +0.256 C 
ATOM     13  C   UNL     1      -7.510   8.235  69.996  0.00  0.00    +0.181 C 
ATOM     14  N   UNL     1      -7.249   8.364  68.484  0.00  0.00    -0.125 NA
ATOM     15  C   UNL     1      -7.809   6.570  69.936  0.00  0.00    +0.207 C 
ATOM     16  O   UNL     1      -8.713   6.459  71.148  0.00  0.00    -0.219 OA
ATOM     17  C   UNL     1      -8.993   6.211  68.771  0.00  0.00    +0.213 C 
ATOM     18  O   UNL     1      -8.463   6.951  67.585  0.00  0.00    -0.218 OA
ATOM     19  C   UNL     1     -10.255   7.323  69.053  0.00  0.00    +0.183 C 
ATOM     20  O   UNL     1      -9.870   7.838  70.360  0.00  0.00    -0.326 OA
BRANCH  19  21
ATOM     21  C   UNL     1     -11.049   6.083  69.816  0.00  0.00    +0.214 C 
ATOM     22  O   UNL     1     -12.096   6.514  70.490  0.00  0.00    -0.218 OA
ENDBRANCH  19  21
ENDBRANCH  11  12
ENDBRANCH  10  11
ENDBRANCH   1   2
BRANCH   1  26
ATOM     23  C   UNL     1     -10.868  16.435  68.200  0.00  0.00    +0.183 C 
ATOM     24  C   UNL     1     -11.062  15.021  67.265  0.00  0.00    +0.237 C 
ATOM     25  O   UNL     1     -10.074  15.291  66.181  0.00  0.00    -0.215 OA
ATOM     26  C   UNL     1      -9.905  14.213  68.248  0.00  0.00    +0.269 C 
ATOM     27  O   UNL     1     -11.026  14.315  69.297  0.00  0.00    -0.326 OA
ATOM     28  C   UNL     1     -10.257  15.585  69.551  0.00  0.00    +0.180 C 
BRANCH  28  29
ATOM     29  C   UNL     1     -11.312  16.177  70.658  0.00  0.00    +0.214 C 
ATOM     30  O   UNL     1     -11.291  15.069  71.519  0.00  0.00    -0.218 OA
ENDBRANCH  28  29
BRANCH  23  31
ATOM     31  O   UNL     1      -9.501  16.833  67.715  0.00  0.00    -0.326 OA
BRANCH  31  39
ATOM     32  C   UNL     1      -7.402  19.289  68.445  0.00  0.00    +0.170 C 
ATOM     33  C   UNL     1      -6.447  18.316  67.421  0.00  0.00    +0.212 C 
ATOM     34  O   UNL     1      -6.412  17.091  68.293  0.00  0.00    -0.218 OA
ATOM     35  C   UNL     1      -7.744  17.831  66.427  0.00  0.00    +0.207 C 
ATOM     36  O   UNL     1      -7.266  18.737  65.328  0.00  0.00    -0.219 OA
ATOM     37  C   UNL     1      -8.853  19.029  66.856  0.00  0.00    +0.181 C 
ATOM     38  N   UNL     1      -9.897  18.456  65.862  0.00  0.00    -0.125 NA
ATOM     39  C   UNL     1      -9.552  18.270  68.230  0.00  0.00    +0.256 C 
ATOM     40  O   UNL     1      -8.213  18.146  68.933  0.00  0.00    -0.328 OA
BRANCH  32  42
ATOM     41  N   UNL     1      -6.599  20.284  70.067  0.00  0.00    -0.129 NA
ATOM     42  C   UNL     1      -6.303  19.170  69.661  0.00  0.00    +0.142 C 
ENDBRANCH  32  42
ENDBRANCH  31  39
ENDBRANCH  23  31
ENDBRANCH   1  26
TORSDOF 9
ENDMDL
MODEL 7
REMARK VINA RESULT:      -6.8      3.307      6.621
REMARK  Name = 
REMARK  9 active torsions:
REMARK  status: ('A' for Active; 'I' for Inactive)
REMARK    1  A    between atoms: C_2  and  C_3
REMARK    2  A    between atoms: C_5  and  O_6
REMARK    3  A    between atoms: O_6  and  C_7
REMARK    4  A    between atoms: C_8  and  C_9
REMARK    5  A    between atoms: C_12  and  O_13
REMARK    6  A    between atoms: O_13  and  C_14
REMARK    7  A    between atoms: C_15  and  O_16
REMARK    8  A    between atoms: O_16  and  C_17
REMARK    9  A    between atoms: C_19  and  C_20
REMARK                            x       y       z     vdW  Elec       q    Type
REMARK                         _______ _______ _______ _____ _____    ______ ____
ROOT
ATOM      1  O   UNL     1      -8.605  17.145  66.745  0.00  0.00    -0.326 OA
ENDROOT
BRANCH   1   2
ATOM      2  C   UNL     1      -7.143  16.945  66.701  0.00  0.00    +0.178 C 
ATOM      3  C   UNL     1      -6.957  17.324  68.339  0.00  0.00    +0.199 C 
ATOM      4  O   UNL     1      -5.601  17.943  68.236  0.00  0.00    -0.219 OA
ATOM      5  C   UNL     1      -7.683  18.834  68.683  0.00  0.00    +0.126 C 
ATOM      6  N   UNL     1      -9.114  18.574  68.138  0.00  0.00    -0.130 NA
ATOM      7  C   UNL     1      -7.030  19.641  67.519  0.00  0.00    +0.043 C 
ATOM      8  C   UNL     1      -7.538  19.622  66.038  0.00  0.00    +0.123 C 
ATOM      9  N   UNL     1      -9.003  19.066  66.028  0.00  0.00    -0.130 NA
ATOM     10  C   UNL     1      -6.703  18.174  65.616  0.00  0.00    +0.165 C 
BRANCH  10  11
ATOM     11  O   UNL     1      -5.368  18.643  66.155  0.00  0.00    -0.328 OA
BRANCH  11  12
ATOM     12  C   UNL     1      -4.804  19.047  64.785  0.00  0.00    +0.256 C 
ATOM     13  C   UNL     1      -3.576  17.860  64.646  0.00  0.00    +0.181 C 
ATOM     14  N   UNL     1      -3.738  17.040  65.940  0.00  0.00    -0.125 NA
ATOM     15  C   UNL     1      -2.106  18.555  65.115  0.00  0.00    +0.207 C 
ATOM     16  O   UNL     1      -2.192  19.833  64.303  0.00  0.00    -0.219 OA
ATOM     17  C   UNL     1      -2.242  19.282  66.645  0.00  0.00    +0.213 C 
ATOM     18  O   UNL     1      -2.868  18.176  67.433  0.00  0.00    -0.218 OA
ATOM     19  C   UNL     1      -3.673  20.207  66.580  0.00  0.00    +0.183 C 
ATOM     20  O   UNL     1      -3.928  20.202  65.145  0.00  0.00    -0.326 OA
BRANCH  19  21
ATOM     21  C   UNL     1      -2.695  21.529  66.364  0.00  0.00    +0.214 C 
ATOM     22  O   UNL     1      -3.332  22.517  65.768  0.00  0.00    -0.218 OA
ENDBRANCH  19  21
ENDBRANCH  11  12
ENDBRANCH  10  11
ENDBRANCH   1   2
BRANCH   1  26
ATOM     23  C   UNL     1     -11.483  14.801  66.782  0.00  0.00    +0.183 C 
ATOM     24  C   UNL     1     -10.618  16.034  67.585  0.00  0.00    +0.237 C 
ATOM     25  O   UNL     1      -9.916  15.222  68.622  0.00  0.00    -0.215 OA
ATOM     26  C   UNL     1      -9.335  15.870  66.453  0.00  0.00    +0.269 C 
ATOM     27  O   UNL     1     -10.371  16.485  65.496  0.00  0.00    -0.326 OA
ATOM     28  C   UNL     1     -10.629  15.011  65.316  0.00  0.00    +0.180 C 
BRANCH  28  29
ATOM     29  C   UNL     1     -11.936  15.208  64.346  0.00  0.00    +0.214 C 
ATOM     30  O   UNL     1     -11.605  16.489  63.877  0.00  0.00    -0.218 OA
ENDBRANCH  28  29
BRANCH  23  31
ATOM     31  O   UNL     1     -10.643  13.629  67.211  0.00  0.00    -0.326 OA
BRANCH  31  39
ATOM     32  C   UNL     1     -10.482  10.490  66.168  0.00  0.00    +0.170 C 
ATOM     33  C   UNL     1      -9.046  10.621  67.077  0.00  0.00    +0.212 C 
ATOM     34  O   UNL     1      -8.375  11.669  66.233  0.00  0.00    -0.218 OA
ATOM     35  C   UNL     1      -9.706  11.680  68.240  0.00  0.00    +0.207 C 
ATOM     36  O   UNL     1      -9.757  10.568  69.251  0.00  0.00    -0.219 OA
ATOM     37  C   UNL     1     -11.342  11.401  67.936  0.00  0.00    +0.181 C 
ATOM     38  N   UNL     1     -11.748  12.381  69.067  0.00  0.00    -0.125 NA
ATOM     39  C   UNL     1     -11.582  12.547  66.678  0.00  0.00    +0.256 C 
ATOM     40  O   UNL     1     -10.501  11.930  65.810  0.00  0.00    -0.328 OA
BRANCH  32  42
ATOM     41  N   UNL     1     -10.491  10.564  64.103  0.00  0.00    -0.129 NA
ATOM     42  C   UNL     1      -9.644  10.055  64.821  0.00  0.00    +0.142 C 
ENDBRANCH  32  42
ENDBRANCH  31  39
ENDBRANCH  23  31
ENDBRANCH   1  26
TORSDOF 9
ENDMDL
MODEL 8
REMARK VINA RESULT:      -6.7      2.070      9.238
REMARK  Name = 
REMARK  9 active torsions:
REMARK  status: ('A' for Active; 'I' for Inactive)
REMARK    1  A    between atoms: C_2  and  C_3
REMARK    2  A    between atoms: C_5  and  O_6
REMARK    3  A    between atoms: O_6  and  C_7
REMARK    4  A    between atoms: C_8  and  C_9
REMARK    5  A    between atoms: C_12  and  O_13
REMARK    6  A    between atoms: O_13  and  C_14
REMARK    7  A    between atoms: C_15  and  O_16
REMARK    8  A    between atoms: O_16  and  C_17
REMARK    9  A    between atoms: C_19  and  C_20
REMARK                            x       y       z     vdW  Elec       q    Type
REMARK                         _______ _______ _______ _____ _____    ______ ____
ROOT
ATOM      1  O   UNL     1      -9.413  12.887  67.373  0.00  0.00    -0.326 OA
ENDROOT
BRANCH   1   2
ATOM      2  C   UNL     1      -8.725  11.784  68.072  0.00  0.00    +0.178 C 
ATOM      3  C   UNL     1      -8.273  11.036  66.623  0.00  0.00    +0.199 C 
ATOM      4  O   UNL     1      -8.326   9.627  67.115  0.00  0.00    -0.219 OA
ATOM      5  C   UNL     1      -9.644  10.799  65.627  0.00  0.00    +0.126 C 
ATOM      6  N   UNL     1     -10.191  12.252  65.575  0.00  0.00    -0.130 NA
ATOM      7  C   UNL     1     -10.563  10.141  66.702  0.00  0.00    +0.043 C 
ATOM      8  C   UNL     1     -11.364  10.938  67.786  0.00  0.00    +0.123 C 
ATOM      9  N   UNL     1     -11.452  12.434  67.330  0.00  0.00    -0.130 NA
ATOM     10  C   UNL     1     -10.037  11.072  68.879  0.00  0.00    +0.165 C 
BRANCH  10  11
ATOM     11  O   UNL     1      -9.701   9.596  68.842  0.00  0.00    -0.328 OA
BRANCH  11  12
ATOM     12  C   UNL     1      -9.087   9.563  70.250  0.00  0.00    +0.256 C 
ATOM     13  C   UNL     1      -8.518   7.947  70.250  0.00  0.00    +0.181 C 
ATOM     14  N   UNL     1      -8.906   7.441  68.848  0.00  0.00    -0.125 NA
ATOM     15  C   UNL     1      -9.653   6.982  71.054  0.00  0.00    +0.207 C 
ATOM     16  O   UNL     1      -9.853   7.847  72.284  0.00  0.00    -0.219 OA
ATOM     17  C   UNL     1     -11.206   7.204  70.401  0.00  0.00    +0.213 C 
ATOM     18  O   UNL     1     -10.931   7.031  68.942  0.00  0.00    -0.218 OA
ATOM     19  C   UNL     1     -11.410   8.893  70.285  0.00  0.00    +0.183 C 
ATOM     20  O   UNL     1     -10.295   9.352  71.102  0.00  0.00    -0.326 OA
BRANCH  19  21
ATOM     21  C   UNL     1     -12.326   8.781  71.663  0.00  0.00    +0.214 C 
ATOM     22  O   UNL     1     -12.963   9.905  71.920  0.00  0.00    -0.218 OA
ENDBRANCH  19  21
ENDBRANCH  11  12
ENDBRANCH  10  11
ENDBRANCH   1   2
BRANCH   1  26
ATOM     23  C   UNL     1      -8.513  16.090  69.019  0.00  0.00    +0.183 C 
ATOM     24  C   UNL     1      -9.726  14.943  68.664  0.00  0.00    +0.237 C 
ATOM     25  O   UNL     1     -10.469  15.675  67.597  0.00  0.00    -0.215 OA
ATOM     26  C   UNL     1      -8.674  14.179  67.539  0.00  0.00    +0.269 C 
ATOM     27  O   UNL     1      -7.924  13.780  68.821  0.00  0.00    -0.326 OA
ATOM     28  C   UNL     1      -7.249  15.080  68.468  0.00  0.00    +0.180 C 
BRANCH  28  29
ATOM     29  C   UNL     1      -6.332  15.143  69.825  0.00  0.00    +0.214 C 
ATOM     30  O   UNL     1      -5.877  13.816  69.783  0.00  0.00    -0.218 OA
ENDBRANCH  28  29
BRANCH  23  31
ATOM     31  O   UNL     1      -8.570  16.874  67.735  0.00  0.00    -0.326 OA
BRANCH  31  39
ATOM     32  C   UNL     1      -7.045  19.749  68.346  0.00  0.00    +0.170 C 
ATOM     33  C   UNL     1      -6.071  19.103  67.105  0.00  0.00    +0.212 C 
ATOM     34  O   UNL     1      -5.588  17.888  67.849  0.00  0.00    -0.218 OA
ATOM     35  C   UNL     1      -7.361  18.347  66.285  0.00  0.00    +0.207 C 
ATOM     36  O   UNL     1      -7.317  19.396  65.209  0.00  0.00    -0.219 OA
ATOM     37  C   UNL     1      -8.639  19.199  66.984  0.00  0.00    +0.181 C 
ATOM     38  N   UNL     1      -9.666  18.425  66.118  0.00  0.00    -0.125 NA
ATOM     39  C   UNL     1      -8.883  18.224  68.378  0.00  0.00    +0.256 C 
ATOM     40  O   UNL     1      -7.454  18.415  68.851  0.00  0.00    -0.328 OA
BRANCH  32  42
ATOM     41  N   UNL     1      -6.438  20.437  70.197  0.00  0.00    -0.129 NA
ATOM     42  C   UNL     1      -5.757  19.860  69.363  0.00  0.00    +0.142 C 
ENDBRANCH  32  42
ENDBRANCH  31  39
ENDBRANCH  23  31
ENDBRANCH   1  26
TORSDOF 9
ENDMDL
MODEL 9
REMARK VINA RESULT:      -6.6      2.218      9.466
REMARK  Name = 
REMARK  9 active torsions:
REMARK  status: ('A' for Active; 'I' for Inactive)
REMARK    1  A    between atoms: C_2  and  C_3
REMARK    2  A    between atoms: C_5  and  O_6
REMARK    3  A    between atoms: O_6  and  C_7
REMARK    4  A    between atoms: C_8  and  C_9
REMARK    5  A    between atoms: C_12  and  O_13
REMARK    6  A    between atoms: O_13  and  C_14
REMARK    7  A    between atoms: C_15  and  O_16
REMARK    8  A    between atoms: O_16  and  C_17
REMARK    9  A    between atoms: C_19  and  C_20
REMARK                            x       y       z     vdW  Elec       q    Type
REMARK                         _______ _______ _______ _____ _____    ______ ____
ROOT
ATOM      1  O   UNL     1      -9.512  13.413  67.388  0.00  0.00    -0.326 OA
ENDROOT
BRANCH   1   2
ATOM      2  C   UNL     1      -8.809  12.292  68.043  0.00  0.00    +0.178 C 
ATOM      3  C   UNL     1      -8.242  11.678  66.572  0.00  0.00    +0.199 C 
ATOM      4  O   UNL     1      -8.251  10.234  66.956  0.00  0.00    -0.219 OA
ATOM      5  C   UNL     1      -9.543  11.455  65.484  0.00  0.00    +0.126 C 
ATOM      6  N   UNL     1     -10.158  12.881  65.507  0.00  0.00    -0.130 NA
ATOM      7  C   UNL     1     -10.485  10.676  66.453  0.00  0.00    +0.043 C 
ATOM      8  C   UNL     1     -11.383  11.351  67.543  0.00  0.00    +0.123 C 
ATOM      9  N   UNL     1     -11.521  12.872  67.194  0.00  0.00    -0.130 NA
ATOM     10  C   UNL     1     -10.126  11.462  68.718  0.00  0.00    +0.165 C 
BRANCH  10  11
ATOM     11  O   UNL     1      -9.715  10.010  68.593  0.00  0.00    -0.328 OA
BRANCH  11  12
ATOM     12  C   UNL     1     -10.620   9.515  69.732  0.00  0.00    +0.256 C 
ATOM     13  C   UNL     1      -9.408   9.113  70.874  0.00  0.00    +0.181 C 
ATOM     14  N   UNL     1      -8.105   9.493  70.147  0.00  0.00    -0.125 NA
ATOM     15  C   UNL     1      -9.125   7.446  70.786  0.00  0.00    +0.207 C 
ATOM     16  O   UNL     1     -10.564   6.971  70.823  0.00  0.00    -0.219 OA
ATOM     17  C   UNL     1      -8.800   6.972  69.187  0.00  0.00    +0.213 C 
ATOM     18  O   UNL     1      -7.748   7.963  68.802  0.00  0.00    -0.218 OA
ATOM     19  C   UNL     1     -10.012   7.711  68.242  0.00  0.00    +0.183 C 
ATOM     20  O   UNL     1     -10.943   8.128  69.282  0.00  0.00    -0.326 OA
BRANCH  19  21
ATOM     21  C   UNL     1     -10.761   6.231  68.217  0.00  0.00    +0.214 C 
ATOM     22  O   UNL     1     -11.173   5.911  67.007  0.00  0.00    -0.218 OA
ENDBRANCH  19  21
ENDBRANCH  11  12
ENDBRANCH  10  11
ENDBRANCH   1   2
BRANCH   1  26
ATOM     23  C   UNL     1      -8.571  16.641  68.959  0.00  0.00    +0.183 C 
ATOM     24  C   UNL     1      -9.803  15.513  68.612  0.00  0.00    +0.237 C 
ATOM     25  O   UNL     1     -10.506  16.230  67.509  0.00  0.00    -0.215 OA
ATOM     26  C   UNL     1      -8.746  14.692  67.533  0.00  0.00    +0.269 C 
ATOM     27  O   UNL     1      -8.032  14.314  68.842  0.00  0.00    -0.326 OA
ATOM     28  C   UNL     1      -7.320  15.587  68.465  0.00  0.00    +0.180 C 
BRANCH  28  29
ATOM     29  C   UNL     1      -6.430  15.669  69.840  0.00  0.00    +0.214 C 
ATOM     30  O   UNL     1      -6.225  14.289  69.990  0.00  0.00    -0.218 OA
ENDBRANCH  28  29
BRANCH  23  31
ATOM     31  O   UNL     1      -8.583  17.388  67.653  0.00  0.00    -0.326 OA
BRANCH  31  39
ATOM     32  C   UNL     1      -6.876  20.185  68.128  0.00  0.00    +0.170 C 
ATOM     33  C   UNL     1      -5.973  19.441  66.888  0.00  0.00    +0.212 C 
ATOM     34  O   UNL     1      -5.544  18.225  67.662  0.00  0.00    -0.218 OA
ATOM     35  C   UNL     1      -7.326  18.737  66.124  0.00  0.00    +0.207 C 
ATOM     36  O   UNL     1      -7.246  19.745  65.012  0.00  0.00    -0.219 OA
ATOM     37  C   UNL     1      -8.533  19.687  66.823  0.00  0.00    +0.181 C 
ATOM     38  N   UNL     1      -9.625  18.947  66.007  0.00  0.00    -0.125 NA
ATOM     39  C   UNL     1      -8.799  18.775  68.255  0.00  0.00    +0.256 C 
ATOM     40  O   UNL     1      -7.350  18.896  68.688  0.00  0.00    -0.328 OA
BRANCH  32  42
ATOM     41  N   UNL     1      -6.268  20.465  70.082  0.00  0.00    -0.129 NA
ATOM     42  C   UNL     1      -5.559  20.253  69.110  0.00  0.00    +0.142 C 
ENDBRANCH  32  42
ENDBRANCH  31  39
ENDBRANCH  23  31
ENDBRANCH   1  26
TORSDOF 9
ENDMDL
