MODEL 1
REMARK VINA RESULT:      -4.9      0.000      0.000
REMARK  Name = 
REMARK  1 active torsions:
REMARK  status: ('A' for Active; 'I' for Inactive)
REMARK    1  A    between atoms: C_4  and  C_5
REMARK                            x       y       z     vdW  Elec       q    Type
REMARK                         _______ _______ _______ _____ _____    ______ ____
ROOT
ATOM      1  C   UNL     1     -13.053  14.080  71.782  0.00  0.00    -0.021 A 
ATOM      2  C   UNL     1     -13.515  12.881  72.218  0.00  0.00    -0.004 A 
ATOM      3  C   UNL     1     -13.087  11.769  71.500  0.00  0.00    -0.000 A 
ATOM      4  C   UNL     1     -12.059  11.939  70.580  0.00  0.00    -0.000 A 
ATOM      5  C   UNL     1     -12.182  13.120  69.855  0.00  0.00    -0.000 A 
ATOM      6  C   UNL     1     -12.643  14.266  70.499  0.00  0.00    -0.004 A 
ENDROOT
BRANCH   1   9
ATOM      7  N   UNL     1     -12.723  16.389  74.692  0.00  0.00    -0.133 NA
ATOM      8  C   UNL     1     -12.235  15.171  73.805  0.00  0.00    +0.096 C 
ATOM      9  C   UNL     1     -13.465  15.393  72.622  0.00  0.00    +0.041 C 
ATOM     10  C   UNL     1     -11.936  16.146  72.428  0.00  0.00    +0.025 C 
ENDBRANCH   1   9
TORSDOF 1
ENDMDL
MODEL 2
REMARK VINA RESULT:      -4.4      2.806      4.135
REMARK  Name = 
REMARK  1 active torsions:
REMARK  status: ('A' for Active; 'I' for Inactive)
REMARK    1  A    between atoms: C_4  and  C_5
REMARK                            x       y       z     vdW  Elec       q    Type
REMARK                         _______ _______ _______ _____ _____    ______ ____
ROOT
ATOM      1  C   UNL     1     -12.415  15.513  70.862  0.00  0.00    -0.021 A 
ATOM      2  C   UNL     1     -11.832  16.275  71.822  0.00  0.00    -0.004 A 
ATOM      3  C   UNL     1     -12.203  15.986  73.132  0.00  0.00    -0.000 A 
ATOM      4  C   UNL     1     -12.923  14.820  73.367  0.00  0.00    -0.000 A 
ATOM      5  C   UNL     1     -13.891  14.586  72.396  0.00  0.00    -0.000 A 
ATOM      6  C   UNL     1     -13.604  14.888  71.066  0.00  0.00    -0.004 A 
ENDROOT
BRANCH   1   9
ATOM      7  N   UNL     1      -9.888  15.579  68.120  0.00  0.00    -0.133 NA
ATOM      8  C   UNL     1     -10.354  15.215  69.588  0.00  0.00    +0.096 C 
ATOM      9  C   UNL     1     -11.967  15.763  69.333  0.00  0.00    +0.041 C 
ATOM     10  C   UNL     1     -11.560  14.119  69.056  0.00  0.00    +0.025 C 
ENDBRANCH   1   9
TORSDOF 1
ENDMDL
MODEL 3
REMARK VINA RESULT:      -4.3      2.880      4.140
REMARK  Name = 
REMARK  1 active torsions:
REMARK  status: ('A' for Active; 'I' for Inactive)
REMARK    1  A    between atoms: C_4  and  C_5
REMARK                            x       y       z     vdW  Elec       q    Type
REMARK                         _______ _______ _______ _____ _____    ______ ____
ROOT
ATOM      1  C   UNL     1     -11.928  14.784  70.771  0.00  0.00    -0.021 A 
ATOM      2  C   UNL     1     -12.567  13.631  71.090  0.00  0.00    -0.004 A 
ATOM      3  C   UNL     1     -13.559  13.736  72.059  0.00  0.00    -0.000 A 
ATOM      4  C   UNL     1     -13.977  15.008  72.434  0.00  0.00    -0.000 A 
ATOM      5  C   UNL     1     -12.920  15.905  72.546  0.00  0.00    -0.000 A 
ATOM      6  C   UNL     1     -11.870  15.834  71.633  0.00  0.00    -0.004 A 
ENDROOT
BRANCH   1   9
ATOM      7  N   UNL     1     -10.836  14.123  67.267  0.00  0.00    -0.133 NA
ATOM      8  C   UNL     1     -11.948  14.299  68.380  0.00  0.00    +0.096 C 
ATOM      9  C   UNL     1     -10.816  14.728  69.604  0.00  0.00    +0.041 C 
ATOM     10  C   UNL     1     -11.570  15.947  68.660  0.00  0.00    +0.025 C 
ENDBRANCH   1   9
TORSDOF 1
ENDMDL
MODEL 4
REMARK VINA RESULT:      -4.2      1.685      3.003
REMARK  Name = 
REMARK  1 active torsions:
REMARK  status: ('A' for Active; 'I' for Inactive)
REMARK    1  A    between atoms: C_4  and  C_5
REMARK                            x       y       z     vdW  Elec       q    Type
REMARK                         _______ _______ _______ _____ _____    ______ ____
ROOT
ATOM      1  C   UNL     1     -12.018  14.308  70.054  0.00  0.00    -0.021 A 
ATOM      2  C   UNL     1     -11.704  15.260  69.141  0.00  0.00    -0.004 A 
ATOM      3  C   UNL     1     -11.613  14.828  67.822  0.00  0.00    -0.000 A 
ATOM      4  C   UNL     1     -12.077  13.553  67.517  0.00  0.00    -0.000 A 
ATOM      5  C   UNL     1     -11.741  12.616  68.488  0.00  0.00    -0.000 A 
ATOM      6  C   UNL     1     -11.771  12.990  69.830  0.00  0.00    -0.004 A 
ENDROOT
BRANCH   1   9
ATOM      7  N   UNL     1     -13.927  15.930  72.817  0.00  0.00    -0.133 NA
ATOM      8  C   UNL     1     -13.800  15.364  71.344  0.00  0.00    +0.096 C 
ATOM      9  C   UNL     1     -12.202  14.772  71.588  0.00  0.00    +0.041 C 
ATOM     10  C   UNL     1     -13.553  13.750  71.862  0.00  0.00    +0.025 C 
ENDBRANCH   1   9
TORSDOF 1
ENDMDL
MODEL 5
REMARK VINA RESULT:      -4.1      4.472      5.862
REMARK  Name = 
REMARK  1 active torsions:
REMARK  status: ('A' for Active; 'I' for Inactive)
REMARK    1  A    between atoms: C_4  and  C_5
REMARK                            x       y       z     vdW  Elec       q    Type
REMARK                         _______ _______ _______ _____ _____    ______ ____
ROOT
ATOM      1  C   UNL     1     -12.162   9.619  71.293  0.00  0.00    -0.021 A 
ATOM      2  C   UNL     1     -12.567  10.828  70.830  0.00  0.00    -0.004 A 
ATOM      3  C   UNL     1     -11.760  11.404  69.855  0.00  0.00    -0.000 A 
ATOM      4  C   UNL     1     -10.774  10.617  69.271  0.00  0.00    -0.000 A 
ATOM      5  C   UNL     1     -10.125   9.803  70.194  0.00  0.00    -0.000 A 
ATOM      6  C   UNL     1     -10.863   9.222  71.223  0.00  0.00    -0.004 A 
ENDROOT
BRANCH   1   9
ATOM      7  N   UNL     1     -15.304   7.895  72.323  0.00  0.00    -0.133 NA
ATOM      8  C   UNL     1     -14.334   8.509  71.233  0.00  0.00    +0.096 C 
ATOM      9  C   UNL     1     -13.100   8.877  72.376  0.00  0.00    +0.041 C 
ATOM     10  C   UNL     1     -13.085   7.378  71.542  0.00  0.00    +0.025 C 
ENDBRANCH   1   9
TORSDOF 1
ENDMDL
MODEL 6
REMARK VINA RESULT:      -4.1      4.745      6.263
REMARK  Name = 
REMARK  1 active torsions:
REMARK  status: ('A' for Active; 'I' for Inactive)
REMARK    1  A    between atoms: C_4  and  C_5
REMARK                            x       y       z     vdW  Elec       q    Type
REMARK                         _______ _______ _______ _____ _____    ______ ____
ROOT
ATOM      1  C   UNL     1     -11.751  13.525  66.680  0.00  0.00    -0.021 A 
ATOM      2  C   UNL     1     -11.997  14.115  67.877  0.00  0.00    -0.004 A 
ATOM      3  C   UNL     1     -11.711  13.347  69.001  0.00  0.00    -0.000 A 
ATOM      4  C   UNL     1     -10.988  12.173  68.825  0.00  0.00    -0.000 A 
ATOM      5  C   UNL     1     -11.382  11.468  67.692  0.00  0.00    -0.000 A 
ATOM      6  C   UNL     1     -11.722  12.174  66.539  0.00  0.00    -0.004 A 
ENDROOT
BRANCH   1   9
ATOM      7  N   UNL     1     -11.063  16.432  64.448  0.00  0.00    -0.133 NA
ATOM      8  C   UNL     1     -10.731  15.508  65.689  0.00  0.00    +0.096 C 
ATOM      9  C   UNL     1     -12.003  14.399  65.348  0.00  0.00    +0.041 C 
ATOM     10  C   UNL     1     -10.428  14.125  64.724  0.00  0.00    +0.025 C 
ENDBRANCH   1   9
TORSDOF 1
ENDMDL
MODEL 7
REMARK VINA RESULT:      -4.1      5.125      6.635
REMARK  Name = 
REMARK  1 active torsions:
REMARK  status: ('A' for Active; 'I' for Inactive)
REMARK    1  A    between atoms: C_4  and  C_5
REMARK                            x       y       z     vdW  Elec       q    Type
REMARK                         _______ _______ _______ _____ _____    ______ ____
ROOT
ATOM      1  C   UNL     1     -11.344  12.488  66.803  0.00  0.00    -0.021 A 
ATOM      2  C   UNL     1     -10.995  11.178  66.743  0.00  0.00    -0.004 A 
ATOM      3  C   UNL     1     -11.168  10.450  67.916  0.00  0.00    -0.000 A 
ATOM      4  C   UNL     1     -11.891  11.035  68.949  0.00  0.00    -0.000 A 
ATOM      5  C   UNL     1     -11.595  12.385  69.110  0.00  0.00    -0.000 A 
ATOM      6  C   UNL     1     -11.370  13.169  67.979  0.00  0.00    -0.004 A 
ENDROOT
BRANCH   1   9
ATOM      7  N   UNL     1     -12.416  13.403  63.351  0.00  0.00    -0.133 NA
ATOM      8  C   UNL     1     -12.610  12.637  64.723  0.00  0.00    +0.096 C 
ATOM      9  C   UNL     1     -11.226  13.358  65.451  0.00  0.00    +0.041 C 
ATOM     10  C   UNL     1     -12.772  14.079  65.636  0.00  0.00    +0.025 C 
ENDBRANCH   1   9
TORSDOF 1
ENDMDL
MODEL 8
REMARK VINA RESULT:      -4.1      5.111      6.649
REMARK  Name = 
REMARK  1 active torsions:
REMARK  status: ('A' for Active; 'I' for Inactive)
REMARK    1  A    between atoms: C_4  and  C_5
REMARK                            x       y       z     vdW  Elec       q    Type
REMARK                         _______ _______ _______ _____ _____    ______ ____
ROOT
ATOM      1  C   UNL     1     -11.534  12.291  65.832  0.00  0.00    -0.021 A 
ATOM      2  C   UNL     1     -10.648  11.272  65.697  0.00  0.00    -0.004 A 
ATOM      3  C   UNL     1     -10.385  10.867  64.392  0.00  0.00    -0.000 A 
ATOM      4  C   UNL     1     -10.841  11.670  63.352  0.00  0.00    -0.000 A 
ATOM      5  C   UNL     1     -12.116  12.174  63.587  0.00  0.00    -0.000 A 
ATOM      6  C   UNL     1     -12.464  12.563  64.879  0.00  0.00    -0.004 A 
ENDROOT
BRANCH   1   9
ATOM      7  N   UNL     1     -10.557  14.121  68.931  0.00  0.00    -0.133 NA
ATOM      8  C   UNL     1     -10.324  13.687  67.426  0.00  0.00    +0.096 C 
ATOM      9  C   UNL     1     -11.821  12.842  67.320  0.00  0.00    +0.041 C 
ATOM     10  C   UNL     1     -11.727  14.492  66.858  0.00  0.00    +0.025 C 
ENDBRANCH   1   9
TORSDOF 1
ENDMDL
MODEL 9
REMARK VINA RESULT:      -4.0      5.969      7.570
REMARK  Name = 
REMARK  1 active torsions:
REMARK  status: ('A' for Active; 'I' for Inactive)
REMARK    1  A    between atoms: C_4  and  C_5
REMARK                            x       y       z     vdW  Elec       q    Type
REMARK                         _______ _______ _______ _____ _____    ______ ____
ROOT
ATOM      1  C   UNL     1     -11.356  14.609  66.058  0.00  0.00    -0.021 A 
ATOM      2  C   UNL     1     -10.681  15.494  65.283  0.00  0.00    -0.004 A 
ATOM      3  C   UNL     1      -9.603  16.132  65.889  0.00  0.00    -0.000 A 
ATOM      4  C   UNL     1      -9.162  15.648  67.116  0.00  0.00    -0.000 A 
ATOM      5  C   UNL     1     -10.211  15.294  67.958  0.00  0.00    -0.000 A 
ATOM      6  C   UNL     1     -11.341  14.687  67.415  0.00  0.00    -0.004 A 
ENDROOT
BRANCH   1   9
ATOM      7  N   UNL     1     -12.768  12.282  63.509  0.00  0.00    -0.133 NA
ATOM      8  C   UNL     1     -11.558  12.982  64.250  0.00  0.00    +0.096 C 
ATOM      9  C   UNL     1     -12.572  13.793  65.380  0.00  0.00    +0.041 C 
ATOM     10  C   UNL     1     -11.913  12.256  65.761  0.00  0.00    +0.025 C 
ENDBRANCH   1   9
TORSDOF 1
ENDMDL
