MODEL 1
REMARK VINA RESULT:      -8.1      0.000      0.000
REMARK  Name = 
REMARK  4 active torsions:
REMARK  status: ('A' for Active; 'I' for Inactive)
REMARK    1  A    between atoms: C_8  and  C_9
REMARK    2  A    between atoms: C_9  and  C_10
REMARK    3  A    between atoms: C_10  and  N_11
REMARK    4  A    between atoms: C_14  and  C_15
REMARK                            x       y       z     vdW  Elec       q    Type
REMARK                         _______ _______ _______ _____ _____    ______ ____
ROOT
ATOM      1  N   UNL     1     -11.994  13.475  67.432  0.00  0.00    -0.272 NA
ATOM      2  C   UNL     1     -11.593  14.615  68.253  0.00  0.00    +0.072 C 
ATOM      3  C   UNL     1     -10.089  14.740  68.081  0.00  0.00    +0.023 C 
ATOM      4  C   UNL     1      -9.713  14.876  66.633  0.00  0.00    +0.046 C 
ATOM      5  C   UNL     1     -10.363  13.834  65.753  0.00  0.00    +0.023 C 
ATOM      6  C   UNL     1     -11.860  13.899  66.038  0.00  0.00    +0.072 C 
ENDROOT
BRANCH   4   7
ATOM      7  C   UNL     1     -10.219  16.198  66.150  0.00  0.00    +0.100 A 
ATOM      8  C   UNL     1      -9.893  17.429  66.696  0.00  0.00    +0.054 A 
ATOM      9  C   UNL     1     -10.368  18.361  65.780  0.00  0.00    +0.179 A 
ATOM     10  C   UNL     1     -10.576  19.643  66.229  0.00  0.00    +0.070 A 
ATOM     11  C   UNL     1     -10.064  20.043  67.456  0.00  0.00    +0.143 A 
ATOM     12  C   UNL     1      -9.719  19.127  68.415  0.00  0.00    +0.030 A 
ATOM     13  F   UNL     1      -9.779  21.355  67.627  0.00  0.00    -0.204 F 
ATOM     14  O   UNL     1     -10.969  17.721  64.800  0.00  0.00    -0.354 OA
ATOM     15  C   UNL     1      -9.593  17.809  67.992  0.00  0.00    +0.007 A 
ATOM     16  N   UNL     1     -11.001  16.450  65.073  0.00  0.00    -0.081 NA
ENDBRANCH   4   7
BRANCH   1  17
ATOM     17  C   UNL     1     -11.050  12.394  67.599  0.00  0.00    +0.077 C 
BRANCH  17  18
ATOM     18  C   UNL     1     -11.686  11.034  67.596  0.00  0.00    +0.050 C 
BRANCH  18  21
ATOM     19  C   UNL     1      -9.859   9.202  66.439  0.00  0.00    +0.052 C 
ATOM     20  C   UNL     1     -10.143   9.082  67.730  0.00  0.00    +0.061 A 
ATOM     21  C   UNL     1     -10.776  10.137  68.379  0.00  0.00    +0.049 A 
ATOM     22  C   UNL     1     -11.068   9.973  69.729  0.00  0.00    +0.259 A 
ATOM     23  O   UNL     1     -11.745  10.856  70.334  0.00  0.00    -0.267 OA
ATOM     24  N   UNL     1     -10.737   8.841  70.355  0.00  0.00    -0.282 N 
ATOM     25  C   UNL     1     -10.751   8.852  71.813  0.00  0.00    +0.110 C 
ATOM     26  C   UNL     1      -9.357   8.481  72.228  0.00  0.00    +0.028 C 
ATOM     27  C   UNL     1      -8.620   7.806  71.174  0.00  0.00    +0.043 C 
ATOM     28  C   UNL     1      -9.593   6.625  70.476  0.00  0.00    +0.208 C 
ATOM     29  O   UNL     1     -10.620   6.602  71.642  0.00  0.00    -0.215 OA
ATOM     30  C   UNL     1     -10.467   7.753  69.639  0.00  0.00    +0.153 A 
ATOM     31  N   UNL     1      -9.839   7.974  68.452  0.00  0.00    -0.234 NA
ENDBRANCH  18  21
ENDBRANCH  17  18
ENDBRANCH   1  17
TORSDOF 4
ENDMDL
MODEL 2
REMARK VINA RESULT:      -7.9      4.304      9.095
REMARK  Name = 
REMARK  4 active torsions:
REMARK  status: ('A' for Active; 'I' for Inactive)
REMARK    1  A    between atoms: C_8  and  C_9
REMARK    2  A    between atoms: C_9  and  C_10
REMARK    3  A    between atoms: C_10  and  N_11
REMARK    4  A    between atoms: C_14  and  C_15
REMARK                            x       y       z     vdW  Elec       q    Type
REMARK                         _______ _______ _______ _____ _____    ______ ____
ROOT
ATOM      1  N   UNL     1      -9.409  16.327  68.449  0.00  0.00    -0.272 NA
ATOM      2  C   UNL     1     -10.186  15.339  69.193  0.00  0.00    +0.072 C 
ATOM      3  C   UNL     1     -11.555  15.304  68.533  0.00  0.00    +0.023 C 
ATOM      4  C   UNL     1     -11.445  15.006  67.064  0.00  0.00    +0.046 C 
ATOM      5  C   UNL     1     -10.427  15.871  66.359  0.00  0.00    +0.023 C 
ATOM      6  C   UNL     1      -9.125  15.733  67.142  0.00  0.00    +0.072 C 
ENDROOT
BRANCH   4   7
ATOM      7  C   UNL     1     -10.965  13.598  66.918  0.00  0.00    +0.100 A 
ATOM      8  C   UNL     1     -10.732  12.951  65.714  0.00  0.00    +0.054 A 
ATOM      9  C   UNL     1     -10.058  11.786  66.062  0.00  0.00    +0.179 A 
ATOM     10  C   UNL     1     -10.069  10.753  65.156  0.00  0.00    +0.070 A 
ATOM     11  C   UNL     1     -10.488  10.974  63.851  0.00  0.00    +0.143 A 
ATOM     12  C   UNL     1     -11.267  12.054  63.529  0.00  0.00    +0.030 A 
ATOM     13  F   UNL     1      -9.987  10.176  62.880  0.00  0.00    -0.204 F 
ATOM     14  O   UNL     1      -9.951  11.736  67.372  0.00  0.00    -0.354 OA
ATOM     15  C   UNL     1     -11.338  13.069  64.476  0.00  0.00    +0.007 A 
ATOM     16  N   UNL     1     -10.596  12.735  67.895  0.00  0.00    -0.081 NA
ENDBRANCH   4   7
BRANCH   1  17
ATOM     17  C   UNL     1     -10.225  17.487  68.176  0.00  0.00    +0.077 C 
BRANCH  17  18
ATOM     18  C   UNL     1      -9.676  18.759  68.757  0.00  0.00    +0.050 C 
BRANCH  18  21
ATOM     19  C   UNL     1     -10.269  19.772  66.178  0.00  0.00    +0.052 C 
ATOM     20  C   UNL     1      -9.010  19.456  66.460  0.00  0.00    +0.061 A 
ATOM     21  C   UNL     1      -8.649  19.261  67.789  0.00  0.00    +0.049 A 
ATOM     22  C   UNL     1      -7.326  18.920  68.048  0.00  0.00    +0.259 A 
ATOM     23  O   UNL     1      -6.976  18.620  69.227  0.00  0.00    -0.267 OA
ATOM     24  N   UNL     1      -6.455  18.799  67.042  0.00  0.00    -0.282 N 
ATOM     25  C   UNL     1      -5.037  18.781  67.381  0.00  0.00    +0.110 C 
ATOM     26  C   UNL     1      -4.433  19.931  66.630  0.00  0.00    +0.028 C 
ATOM     27  C   UNL     1      -5.257  20.369  65.517  0.00  0.00    +0.043 C 
ATOM     28  C   UNL     1      -5.783  19.028  64.648  0.00  0.00    +0.208 C 
ATOM     29  O   UNL     1      -4.733  18.060  65.261  0.00  0.00    -0.215 OA
ATOM     30  C   UNL     1      -6.907  18.646  65.801  0.00  0.00    +0.153 A 
ATOM     31  N   UNL     1      -8.054  19.318  65.508  0.00  0.00    -0.234 NA
ENDBRANCH  18  21
ENDBRANCH  17  18
ENDBRANCH   1  17
TORSDOF 4
ENDMDL
MODEL 3
REMARK VINA RESULT:      -7.9      1.178      2.099
REMARK  Name = 
REMARK  4 active torsions:
REMARK  status: ('A' for Active; 'I' for Inactive)
REMARK    1  A    between atoms: C_8  and  C_9
REMARK    2  A    between atoms: C_9  and  C_10
REMARK    3  A    between atoms: C_10  and  N_11
REMARK    4  A    between atoms: C_14  and  C_15
REMARK                            x       y       z     vdW  Elec       q    Type
REMARK                         _______ _______ _______ _____ _____    ______ ____
ROOT
ATOM      1  N   UNL     1     -12.029  13.266  67.516  0.00  0.00    -0.272 NA
ATOM      2  C   UNL     1     -11.492  14.412  68.246  0.00  0.00    +0.072 C 
ATOM      3  C   UNL     1     -10.015  14.472  67.894  0.00  0.00    +0.023 C 
ATOM      4  C   UNL     1      -9.810  14.551  66.407  0.00  0.00    +0.046 C 
ATOM      5  C   UNL     1     -10.598  13.511  65.645  0.00  0.00    +0.023 C 
ATOM      6  C   UNL     1     -12.046  13.644  66.103  0.00  0.00    +0.072 C 
ENDROOT
BRANCH   4   7
ATOM      7  C   UNL     1     -10.321  15.877  65.944  0.00  0.00    +0.100 A 
ATOM      8  C   UNL     1      -9.998  17.102  66.506  0.00  0.00    +0.054 A 
ATOM      9  C   UNL     1     -10.479  18.045  65.605  0.00  0.00    +0.179 A 
ATOM     10  C   UNL     1     -10.690  19.320  66.072  0.00  0.00    +0.070 A 
ATOM     11  C   UNL     1     -10.177  19.705  67.303  0.00  0.00    +0.143 A 
ATOM     12  C   UNL     1      -9.827  18.777  68.249  0.00  0.00    +0.030 A 
ATOM     13  F   UNL     1      -9.896  21.015  67.493  0.00  0.00    -0.204 F 
ATOM     14  O   UNL     1     -11.079  17.417  64.617  0.00  0.00    -0.354 OA
ATOM     15  C   UNL     1      -9.697  17.465  67.807  0.00  0.00    +0.007 A 
ATOM     16  N   UNL     1     -11.106  16.142  64.872  0.00  0.00    -0.081 NA
ENDBRANCH   4   7
BRANCH   1  17
ATOM     17  C   UNL     1     -11.112  12.154  67.607  0.00  0.00    +0.077 C 
BRANCH  17  18
ATOM     18  C   UNL     1     -10.528  11.965  68.977  0.00  0.00    +0.050 C 
BRANCH  18  21
ATOM     19  C   UNL     1     -12.600  11.991  70.910  0.00  0.00    +0.052 C 
ATOM     20  C   UNL     1     -11.956  10.851  70.689  0.00  0.00    +0.061 A 
ATOM     21  C   UNL     1     -11.169  10.736  69.548  0.00  0.00    +0.049 A 
ATOM     22  C   UNL     1     -10.499   9.533  69.352  0.00  0.00    +0.259 A 
ATOM     23  O   UNL     1      -9.682   9.421  68.392  0.00  0.00    -0.267 OA
ATOM     24  N   UNL     1     -10.630   8.541  70.237  0.00  0.00    -0.282 N 
ATOM     25  C   UNL     1     -10.197   7.212  69.823  0.00  0.00    +0.110 C 
ATOM     26  C   UNL     1     -11.410   6.338  69.955  0.00  0.00    +0.028 C 
ATOM     27  C   UNL     1     -12.416   6.904  70.836  0.00  0.00    +0.043 C 
ATOM     28  C   UNL     1     -11.678   7.474  72.236  0.00  0.00    +0.208 C 
ATOM     29  O   UNL     1     -10.358   6.683  72.014  0.00  0.00    -0.215 OA
ATOM     30  C   UNL     1     -11.089   8.808  71.456  0.00  0.00    +0.153 A 
ATOM     31  N   UNL     1     -12.033   9.786  71.525  0.00  0.00    -0.234 NA
ENDBRANCH  18  21
ENDBRANCH  17  18
ENDBRANCH   1  17
TORSDOF 4
ENDMDL
MODEL 4
REMARK VINA RESULT:      -7.8      1.485      1.685
REMARK  Name = 
REMARK  4 active torsions:
REMARK  status: ('A' for Active; 'I' for Inactive)
REMARK    1  A    between atoms: C_8  and  C_9
REMARK    2  A    between atoms: C_9  and  C_10
REMARK    3  A    between atoms: C_10  and  N_11
REMARK    4  A    between atoms: C_14  and  C_15
REMARK                            x       y       z     vdW  Elec       q    Type
REMARK                         _______ _______ _______ _____ _____    ______ ____
ROOT
ATOM      1  N   UNL     1     -11.147  14.029  66.262  0.00  0.00    -0.272 NA
ATOM      2  C   UNL     1     -11.818  14.619  67.418  0.00  0.00    +0.072 C 
ATOM      3  C   UNL     1     -10.807  14.576  68.551  0.00  0.00    +0.023 C 
ATOM      4  C   UNL     1      -9.530  15.272  68.172  0.00  0.00    +0.046 C 
ATOM      5  C   UNL     1      -8.992  14.833  66.830  0.00  0.00    +0.023 C 
ATOM      6  C   UNL     1     -10.134  14.994  65.832  0.00  0.00    +0.072 C 
ENDROOT
BRANCH   4   7
ATOM      7  C   UNL     1      -9.826  16.732  68.041  0.00  0.00    +0.100 A 
ATOM      8  C   UNL     1      -8.904  17.710  67.704  0.00  0.00    +0.054 A 
ATOM      9  C   UNL     1      -9.667  18.843  67.446  0.00  0.00    +0.179 A 
ATOM     10  C   UNL     1      -9.034  20.061  67.504  0.00  0.00    +0.070 A 
ATOM     11  C   UNL     1      -7.647  20.125  67.537  0.00  0.00    +0.143 A 
ATOM     12  C   UNL     1      -6.896  19.046  67.922  0.00  0.00    +0.030 A 
ATOM     13  F   UNL     1      -7.051  21.234  67.041  0.00  0.00    -0.204 F 
ATOM     14  O   UNL     1     -10.933  18.558  67.663  0.00  0.00    -0.354 OA
ATOM     15  C   UNL     1      -7.548  17.819  67.955  0.00  0.00    +0.007 A 
ATOM     16  N   UNL     1     -11.026  17.353  68.140  0.00  0.00    -0.081 NA
ENDBRANCH   4   7
BRANCH   1  17
ATOM     17  C   UNL     1     -10.412  12.854  66.669  0.00  0.00    +0.077 C 
BRANCH  17  18
ATOM     18  C   UNL     1     -11.244  11.605  66.699  0.00  0.00    +0.050 C 
BRANCH  18  21
ATOM     19  C   UNL     1      -9.409   9.647  65.788  0.00  0.00    +0.052 C 
ATOM     20  C   UNL     1      -9.886   9.541  67.022  0.00  0.00    +0.061 A 
ATOM     21  C   UNL     1     -10.527  10.637  67.590  0.00  0.00    +0.049 A 
ATOM     22  C   UNL     1     -11.024  10.488  68.881  0.00  0.00    +0.259 A 
ATOM     23  O   UNL     1     -11.715  11.415  69.396  0.00  0.00    -0.267 OA
ATOM     24  N   UNL     1     -10.872   9.330  69.529  0.00  0.00    -0.282 N 
ATOM     25  C   UNL     1     -11.098   9.333  70.970  0.00  0.00    +0.110 C 
ATOM     26  C   UNL     1      -9.811   8.855  71.575  0.00  0.00    +0.028 C 
ATOM     27  C   UNL     1      -8.979   8.132  70.629  0.00  0.00    +0.043 C 
ATOM     28  C   UNL     1      -9.926   7.033  69.777  0.00  0.00    +0.208 C 
ATOM     29  O   UNL     1     -11.110   7.081  70.782  0.00  0.00    -0.215 OA
ATOM     30  C   UNL     1     -10.582   8.229  68.842  0.00  0.00    +0.153 A 
ATOM     31  N   UNL     1      -9.773   8.409  67.762  0.00  0.00    -0.234 NA
ENDBRANCH  18  21
ENDBRANCH  17  18
ENDBRANCH   1  17
TORSDOF 4
ENDMDL
MODEL 5
REMARK VINA RESULT:      -7.7      3.788      5.140
REMARK  Name = 
REMARK  4 active torsions:
REMARK  status: ('A' for Active; 'I' for Inactive)
REMARK    1  A    between atoms: C_8  and  C_9
REMARK    2  A    between atoms: C_9  and  C_10
REMARK    3  A    between atoms: C_10  and  N_11
REMARK    4  A    between atoms: C_14  and  C_15
REMARK                            x       y       z     vdW  Elec       q    Type
REMARK                         _______ _______ _______ _____ _____    ______ ____
ROOT
ATOM      1  N   UNL     1     -11.233  13.973  66.435  0.00  0.00    -0.272 NA
ATOM      2  C   UNL     1     -11.832  14.575  67.623  0.00  0.00    +0.072 C 
ATOM      3  C   UNL     1     -10.749  14.553  68.690  0.00  0.00    +0.023 C 
ATOM      4  C   UNL     1      -9.504  15.251  68.219  0.00  0.00    +0.046 C 
ATOM      5  C   UNL     1      -9.051  14.796  66.852  0.00  0.00    +0.023 C 
ATOM      6  C   UNL     1     -10.256  14.937  65.928  0.00  0.00    +0.072 C 
ENDROOT
BRANCH   4   7
ATOM      7  C   UNL     1      -9.817  16.707  68.088  0.00  0.00    +0.100 A 
ATOM      8  C   UNL     1      -8.910  17.695  67.739  0.00  0.00    +0.054 A 
ATOM      9  C   UNL     1      -9.688  18.819  67.486  0.00  0.00    +0.179 A 
ATOM     10  C   UNL     1      -9.067  20.044  67.536  0.00  0.00    +0.070 A 
ATOM     11  C   UNL     1      -7.681  20.123  67.554  0.00  0.00    +0.143 A 
ATOM     12  C   UNL     1      -6.914  19.053  67.934  0.00  0.00    +0.030 A 
ATOM     13  F   UNL     1      -7.102  21.237  67.049  0.00  0.00    -0.204 F 
ATOM     14  O   UNL     1     -10.948  18.521  67.718  0.00  0.00    -0.354 OA
ATOM     15  C   UNL     1      -7.552  17.819  67.975  0.00  0.00    +0.007 A 
ATOM     16  N   UNL     1     -11.023  17.315  68.199  0.00  0.00    -0.081 NA
ENDBRANCH   4   7
BRANCH   1  17
ATOM     17  C   UNL     1     -10.466  12.808  66.810  0.00  0.00    +0.077 C 
BRANCH  17  18
ATOM     18  C   UNL     1     -10.899  11.551  66.111  0.00  0.00    +0.050 C 
BRANCH  18  21
ATOM     19  C   UNL     1     -11.861  12.225  63.532  0.00  0.00    +0.052 C 
ATOM     20  C   UNL     1     -10.733  11.529  63.625  0.00  0.00    +0.061 A 
ATOM     21  C   UNL     1     -10.087  11.461  64.855  0.00  0.00    +0.049 A 
ATOM     22  C   UNL     1      -8.915  10.715  64.919  0.00  0.00    +0.259 A 
ATOM     23  O   UNL     1      -8.353  10.528  66.039  0.00  0.00    -0.267 OA
ATOM     24  N   UNL     1      -8.446  10.106  63.828  0.00  0.00    -0.282 N 
ATOM     25  C   UNL     1      -7.066   9.635  63.862  0.00  0.00    +0.110 C 
ATOM     26  C   UNL     1      -6.380  10.330  62.723  0.00  0.00    +0.028 C 
ATOM     27  C   UNL     1      -7.311  10.827  61.726  0.00  0.00    +0.043 C 
ATOM     28  C   UNL     1      -8.446   9.635  61.375  0.00  0.00    +0.208 C 
ATOM     29  O   UNL     1      -7.612   8.481  61.998  0.00  0.00    -0.215 OA
ATOM     30  C   UNL     1      -9.256   9.905  62.792  0.00  0.00    +0.153 A 
ATOM     31  N   UNL     1     -10.176  10.882  62.571  0.00  0.00    -0.234 NA
ENDBRANCH  18  21
ENDBRANCH  17  18
ENDBRANCH   1  17
TORSDOF 4
ENDMDL
MODEL 6
REMARK VINA RESULT:      -7.6      2.932      3.907
REMARK  Name = 
REMARK  4 active torsions:
REMARK  status: ('A' for Active; 'I' for Inactive)
REMARK    1  A    between atoms: C_8  and  C_9
REMARK    2  A    between atoms: C_9  and  C_10
REMARK    3  A    between atoms: C_10  and  N_11
REMARK    4  A    between atoms: C_14  and  C_15
REMARK                            x       y       z     vdW  Elec       q    Type
REMARK                         _______ _______ _______ _____ _____    ______ ____
ROOT
ATOM      1  N   UNL     1      -9.167  10.863  67.316  0.00  0.00    -0.272 NA
ATOM      2  C   UNL     1      -9.820  11.743  66.349  0.00  0.00    +0.072 C 
ATOM      3  C   UNL     1     -11.313  11.570  66.573  0.00  0.00    +0.023 C 
ATOM      4  C   UNL     1     -11.688  11.856  68.000  0.00  0.00    +0.046 C 
ATOM      5  C   UNL     1     -10.812  11.134  68.998  0.00  0.00    +0.023 C 
ATOM      6  C   UNL     1      -9.371  11.469  68.632  0.00  0.00    +0.072 C 
ENDROOT
BRANCH   4   7
ATOM      7  C   UNL     1     -11.476  13.315  68.246  0.00  0.00    +0.100 A 
ATOM      8  C   UNL     1     -11.569  13.943  69.478  0.00  0.00    +0.054 A 
ATOM      9  C   UNL     1     -11.044  15.213  69.270  0.00  0.00    +0.179 A 
ATOM     10  C   UNL     1     -11.383  16.195  70.169  0.00  0.00    +0.070 A 
ATOM     11  C   UNL     1     -11.984  15.859  71.375  0.00  0.00    +0.143 A 
ATOM     12  C   UNL     1     -12.622  14.657  71.539  0.00  0.00    +0.030 A 
ATOM     13  F   UNL     1     -11.800  16.687  72.429  0.00  0.00    -0.204 F 
ATOM     14  O   UNL     1     -10.716  15.331  68.002  0.00  0.00    -0.354 OA
ATOM     15  C   UNL     1     -12.357  13.682  70.585  0.00  0.00    +0.007 A 
ATOM     16  N   UNL     1     -11.087  14.264  67.360  0.00  0.00    -0.081 NA
ENDBRANCH   4   7
BRANCH   1  17
ATOM     17  C   UNL     1      -9.854   9.594  67.365  0.00  0.00    +0.077 C 
BRANCH  17  18
ATOM     18  C   UNL     1      -8.932   8.415  67.486  0.00  0.00    +0.050 C 
BRANCH  18  21
ATOM     19  C   UNL     1     -10.938   6.435  67.192  0.00  0.00    +0.052 C 
ATOM     20  C   UNL     1     -10.635   6.852  68.416  0.00  0.00    +0.061 A 
ATOM     21  C   UNL     1      -9.462   7.574  68.608  0.00  0.00    +0.049 A 
ATOM     22  C   UNL     1      -9.181   8.005  69.900  0.00  0.00    +0.259 A 
ATOM     23  O   UNL     1      -8.187   8.762  70.105  0.00  0.00    -0.267 OA
ATOM     24  N   UNL     1     -10.018   7.717  70.900  0.00  0.00    -0.282 N 
ATOM     25  C   UNL     1      -9.521   7.887  72.261  0.00  0.00    +0.110 C 
ATOM     26  C   UNL     1      -9.652   6.537  72.904  0.00  0.00    +0.028 C 
ATOM     27  C   UNL     1     -10.597   5.676  72.214  0.00  0.00    +0.043 C 
ATOM     28  C   UNL     1     -11.997   6.543  71.870  0.00  0.00    +0.208 C 
ATOM     29  O   UNL     1     -11.687   7.688  72.874  0.00  0.00    -0.215 OA
ATOM     30  C   UNL     1     -11.266   7.347  70.623  0.00  0.00    +0.153 A 
ATOM     31  N   UNL     1     -11.418   6.602  69.495  0.00  0.00    -0.234 NA
ENDBRANCH  18  21
ENDBRANCH  17  18
ENDBRANCH   1  17
TORSDOF 4
ENDMDL
MODEL 7
REMARK VINA RESULT:      -7.5      3.502      9.127
REMARK  Name = 
REMARK  4 active torsions:
REMARK  status: ('A' for Active; 'I' for Inactive)
REMARK    1  A    between atoms: C_8  and  C_9
REMARK    2  A    between atoms: C_9  and  C_10
REMARK    3  A    between atoms: C_10  and  N_11
REMARK    4  A    between atoms: C_14  and  C_15
REMARK                            x       y       z     vdW  Elec       q    Type
REMARK                         _______ _______ _______ _____ _____    ______ ____
ROOT
ATOM      1  N   UNL     1      -9.903  10.092  67.294  0.00  0.00    -0.272 NA
ATOM      2  C   UNL     1      -9.113   9.011  67.878  0.00  0.00    +0.072 C 
ATOM      3  C   UNL     1      -8.672   9.511  69.244  0.00  0.00    +0.023 C 
ATOM      4  C   UNL     1      -9.850   9.920  70.082  0.00  0.00    +0.046 C 
ATOM      5  C   UNL     1     -10.806  10.836  69.354  0.00  0.00    +0.023 C 
ATOM      6  C   UNL     1     -11.159  10.140  68.043  0.00  0.00    +0.072 C 
ENDROOT
BRANCH   4   7
ATOM      7  C   UNL     1     -10.630   8.686  70.409  0.00  0.00    +0.100 A 
ATOM      8  C   UNL     1     -11.951   8.659  70.827  0.00  0.00    +0.054 A 
ATOM      9  C   UNL     1     -12.320   7.321  70.753  0.00  0.00    +0.179 A 
ATOM     10  C   UNL     1     -13.407   6.921  71.492  0.00  0.00    +0.070 A 
ATOM     11  C   UNL     1     -14.256   7.866  72.052  0.00  0.00    +0.143 A 
ATOM     12  C   UNL     1     -13.846   9.159  72.250  0.00  0.00    +0.030 A 
ATOM     13  F   UNL     1     -15.545   7.515  72.263  0.00  0.00    -0.204 F 
ATOM     14  O   UNL     1     -11.277   6.617  70.368  0.00  0.00    -0.354 OA
ATOM     15  C   UNL     1     -12.695   9.552  71.578  0.00  0.00    +0.007 A 
ATOM     16  N   UNL     1     -10.239   7.395  70.288  0.00  0.00    -0.081 NA
ENDBRANCH   4   7
BRANCH   1  17
ATOM     17  C   UNL     1      -9.257  11.360  67.541  0.00  0.00    +0.077 C 
BRANCH  17  18
ATOM     18  C   UNL     1      -9.114  12.212  66.314  0.00  0.00    +0.050 C 
BRANCH  18  21
ATOM     19  C   UNL     1     -11.741  13.213  65.958  0.00  0.00    +0.052 C 
ATOM     20  C   UNL     1     -10.765  14.075  66.218  0.00  0.00    +0.061 A 
ATOM     21  C   UNL     1      -9.553  13.592  66.699  0.00  0.00    +0.049 A 
ATOM     22  C   UNL     1      -8.549  14.522  66.949  0.00  0.00    +0.259 A 
ATOM     23  O   UNL     1      -7.394  14.122  67.278  0.00  0.00    -0.267 OA
ATOM     24  N   UNL     1      -8.769  15.822  66.735  0.00  0.00    -0.282 N 
ATOM     25  C   UNL     1      -7.829  16.767  67.325  0.00  0.00    +0.110 C 
ATOM     26  C   UNL     1      -8.658  17.652  68.211  0.00  0.00    +0.028 C 
ATOM     27  C   UNL     1     -10.069  17.625  67.869  0.00  0.00    +0.043 C 
ATOM     28  C   UNL     1     -10.244  17.764  66.201  0.00  0.00    +0.208 C 
ATOM     29  O   UNL     1      -8.801  18.290  65.966  0.00  0.00    -0.215 OA
ATOM     30  C   UNL     1      -9.785  16.194  65.961  0.00  0.00    +0.153 A 
ATOM     31  N   UNL     1     -10.897  15.413  66.038  0.00  0.00    -0.234 NA
ENDBRANCH  18  21
ENDBRANCH  17  18
ENDBRANCH   1  17
TORSDOF 4
ENDMDL
MODEL 8
REMARK VINA RESULT:      -7.5      3.961      9.305
REMARK  Name = 
REMARK  4 active torsions:
REMARK  status: ('A' for Active; 'I' for Inactive)
REMARK    1  A    between atoms: C_8  and  C_9
REMARK    2  A    between atoms: C_9  and  C_10
REMARK    3  A    between atoms: C_10  and  N_11
REMARK    4  A    between atoms: C_14  and  C_15
REMARK                            x       y       z     vdW  Elec       q    Type
REMARK                         _______ _______ _______ _____ _____    ______ ____
ROOT
ATOM      1  N   UNL     1      -9.453  16.381  68.977  0.00  0.00    -0.272 NA
ATOM      2  C   UNL     1     -10.333  15.887  70.034  0.00  0.00    +0.072 C 
ATOM      3  C   UNL     1     -11.712  15.772  69.405  0.00  0.00    +0.023 C 
ATOM      4  C   UNL     1     -11.684  14.898  68.183  0.00  0.00    +0.046 C 
ATOM      5  C   UNL     1     -10.580  15.264  67.219  0.00  0.00    +0.023 C 
ATOM      6  C   UNL     1      -9.287  15.281  68.027  0.00  0.00    +0.072 C 
ENDROOT
BRANCH   4   7
ATOM      7  C   UNL     1     -11.398  13.499  68.626  0.00  0.00    +0.100 A 
ATOM      8  C   UNL     1     -12.120  12.795  69.577  0.00  0.00    +0.054 A 
ATOM      9  C   UNL     1     -11.668  11.485  69.468  0.00  0.00    +0.179 A 
ATOM     10  C   UNL     1     -11.876  10.651  70.540  0.00  0.00    +0.070 A 
ATOM     11  C   UNL     1     -12.744  11.025  71.556  0.00  0.00    +0.143 A 
ATOM     12  C   UNL     1     -13.087  12.338  71.750  0.00  0.00    +0.030 A 
ATOM     13  F   UNL     1     -13.358  10.046  72.260  0.00  0.00    -0.204 F 
ATOM     14  O   UNL     1     -10.720  11.440  68.557  0.00  0.00    -0.354 OA
ATOM     15  C   UNL     1     -12.800  13.211  70.707  0.00  0.00    +0.007 A 
ATOM     16  N   UNL     1     -10.461  12.646  68.146  0.00  0.00    -0.081 NA
ENDBRANCH   4   7
BRANCH   1  17
ATOM     17  C   UNL     1     -10.116  17.432  68.240  0.00  0.00    +0.077 C 
BRANCH  17  18
ATOM     18  C   UNL     1      -9.755  18.813  68.705  0.00  0.00    +0.050 C 
BRANCH  18  21
ATOM     19  C   UNL     1     -10.314  19.773  66.098  0.00  0.00    +0.052 C 
ATOM     20  C   UNL     1      -9.055  19.493  66.412  0.00  0.00    +0.061 A 
ATOM     21  C   UNL     1      -8.719  19.327  67.752  0.00  0.00    +0.049 A 
ATOM     22  C   UNL     1      -7.394  19.022  68.045  0.00  0.00    +0.259 A 
ATOM     23  O   UNL     1      -7.063  18.748  69.236  0.00  0.00    -0.267 OA
ATOM     24  N   UNL     1      -6.498  18.908  67.061  0.00  0.00    -0.282 N 
ATOM     25  C   UNL     1      -5.088  18.930  67.432  0.00  0.00    +0.110 C 
ATOM     26  C   UNL     1      -4.496  20.084  66.677  0.00  0.00    +0.028 C 
ATOM     27  C   UNL     1      -5.305  20.484  65.538  0.00  0.00    +0.043 C 
ATOM     28  C   UNL     1      -5.778  19.118  64.679  0.00  0.00    +0.208 C 
ATOM     29  O   UNL     1      -4.719  18.186  65.330  0.00  0.00    -0.215 OA
ATOM     30  C   UNL     1      -6.918  18.726  65.812  0.00  0.00    +0.153 A 
ATOM     31  N   UNL     1      -8.074  19.364  65.484  0.00  0.00    -0.234 NA
ENDBRANCH  18  21
ENDBRANCH  17  18
ENDBRANCH   1  17
TORSDOF 4
ENDMDL
MODEL 9
REMARK VINA RESULT:      -7.5      3.604      4.728
REMARK  Name = 
REMARK  4 active torsions:
REMARK  status: ('A' for Active; 'I' for Inactive)
REMARK    1  A    between atoms: C_8  and  C_9
REMARK    2  A    between atoms: C_9  and  C_10
REMARK    3  A    between atoms: C_10  and  N_11
REMARK    4  A    between atoms: C_14  and  C_15
REMARK                            x       y       z     vdW  Elec       q    Type
REMARK                         _______ _______ _______ _____ _____    ______ ____
ROOT
ATOM      1  N   UNL     1      -9.620  13.515  67.006  0.00  0.00    -0.272 NA
ATOM      2  C   UNL     1     -10.535  14.612  66.699  0.00  0.00    +0.072 C 
ATOM      3  C   UNL     1     -11.932  14.067  66.946  0.00  0.00    +0.023 C 
ATOM      4  C   UNL     1     -12.073  13.535  68.345  0.00  0.00    +0.046 C 
ATOM      5  C   UNL     1     -10.953  12.600  68.737  0.00  0.00    +0.023 C 
ATOM      6  C   UNL     1      -9.650  13.343  68.459  0.00  0.00    +0.072 C 
ENDROOT
BRANCH   4   7
ATOM      7  C   UNL     1     -11.992  14.695  69.286  0.00  0.00    +0.100 A 
ATOM      8  C   UNL     1     -12.113  14.619  70.664  0.00  0.00    +0.054 A 
ATOM      9  C   UNL     1     -11.712  15.867  71.125  0.00  0.00    +0.179 A 
ATOM     10  C   UNL     1     -12.120  16.240  72.384  0.00  0.00    +0.070 A 
ATOM     11  C   UNL     1     -12.659  15.298  73.249  0.00  0.00    +0.143 A 
ATOM     12  C   UNL     1     -13.179  14.119  72.781  0.00  0.00    +0.030 A 
ATOM     13  F   UNL     1     -12.528  15.509  74.579  0.00  0.00    -0.204 F 
ATOM     14  O   UNL     1     -11.426  16.627  70.090  0.00  0.00    -0.354 OA
ATOM     15  C   UNL     1     -12.848  13.773  71.476  0.00  0.00    +0.007 A 
ATOM     16  N   UNL     1     -11.712  15.988  68.995  0.00  0.00    -0.081 NA
ENDBRANCH   4   7
BRANCH   1  17
ATOM     17  C   UNL     1     -10.134  12.281  66.460  0.00  0.00    +0.077 C 
BRANCH  17  18
ATOM     18  C   UNL     1      -9.111  11.485  65.702  0.00  0.00    +0.050 C 
BRANCH  18  21
ATOM     19  C   UNL     1     -10.440   9.195  66.711  0.00  0.00    +0.052 C 
ATOM     20  C   UNL     1      -9.340   9.611  67.328  0.00  0.00    +0.061 A 
ATOM     21  C   UNL     1      -8.511  10.521  66.680  0.00  0.00    +0.049 A 
ATOM     22  C   UNL     1      -7.374  10.945  67.360  0.00  0.00    +0.259 A 
ATOM     23  O   UNL     1      -6.651  11.857  66.862  0.00  0.00    -0.267 OA
ATOM     24  N   UNL     1      -7.108  10.475  68.581  0.00  0.00    -0.282 N 
ATOM     25  C   UNL     1      -5.760  10.677  69.099  0.00  0.00    +0.110 C 
ATOM     26  C   UNL     1      -5.234   9.302  69.390  0.00  0.00    +0.028 C 
ATOM     27  C   UNL     1      -6.291   8.315  69.526  0.00  0.00    +0.043 C 
ATOM     28  C   UNL     1      -7.513   8.933  70.503  0.00  0.00    +0.208 C 
ATOM     29  O   UNL     1      -6.638  10.075  71.092  0.00  0.00    -0.215 OA
ATOM     30  C   UNL     1      -8.078   9.902  69.287  0.00  0.00    +0.153 A 
ATOM     31  N   UNL     1      -8.983   9.186  68.565  0.00  0.00    -0.234 NA
ENDBRANCH  18  21
ENDBRANCH  17  18
ENDBRANCH   1  17
TORSDOF 4
ENDMDL
