MODEL 1
REMARK VINA RESULT:      -5.5      0.000      0.000
REMARK  Name = 
REMARK  1 active torsions:
REMARK  status: ('A' for Active; 'I' for Inactive)
REMARK    1  A    between atoms: C_10  and  C_11
REMARK                            x       y       z     vdW  Elec       q    Type
REMARK                         _______ _______ _______ _____ _____    ______ ____
ROOT
ATOM      1  C   UNL     1     -12.954  15.341  71.738  0.00  0.00    -0.000 A 
ATOM      2  C   UNL     1     -13.226  14.056  71.366  0.00  0.00    -0.005 A 
ATOM      3  C   UNL     1     -12.341  13.434  70.490  0.00  0.00    -0.026 A 
ATOM      4  C   UNL     1     -12.183  11.969  70.600  0.00  0.00    +0.026 C 
ATOM      5  C   UNL     1     -11.564  11.368  69.375  0.00  0.00    +0.006 C 
ATOM      6  C   UNL     1     -11.839  12.351  68.270  0.00  0.00    +0.017 C 
ATOM      7  C   UNL     1     -10.728  13.559  68.541  0.00  0.00    +0.131 C 
ATOM      8  C   UNL     1     -11.691  14.270  69.641  0.00  0.00    -0.015 A 
ATOM      9  C   UNL     1     -11.157  15.432  70.189  0.00  0.00    -0.004 A 
ATOM     10  C   UNL     1     -11.815  15.964  71.295  0.00  0.00    -0.000 A 
ENDROOT
BRANCH   7  11
ATOM     11  C   UNL     1     -11.317  14.503  67.345  0.00  0.00    +0.336 C 
ATOM     12  N   UNL     1     -10.290  15.138  66.568  0.00  0.00    -0.030 NA
ATOM     13  C   UNL     1     -10.524  14.950  65.153  0.00  0.00    +0.308 C 
ATOM     14  C   UNL     1     -11.927  14.433  65.149  0.00  0.00    +0.318 C 
ATOM     15  N   UNL     1     -12.137  14.037  66.502  0.00  0.00    -0.061 NA
ENDBRANCH   7  11
TORSDOF 1
ENDMDL
MODEL 2
REMARK VINA RESULT:      -5.4      1.496      2.278
REMARK  Name = 
REMARK  1 active torsions:
REMARK  status: ('A' for Active; 'I' for Inactive)
REMARK    1  A    between atoms: C_10  and  C_11
REMARK                            x       y       z     vdW  Elec       q    Type
REMARK                         _______ _______ _______ _____ _____    ______ ____
ROOT
ATOM      1  C   UNL     1     -13.252  11.888  71.760  0.00  0.00    -0.000 A 
ATOM      2  C   UNL     1     -12.671  10.794  71.186  0.00  0.00    -0.005 A 
ATOM      3  C   UNL     1     -11.672  11.012  70.241  0.00  0.00    -0.026 A 
ATOM      4  C   UNL     1     -10.606   9.995  70.124  0.00  0.00    +0.026 C 
ATOM      5  C   UNL     1      -9.854  10.103  68.833  0.00  0.00    +0.006 C 
ATOM      6  C   UNL     1     -10.786  10.813  67.890  0.00  0.00    +0.017 C 
ATOM      7  C   UNL     1     -10.685  12.403  68.369  0.00  0.00    +0.131 C 
ATOM      8  C   UNL     1     -11.781  12.172  69.547  0.00  0.00    -0.015 A 
ATOM      9  C   UNL     1     -12.068  13.320  70.281  0.00  0.00    -0.004 A 
ATOM     10  C   UNL     1     -12.817  13.149  71.443  0.00  0.00    -0.000 A 
ENDROOT
BRANCH   7  11
ATOM     11  C   UNL     1     -11.841  12.893  67.324  0.00  0.00    +0.336 C 
ATOM     12  N   UNL     1     -11.635  14.229  66.839  0.00  0.00    -0.030 NA
ATOM     13  C   UNL     1     -11.741  14.277  65.398  0.00  0.00    +0.308 C 
ATOM     14  C   UNL     1     -12.335  12.938  65.098  0.00  0.00    +0.318 C 
ATOM     15  N   UNL     1     -12.117  12.203  66.300  0.00  0.00    -0.061 NA
ENDBRANCH   7  11
TORSDOF 1
ENDMDL
MODEL 3
REMARK VINA RESULT:      -5.3      3.124      5.105
REMARK  Name = 
REMARK  1 active torsions:
REMARK  status: ('A' for Active; 'I' for Inactive)
REMARK    1  A    between atoms: C_10  and  C_11
REMARK                            x       y       z     vdW  Elec       q    Type
REMARK                         _______ _______ _______ _____ _____    ______ ____
ROOT
ATOM      1  C   UNL     1     -12.544  14.821  72.164  0.00  0.00    -0.000 A 
ATOM      2  C   UNL     1     -11.828  14.619  71.020  0.00  0.00    -0.005 A 
ATOM      3  C   UNL     1     -12.074  13.453  70.299  0.00  0.00    -0.026 A 
ATOM      4  C   UNL     1     -11.890  13.501  68.834  0.00  0.00    +0.026 C 
ATOM      5  C   UNL     1     -11.762  12.136  68.230  0.00  0.00    +0.006 C 
ATOM      6  C   UNL     1     -11.303  11.248  69.353  0.00  0.00    +0.017 C 
ATOM      7  C   UNL     1     -12.688  10.996  70.239  0.00  0.00    +0.131 C 
ATOM      8  C   UNL     1     -12.491  12.397  71.042  0.00  0.00    -0.015 A 
ATOM      9  C   UNL     1     -13.479  12.646  71.990  0.00  0.00    -0.004 A 
ATOM     10  C   UNL     1     -13.505  13.922  72.547  0.00  0.00    -0.000 A 
ENDROOT
BRANCH   7  11
ATOM     11  C   UNL     1     -11.906  10.163  71.407  0.00  0.00    +0.336 C 
ATOM     12  N   UNL     1     -12.728   9.168  72.037  0.00  0.00    -0.030 NA
ATOM     13  C   UNL     1     -12.047   7.893  72.086  0.00  0.00    +0.308 C 
ATOM     14  C   UNL     1     -10.651   8.286  71.727  0.00  0.00    +0.318 C 
ATOM     15  N   UNL     1     -10.809   9.585  71.160  0.00  0.00    -0.061 NA
ENDBRANCH   7  11
TORSDOF 1
ENDMDL
MODEL 4
REMARK VINA RESULT:      -5.3      2.050      3.927
REMARK  Name = 
REMARK  1 active torsions:
REMARK  status: ('A' for Active; 'I' for Inactive)
REMARK    1  A    between atoms: C_10  and  C_11
REMARK                            x       y       z     vdW  Elec       q    Type
REMARK                         _______ _______ _______ _____ _____    ______ ____
ROOT
ATOM      1  C   UNL     1     -11.474  11.962  66.936  0.00  0.00    -0.000 A 
ATOM      2  C   UNL     1     -11.278  12.066  68.283  0.00  0.00    -0.005 A 
ATOM      3  C   UNL     1     -11.642  13.259  68.900  0.00  0.00    -0.026 A 
ATOM      4  C   UNL     1     -12.092  13.194  70.306  0.00  0.00    +0.026 C 
ATOM      5  C   UNL     1     -12.045  14.530  70.983  0.00  0.00    +0.006 C 
ATOM      6  C   UNL     1     -11.046  15.335  70.199  0.00  0.00    +0.017 C 
ATOM      7  C   UNL     1     -11.891  15.779  68.836  0.00  0.00    +0.131 C 
ATOM      8  C   UNL     1     -11.568  14.360  68.111  0.00  0.00    -0.015 A 
ATOM      9  C   UNL     1     -12.097  14.251  66.828  0.00  0.00    -0.004 A 
ATOM     10  C   UNL     1     -12.060  12.989  66.240  0.00  0.00    -0.000 A 
ENDROOT
BRANCH   7  11
ATOM     11  C   UNL     1     -10.591  16.484  68.141  0.00  0.00    +0.336 C 
ATOM     12  N   UNL     1     -10.782  17.882  67.874  0.00  0.00    -0.030 NA
ATOM     13  C   UNL     1      -9.667  18.658  68.369  0.00  0.00    +0.308 C 
ATOM     14  C   UNL     1      -8.665  17.588  68.662  0.00  0.00    +0.318 C 
ATOM     15  N   UNL     1      -9.449  16.397  68.677  0.00  0.00    -0.061 NA
ENDBRANCH   7  11
TORSDOF 1
ENDMDL
MODEL 5
REMARK VINA RESULT:      -5.2      1.781      2.219
REMARK  Name = 
REMARK  1 active torsions:
REMARK  status: ('A' for Active; 'I' for Inactive)
REMARK    1  A    between atoms: C_10  and  C_11
REMARK                            x       y       z     vdW  Elec       q    Type
REMARK                         _______ _______ _______ _____ _____    ______ ____
ROOT
ATOM      1  C   UNL     1     -13.743  15.248  72.720  0.00  0.00    -0.000 A 
ATOM      2  C   UNL     1     -13.810  14.194  71.854  0.00  0.00    -0.005 A 
ATOM      3  C   UNL     1     -12.710  13.960  71.033  0.00  0.00    -0.026 A 
ATOM      4  C   UNL     1     -12.439  12.563  70.633  0.00  0.00    +0.026 C 
ATOM      5  C   UNL     1     -11.530  12.477  69.445  0.00  0.00    +0.006 C 
ATOM      6  C   UNL     1     -11.668  13.800  68.744  0.00  0.00    +0.017 C 
ATOM      7  C   UNL     1     -10.756  14.831  69.678  0.00  0.00    +0.131 C 
ATOM      8  C   UNL     1     -11.985  15.062  70.716  0.00  0.00    -0.015 A 
ATOM      9  C   UNL     1     -11.687  15.939  71.755  0.00  0.00    -0.004 A 
ATOM     10  C   UNL     1     -12.603  16.005  72.801  0.00  0.00    -0.000 A 
ENDROOT
BRANCH   7  11
ATOM     11  C   UNL     1     -11.178  16.148  68.809  0.00  0.00    +0.336 C 
ATOM     12  N   UNL     1     -10.525  17.349  69.249  0.00  0.00    -0.030 NA
ATOM     13  C   UNL     1      -9.937  18.055  68.133  0.00  0.00    +0.308 C 
ATOM     14  C   UNL     1     -10.563  17.350  66.972  0.00  0.00    +0.318 C 
ATOM     15  N   UNL     1     -11.072  16.150  67.550  0.00  0.00    -0.061 NA
ENDBRANCH   7  11
TORSDOF 1
ENDMDL
MODEL 6
REMARK VINA RESULT:      -5.2      2.638      4.946
REMARK  Name = 
REMARK  1 active torsions:
REMARK  status: ('A' for Active; 'I' for Inactive)
REMARK    1  A    between atoms: C_10  and  C_11
REMARK                            x       y       z     vdW  Elec       q    Type
REMARK                         _______ _______ _______ _____ _____    ______ ____
ROOT
ATOM      1  C   UNL     1     -11.388  11.677  63.727  0.00  0.00    -0.000 A 
ATOM      2  C   UNL     1     -10.931  11.425  64.989  0.00  0.00    -0.005 A 
ATOM      3  C   UNL     1     -11.106  12.416  65.951  0.00  0.00    -0.026 A 
ATOM      4  C   UNL     1     -11.281  11.986  67.354  0.00  0.00    +0.026 C 
ATOM      5  C   UNL     1     -11.034  13.099  68.326  0.00  0.00    +0.006 C 
ATOM      6  C   UNL     1     -10.162  14.080  67.592  0.00  0.00    +0.017 C 
ATOM      7  C   UNL     1     -11.228  14.866  66.584  0.00  0.00    +0.131 C 
ATOM      8  C   UNL     1     -11.126  13.685  65.471  0.00  0.00    -0.015 A 
ATOM      9  C   UNL     1     -11.897  13.915  64.334  0.00  0.00    -0.004 A 
ATOM     10  C   UNL     1     -12.040  12.851  63.448  0.00  0.00    -0.000 A 
ENDROOT
BRANCH   7  11
ATOM     11  C   UNL     1     -10.050  15.725  65.849  0.00  0.00    +0.336 C 
ATOM     12  N   UNL     1     -10.292  17.141  65.859  0.00  0.00    -0.030 NA
ATOM     13  C   UNL     1      -9.127  17.860  66.322  0.00  0.00    +0.308 C 
ATOM     14  C   UNL     1      -8.081  16.793  66.280  0.00  0.00    +0.318 C 
ATOM     15  N   UNL     1      -8.841  15.590  66.196  0.00  0.00    -0.061 NA
ENDBRANCH   7  11
TORSDOF 1
ENDMDL
MODEL 7
REMARK VINA RESULT:      -5.2      3.580      5.391
REMARK  Name = 
REMARK  1 active torsions:
REMARK  status: ('A' for Active; 'I' for Inactive)
REMARK    1  A    between atoms: C_10  and  C_11
REMARK                            x       y       z     vdW  Elec       q    Type
REMARK                         _______ _______ _______ _____ _____    ______ ____
ROOT
ATOM      1  C   UNL     1      -9.811  20.306  67.402  0.00  0.00    -0.000 A 
ATOM      2  C   UNL     1      -8.959  19.690  68.273  0.00  0.00    -0.005 A 
ATOM      3  C   UNL     1      -8.821  18.308  68.176  0.00  0.00    -0.026 A 
ATOM      4  C   UNL     1      -7.518  17.721  68.552  0.00  0.00    +0.026 C 
ATOM      5  C   UNL     1      -7.610  16.249  68.817  0.00  0.00    +0.006 C 
ATOM      6  C   UNL     1      -9.053  15.999  69.160  0.00  0.00    +0.017 C 
ATOM      7  C   UNL     1      -9.813  16.031  67.680  0.00  0.00    +0.131 C 
ATOM      8  C   UNL     1      -9.913  17.653  67.708  0.00  0.00    -0.015 A 
ATOM      9  C   UNL     1     -10.542  18.197  66.592  0.00  0.00    -0.004 A 
ATOM     10  C   UNL     1     -10.459  19.579  66.437  0.00  0.00    -0.000 A 
ENDROOT
BRANCH   7  11
ATOM     11  C   UNL     1     -11.303  15.880  68.333  0.00  0.00    +0.336 C 
ATOM     12  N   UNL     1     -11.775  14.524  68.356  0.00  0.00    -0.030 NA
ATOM     13  C   UNL     1     -12.273  14.175  69.668  0.00  0.00    +0.308 C 
ATOM     14  C   UNL     1     -12.353  15.515  70.324  0.00  0.00    +0.318 C 
ATOM     15  N   UNL     1     -11.551  16.342  69.483  0.00  0.00    -0.061 NA
ENDBRANCH   7  11
TORSDOF 1
ENDMDL
MODEL 8
REMARK VINA RESULT:      -5.2      2.130      4.582
REMARK  Name = 
REMARK  1 active torsions:
REMARK  status: ('A' for Active; 'I' for Inactive)
REMARK    1  A    between atoms: C_10  and  C_11
REMARK                            x       y       z     vdW  Elec       q    Type
REMARK                         _______ _______ _______ _____ _____    ______ ____
ROOT
ATOM      1  C   UNL     1     -11.311  12.051  64.062  0.00  0.00    -0.000 A 
ATOM      2  C   UNL     1     -10.771  11.442  65.158  0.00  0.00    -0.005 A 
ATOM      3  C   UNL     1     -11.219  11.849  66.411  0.00  0.00    -0.026 A 
ATOM      4  C   UNL     1     -11.222  10.847  67.497  0.00  0.00    +0.026 C 
ATOM      5  C   UNL     1     -11.305  11.476  68.854  0.00  0.00    +0.006 C 
ATOM      6  C   UNL     1     -10.792  12.878  68.672  0.00  0.00    +0.017 C 
ATOM      7  C   UNL     1     -12.069  13.668  67.956  0.00  0.00    +0.131 C 
ATOM      8  C   UNL     1     -11.637  13.138  66.480  0.00  0.00    -0.015 A 
ATOM      9  C   UNL     1     -12.466  13.586  65.456  0.00  0.00    -0.004 A 
ATOM     10  C   UNL     1     -12.297  12.992  64.208  0.00  0.00    -0.000 A 
ENDROOT
BRANCH   7  11
ATOM     11  C   UNL     1     -11.227  15.053  67.757  0.00  0.00    +0.336 C 
ATOM     12  N   UNL     1     -11.705  16.128  68.580  0.00  0.00    -0.030 NA
ATOM     13  C   UNL     1     -10.615  16.759  69.290  0.00  0.00    +0.308 C 
ATOM     14  C   UNL     1      -9.429  16.186  68.584  0.00  0.00    +0.318 C 
ATOM     15  N   UNL     1      -9.969  15.066  67.886  0.00  0.00    -0.061 NA
ENDBRANCH   7  11
TORSDOF 1
ENDMDL
MODEL 9
REMARK VINA RESULT:      -5.1      3.530      4.855
REMARK  Name = 
REMARK  1 active torsions:
REMARK  status: ('A' for Active; 'I' for Inactive)
REMARK    1  A    between atoms: C_10  and  C_11
REMARK                            x       y       z     vdW  Elec       q    Type
REMARK                         _______ _______ _______ _____ _____    ______ ____
ROOT
ATOM      1  C   UNL     1     -10.174  19.876  68.032  0.00  0.00    -0.000 A 
ATOM      2  C   UNL     1      -9.400  18.935  68.646  0.00  0.00    -0.005 A 
ATOM      3  C   UNL     1      -8.964  17.856  67.882  0.00  0.00    -0.026 A 
ATOM      4  C   UNL     1      -7.666  17.244  68.237  0.00  0.00    +0.026 C 
ATOM      5  C   UNL     1      -7.504  15.873  67.655  0.00  0.00    +0.006 C 
ATOM      6  C   UNL     1      -8.902  15.383  67.402  0.00  0.00    +0.017 C 
ATOM      7  C   UNL     1      -9.350  16.187  66.016  0.00  0.00    +0.131 C 
ATOM      8  C   UNL     1      -9.786  17.507  66.861  0.00  0.00    -0.015 A 
ATOM      9  C   UNL     1     -10.284  18.540  66.073  0.00  0.00    -0.004 A 
ATOM     10  C   UNL     1     -10.459  19.774  66.694  0.00  0.00    -0.000 A 
ENDROOT
BRANCH   7  11
ATOM     11  C   UNL     1     -10.875  15.602  66.052  0.00  0.00    +0.336 C 
ATOM     12  N   UNL     1     -11.393  15.294  64.749  0.00  0.00    -0.030 NA
ATOM     13  C   UNL     1     -11.968  13.967  64.724  0.00  0.00    +0.308 C 
ATOM     14  C   UNL     1     -12.034  13.643  66.181  0.00  0.00    +0.318 C 
ATOM     15  N   UNL     1     -11.164  14.605  66.774  0.00  0.00    -0.061 NA
ENDBRANCH   7  11
TORSDOF 1
ENDMDL
