MODEL 1
REMARK VINA RESULT:      -8.2      0.000      0.000
REMARK  Name = 
REMARK  11 active torsions:
REMARK  status: ('A' for Active; 'I' for Inactive)
REMARK    1  A    between atoms: C_2  and  O_4
REMARK    2  A    between atoms: O_4  and  C_5
REMARK    3  A    between atoms: C_5  and  C_7
REMARK    4  A    between atoms: C_7  and  N_9
REMARK    5  A    between atoms: N_9  and  P_10
REMARK    6  A    between atoms: P_10  and  O_12
REMARK    7  A    between atoms: P_10  and  O_30
REMARK    8  A    between atoms: O_12  and  C_13
REMARK    9  A    between atoms: C_13  and  C_14
REMARK   10  A    between atoms: C_16  and  N_17
REMARK   11  A    between atoms: O_30  and  C_31
REMARK                            x       y       z     vdW  Elec       q    Type
REMARK                         _______ _______ _______ _____ _____    ______ ____
ROOT
ATOM      1  P   UNL     1     -11.727  15.425  69.481  0.00  0.00    +0.480 P 
ATOM      2  O   UNL     1     -10.301  15.200  69.968  0.00  0.00    -0.227 OA
ENDROOT
BRANCH   1   3
ATOM      3  N   UNL     1     -12.820  15.597  70.834  0.00  0.00    -0.101 NA
BRANCH   3   4
ATOM      4  C   UNL     1     -12.176  14.612  71.884  0.00  0.00    +0.183 C 
ATOM      5  C   UNL     1     -12.788  15.453  73.160  0.00  0.00    +0.031 C 
BRANCH   4   6
ATOM      6  C   UNL     1     -13.424  13.592  71.847  0.00  0.00    +0.333 C 
ATOM      7  O   UNL     1     -14.539  14.026  72.071  0.00  0.00    -0.249 OA
BRANCH   6   8
ATOM      8  O   UNL     1     -12.970  12.384  72.379  0.00  0.00    -0.451 OA
BRANCH   8  10
ATOM      9  C   UNL     1     -13.163  10.759  71.875  0.00  0.00    +0.047 C 
ATOM     10  C   UNL     1     -13.129  11.223  71.563  0.00  0.00    +0.169 C 
ATOM     11  C   UNL     1     -12.086  11.331  70.454  0.00  0.00    +0.047 C 
ENDBRANCH   8  10
ENDBRANCH   6   8
ENDBRANCH   4   6
ENDBRANCH   3   4
ENDBRANCH   1   3
BRANCH   1  12
ATOM     12  O   UNL     1     -11.643  16.838  68.548  0.00  0.00    -0.270 OA
BRANCH  12  13
ATOM     13  C   UNL     1     -10.428  16.899  67.979  0.00  0.00    +0.186 C 
BRANCH  13  14
ATOM     14  C   UNL     1      -9.837  18.420  68.124  0.00  0.00    +0.180 C 
ATOM     15  C   UNL     1      -9.704  18.481  66.409  0.00  0.00    +0.215 C 
ATOM     16  O   UNL     1     -10.346  19.851  66.416  0.00  0.00    -0.217 OA
ATOM     17  C   UNL     1      -8.158  19.027  66.394  0.00  0.00    +0.209 C 
ATOM     18  F   UNL     1      -8.267  19.968  65.529  0.00  0.00    -0.233 F 
ATOM     19  C   UNL     1      -7.299  17.883  66.197  0.00  0.00    +0.043 C 
ATOM     20  C   UNL     1      -8.139  19.499  67.957  0.00  0.00    +0.241 C 
ATOM     21  O   UNL     1      -8.392  18.014  68.310  0.00  0.00    -0.331 OA
BRANCH  20  22
ATOM     22  N   UNL     1      -6.555  19.404  68.169  0.00  0.00    -0.253 N 
ATOM     23  C   UNL     1      -6.056  20.652  68.331  0.00  0.00    +0.355 A 
ATOM     24  O   UNL     1      -6.255  21.575  67.545  0.00  0.00    -0.244 OA
ATOM     25  N   UNL     1      -5.285  21.044  69.373  0.00  0.00    -0.153 NA
ATOM     26  C   UNL     1      -5.390  20.389  70.554  0.00  0.00    +0.285 A 
ATOM     27  O   UNL     1      -5.415  20.982  71.660  0.00  0.00    -0.265 OA
ATOM     28  C   UNL     1      -5.615  19.040  70.375  0.00  0.00    +0.081 A 
ATOM     29  C   UNL     1      -6.320  18.625  69.257  0.00  0.00    +0.087 A 
ENDBRANCH  20  22
ENDBRANCH  13  14
ENDBRANCH  12  13
ENDBRANCH   1  12
BRANCH   1  30
ATOM     30  O   UNL     1     -12.257  14.090  68.570  0.00  0.00    -0.411 OA
BRANCH  30  31
ATOM     31  C   UNL     1     -11.700  13.874  67.307  0.00  0.00    +0.148 A 
ATOM     32  C   UNL     1     -12.471  14.046  66.179  0.00  0.00    +0.037 A 
ATOM     33  C   UNL     1     -11.895  13.767  64.955  0.00  0.00    +0.003 A 
ATOM     34  C   UNL     1     -10.610  13.269  64.899  0.00  0.00    +0.000 A 
ATOM     35  C   UNL     1      -9.864  13.116  66.060  0.00  0.00    +0.003 A 
ATOM     36  C   UNL     1     -10.544  13.102  67.272  0.00  0.00    +0.037 A 
ENDBRANCH  30  31
ENDBRANCH   1  30
TORSDOF 11
ENDMDL
MODEL 2
REMARK VINA RESULT:      -8.1      1.280      2.333
REMARK  Name = 
REMARK  11 active torsions:
REMARK  status: ('A' for Active; 'I' for Inactive)
REMARK    1  A    between atoms: C_2  and  O_4
REMARK    2  A    between atoms: O_4  and  C_5
REMARK    3  A    between atoms: C_5  and  C_7
REMARK    4  A    between atoms: C_7  and  N_9
REMARK    5  A    between atoms: N_9  and  P_10
REMARK    6  A    between atoms: P_10  and  O_12
REMARK    7  A    between atoms: P_10  and  O_30
REMARK    8  A    between atoms: O_12  and  C_13
REMARK    9  A    between atoms: C_13  and  C_14
REMARK   10  A    between atoms: C_16  and  N_17
REMARK   11  A    between atoms: O_30  and  C_31
REMARK                            x       y       z     vdW  Elec       q    Type
REMARK                         _______ _______ _______ _____ _____    ______ ____
ROOT
ATOM      1  P   UNL     1     -11.347  14.754  69.261  0.00  0.00    +0.480 P 
ATOM      2  O   UNL     1      -9.858  14.492  69.075  0.00  0.00    -0.227 OA
ENDROOT
BRANCH   1   3
ATOM      3  N   UNL     1     -11.804  14.552  70.936  0.00  0.00    -0.101 NA
BRANCH   3   4
ATOM      4  C   UNL     1     -13.346  14.247  70.805  0.00  0.00    +0.183 C 
ATOM      5  C   UNL     1     -13.253  12.954  71.820  0.00  0.00    +0.031 C 
BRANCH   4   6
ATOM      6  C   UNL     1     -13.753  15.260  71.992  0.00  0.00    +0.333 C 
ATOM      7  O   UNL     1     -14.820  15.841  71.924  0.00  0.00    -0.249 OA
BRANCH   6   8
ATOM      8  O   UNL     1     -12.578  15.897  72.395  0.00  0.00    -0.451 OA
BRANCH   8  10
ATOM      9  C   UNL     1     -12.179  16.800  73.794  0.00  0.00    +0.047 C 
ATOM     10  C   UNL     1     -12.533  16.369  73.741  0.00  0.00    +0.169 C 
ATOM     11  C   UNL     1     -12.382  15.134  74.625  0.00  0.00    +0.047 C 
ENDBRANCH   8  10
ENDBRANCH   6   8
ENDBRANCH   4   6
ENDBRANCH   3   4
ENDBRANCH   1   3
BRANCH   1  12
ATOM     12  O   UNL     1     -11.571  16.348  68.730  0.00  0.00    -0.270 OA
BRANCH  12  13
ATOM     13  C   UNL     1     -10.601  16.642  67.849  0.00  0.00    +0.186 C 
BRANCH  13  14
ATOM     14  C   UNL     1     -10.061  18.164  68.124  0.00  0.00    +0.180 C 
ATOM     15  C   UNL     1     -10.041  18.415  66.422  0.00  0.00    +0.215 C 
ATOM     16  O   UNL     1     -10.735  19.745  66.618  0.00  0.00    -0.217 OA
ATOM     17  C   UNL     1      -8.523  19.029  66.373  0.00  0.00    +0.209 C 
ATOM     18  F   UNL     1      -8.724  20.052  65.626  0.00  0.00    -0.233 F 
ATOM     19  C   UNL     1      -7.634  17.953  66.001  0.00  0.00    +0.043 C 
ATOM     20  C   UNL     1      -8.420  19.331  67.975  0.00  0.00    +0.241 C 
ATOM     21  O   UNL     1      -8.592  17.807  68.177  0.00  0.00    -0.331 OA
BRANCH  20  22
ATOM     22  N   UNL     1      -6.823  19.286  68.080  0.00  0.00    -0.253 N 
ATOM     23  C   UNL     1      -6.354  20.550  68.205  0.00  0.00    +0.355 A 
ATOM     24  O   UNL     1      -6.635  21.464  67.432  0.00  0.00    -0.244 OA
ATOM     25  N   UNL     1      -5.527  20.970  69.192  0.00  0.00    -0.153 NA
ATOM     26  C   UNL     1      -5.531  20.317  70.378  0.00  0.00    +0.285 A 
ATOM     27  O   UNL     1      -5.500  20.912  71.483  0.00  0.00    -0.265 OA
ATOM     28  C   UNL     1      -5.725  18.960  70.218  0.00  0.00    +0.081 A 
ATOM     29  C   UNL     1      -6.491  18.519  69.151  0.00  0.00    +0.087 A 
ENDBRANCH  20  22
ENDBRANCH  13  14
ENDBRANCH  12  13
ENDBRANCH   1  12
BRANCH   1  30
ATOM     30  O   UNL     1     -12.261  13.644  68.351  0.00  0.00    -0.411 OA
BRANCH  30  31
ATOM     31  C   UNL     1     -11.653  12.458  67.932  0.00  0.00    +0.148 A 
ATOM     32  C   UNL     1     -11.256  12.317  66.622  0.00  0.00    +0.037 A 
ATOM     33  C   UNL     1     -10.712  11.106  66.239  0.00  0.00    +0.003 A 
ATOM     34  C   UNL     1     -10.644  10.068  67.145  0.00  0.00    +0.000 A 
ATOM     35  C   UNL     1     -11.049  10.254  68.460  0.00  0.00    +0.003 A 
ATOM     36  C   UNL     1     -11.862  11.346  68.740  0.00  0.00    +0.037 A 
ENDBRANCH  30  31
ENDBRANCH   1  30
TORSDOF 11
ENDMDL
MODEL 3
REMARK VINA RESULT:      -8.0      1.296      2.119
REMARK  Name = 
REMARK  11 active torsions:
REMARK  status: ('A' for Active; 'I' for Inactive)
REMARK    1  A    between atoms: C_2  and  O_4
REMARK    2  A    between atoms: O_4  and  C_5
REMARK    3  A    between atoms: C_5  and  C_7
REMARK    4  A    between atoms: C_7  and  N_9
REMARK    5  A    between atoms: N_9  and  P_10
REMARK    6  A    between atoms: P_10  and  O_12
REMARK    7  A    between atoms: P_10  and  O_30
REMARK    8  A    between atoms: O_12  and  C_13
REMARK    9  A    between atoms: C_13  and  C_14
REMARK   10  A    between atoms: C_16  and  N_17
REMARK   11  A    between atoms: O_30  and  C_31
REMARK                            x       y       z     vdW  Elec       q    Type
REMARK                         _______ _______ _______ _____ _____    ______ ____
ROOT
ATOM      1  P   UNL     1     -11.375  14.775  69.040  0.00  0.00    +0.480 P 
ATOM      2  O   UNL     1      -9.905  14.517  68.733  0.00  0.00    -0.227 OA
ENDROOT
BRANCH   1   3
ATOM      3  N   UNL     1     -11.717  14.459  70.724  0.00  0.00    -0.101 NA
BRANCH   3   4
ATOM      4  C   UNL     1     -13.248  14.078  70.666  0.00  0.00    +0.183 C 
ATOM      5  C   UNL     1     -13.058  12.842  71.737  0.00  0.00    +0.031 C 
BRANCH   4   6
ATOM      6  C   UNL     1     -13.658  15.129  71.818  0.00  0.00    +0.333 C 
ATOM      7  O   UNL     1     -14.741  15.682  71.745  0.00  0.00    -0.249 OA
BRANCH   6   8
ATOM      8  O   UNL     1     -12.493  15.810  72.173  0.00  0.00    -0.451 OA
BRANCH   8  10
ATOM      9  C   UNL     1     -12.052  16.751  73.534  0.00  0.00    +0.047 C 
ATOM     10  C   UNL     1     -12.445  16.355  73.492  0.00  0.00    +0.169 C 
ATOM     11  C   UNL     1     -12.445  15.165  74.449  0.00  0.00    +0.047 C 
ENDBRANCH   8  10
ENDBRANCH   6   8
ENDBRANCH   4   6
ENDBRANCH   3   4
ENDBRANCH   1   3
BRANCH   1  12
ATOM     12  O   UNL     1     -11.617  16.404  68.638  0.00  0.00    -0.270 OA
BRANCH  12  13
ATOM     13  C   UNL     1     -10.698  16.756  67.724  0.00  0.00    +0.186 C 
BRANCH  13  14
ATOM     14  C   UNL     1      -9.919  18.106  68.229  0.00  0.00    +0.180 C 
ATOM     15  C   UNL     1      -9.830  18.613  66.587  0.00  0.00    +0.215 C 
ATOM     16  O   UNL     1     -10.297  19.992  66.996  0.00  0.00    -0.217 OA
ATOM     17  C   UNL     1      -8.230  18.966  66.621  0.00  0.00    +0.209 C 
ATOM     18  F   UNL     1      -8.247  20.113  66.045  0.00  0.00    -0.233 F 
ATOM     19  C   UNL     1      -7.526  17.830  66.076  0.00  0.00    +0.043 C 
ATOM     20  C   UNL     1      -8.106  18.993  68.249  0.00  0.00    +0.241 C 
ATOM     21  O   UNL     1      -8.530  17.506  68.211  0.00  0.00    -0.331 OA
BRANCH  20  22
ATOM     22  N   UNL     1      -6.540  18.668  68.330  0.00  0.00    -0.253 N 
ATOM     23  C   UNL     1      -5.896  19.735  68.860  0.00  0.00    +0.355 A 
ATOM     24  O   UNL     1      -6.000  20.881  68.429  0.00  0.00    -0.244 OA
ATOM     25  N   UNL     1      -5.065  19.678  69.929  0.00  0.00    -0.153 NA
ATOM     26  C   UNL     1      -5.224  18.686  70.837  0.00  0.00    +0.285 A 
ATOM     27  O   UNL     1      -5.159  18.881  72.075  0.00  0.00    -0.265 OA
ATOM     28  C   UNL     1      -5.609  17.502  70.242  0.00  0.00    +0.081 A 
ATOM     29  C   UNL     1      -6.379  17.554  69.091  0.00  0.00    +0.087 A 
ENDBRANCH  20  22
ENDBRANCH  13  14
ENDBRANCH  12  13
ENDBRANCH   1  12
BRANCH   1  30
ATOM     30  O   UNL     1     -12.361  13.738  68.120  0.00  0.00    -0.411 OA
BRANCH  30  31
ATOM     31  C   UNL     1     -11.945  13.379  66.836  0.00  0.00    +0.148 A 
ATOM     32  C   UNL     1     -12.408  14.080  65.745  0.00  0.00    +0.037 A 
ATOM     33  C   UNL     1     -12.015  13.654  64.491  0.00  0.00    +0.003 A 
ATOM     34  C   UNL     1     -11.240  12.521  64.363  0.00  0.00    +0.000 A 
ATOM     35  C   UNL     1     -10.788  11.846  65.489  0.00  0.00    +0.003 A 
ATOM     36  C   UNL     1     -11.432  12.095  66.695  0.00  0.00    +0.037 A 
ENDBRANCH  30  31
ENDBRANCH   1  30
TORSDOF 11
ENDMDL
MODEL 4
REMARK VINA RESULT:      -7.9      1.679      4.683
REMARK  Name = 
REMARK  11 active torsions:
REMARK  status: ('A' for Active; 'I' for Inactive)
REMARK    1  A    between atoms: C_2  and  O_4
REMARK    2  A    between atoms: O_4  and  C_5
REMARK    3  A    between atoms: C_5  and  C_7
REMARK    4  A    between atoms: C_7  and  N_9
REMARK    5  A    between atoms: N_9  and  P_10
REMARK    6  A    between atoms: P_10  and  O_12
REMARK    7  A    between atoms: P_10  and  O_30
REMARK    8  A    between atoms: O_12  and  C_13
REMARK    9  A    between atoms: C_13  and  C_14
REMARK   10  A    between atoms: C_16  and  N_17
REMARK   11  A    between atoms: O_30  and  C_31
REMARK                            x       y       z     vdW  Elec       q    Type
REMARK                         _______ _______ _______ _____ _____    ______ ____
ROOT
ATOM      1  P   UNL     1     -10.805  15.027  68.752  0.00  0.00    +0.480 P 
ATOM      2  O   UNL     1     -12.148  15.317  68.095  0.00  0.00    -0.227 OA
ENDROOT
BRANCH   1   3
ATOM      3  N   UNL     1      -9.863  13.929  67.770  0.00  0.00    -0.101 NA
BRANCH   3   4
ATOM      4  C   UNL     1     -10.757  13.823  66.474  0.00  0.00    +0.183 C 
ATOM      5  C   UNL     1      -9.786  14.851  65.631  0.00  0.00    +0.031 C 
BRANCH   4   6
ATOM      6  C   UNL     1      -9.991  12.513  65.928  0.00  0.00    +0.333 C 
ATOM      7  O   UNL     1      -8.958  12.171  66.475  0.00  0.00    -0.249 OA
BRANCH   6   8
ATOM      8  O   UNL     1     -10.139  12.512  64.541  0.00  0.00    -0.451 OA
BRANCH   8  10
ATOM      9  C   UNL     1     -10.678  11.152  63.651  0.00  0.00    +0.047 C 
ATOM     10  C   UNL     1     -10.970  11.492  63.985  0.00  0.00    +0.169 C 
ATOM     11  C   UNL     1     -12.223  12.193  63.466  0.00  0.00    +0.047 C 
ENDBRANCH   8  10
ENDBRANCH   6   8
ENDBRANCH   4   6
ENDBRANCH   3   4
ENDBRANCH   1   3
BRANCH   1  12
ATOM     12  O   UNL     1     -10.063  16.544  68.896  0.00  0.00    -0.270 OA
BRANCH  12  13
ATOM     13  C   UNL     1     -10.648  17.387  68.030  0.00  0.00    +0.186 C 
BRANCH  13  14
ATOM     14  C   UNL     1      -9.902  18.844  68.100  0.00  0.00    +0.180 C 
ATOM     15  C   UNL     1      -9.750  18.796  66.386  0.00  0.00    +0.215 C 
ATOM     16  O   UNL     1     -10.245  20.223  66.310  0.00  0.00    -0.217 OA
ATOM     17  C   UNL     1      -8.156  19.176  66.362  0.00  0.00    +0.209 C 
ATOM     18  F   UNL     1      -8.158  20.075  65.447  0.00  0.00    -0.233 F 
ATOM     19  C   UNL     1      -7.419  17.940  66.240  0.00  0.00    +0.043 C 
ATOM     20  C   UNL     1      -8.099  19.729  67.898  0.00  0.00    +0.241 C 
ATOM     21  O   UNL     1      -8.509  18.300  68.327  0.00  0.00    -0.331 OA
BRANCH  20  22
ATOM     22  N   UNL     1      -6.535  19.481  68.136  0.00  0.00    -0.253 N 
ATOM     23  C   UNL     1      -5.910  20.678  68.240  0.00  0.00    +0.355 A 
ATOM     24  O   UNL     1      -6.006  21.574  67.404  0.00  0.00    -0.244 OA
ATOM     25  N   UNL     1      -5.111  21.043  69.271  0.00  0.00    -0.153 NA
ATOM     26  C   UNL     1      -5.293  20.466  70.482  0.00  0.00    +0.285 A 
ATOM     27  O   UNL     1      -5.265  21.116  71.556  0.00  0.00    -0.265 OA
ATOM     28  C   UNL     1      -5.657  19.140  70.371  0.00  0.00    +0.081 A 
ATOM     29  C   UNL     1      -6.392  18.741  69.267  0.00  0.00    +0.087 A 
ENDBRANCH  20  22
ENDBRANCH  13  14
ENDBRANCH  12  13
ENDBRANCH   1  12
BRANCH   1  30
ATOM     30  O   UNL     1     -11.034  14.283  70.264  0.00  0.00    -0.411 OA
BRANCH  30  31
ATOM     31  C   UNL     1     -11.991  14.810  71.134  0.00  0.00    +0.148 A 
ATOM     32  C   UNL     1     -11.599  15.619  72.177  0.00  0.00    +0.037 A 
ATOM     33  C   UNL     1     -12.574  16.071  73.045  0.00  0.00    +0.003 A 
ATOM     34  C   UNL     1     -13.879  15.655  72.888  0.00  0.00    +0.000 A 
ATOM     35  C   UNL     1     -14.235  14.844  71.818  0.00  0.00    +0.003 A 
ATOM     36  C   UNL     1     -13.221  14.162  71.156  0.00  0.00    +0.037 A 
ENDBRANCH  30  31
ENDBRANCH   1  30
TORSDOF 11
ENDMDL
MODEL 5
REMARK VINA RESULT:      -7.8      1.838      3.576
REMARK  Name = 
REMARK  11 active torsions:
REMARK  status: ('A' for Active; 'I' for Inactive)
REMARK    1  A    between atoms: C_2  and  O_4
REMARK    2  A    between atoms: O_4  and  C_5
REMARK    3  A    between atoms: C_5  and  C_7
REMARK    4  A    between atoms: C_7  and  N_9
REMARK    5  A    between atoms: N_9  and  P_10
REMARK    6  A    between atoms: P_10  and  O_12
REMARK    7  A    between atoms: P_10  and  O_30
REMARK    8  A    between atoms: O_12  and  C_13
REMARK    9  A    between atoms: C_13  and  C_14
REMARK   10  A    between atoms: C_16  and  N_17
REMARK   11  A    between atoms: O_30  and  C_31
REMARK                            x       y       z     vdW  Elec       q    Type
REMARK                         _______ _______ _______ _____ _____    ______ ____
ROOT
ATOM      1  P   UNL     1     -11.495  14.693  68.410  0.00  0.00    +0.480 P 
ATOM      2  O   UNL     1     -12.264  14.279  67.162  0.00  0.00    -0.227 OA
ENDROOT
BRANCH   1   3
ATOM      3  N   UNL     1     -11.209  13.313  69.443  0.00  0.00    -0.101 NA
BRANCH   3   4
ATOM      4  C   UNL     1     -11.342  12.121  68.418  0.00  0.00    +0.183 C 
ATOM      5  C   UNL     1      -9.724  12.104  68.114  0.00  0.00    +0.031 C 
BRANCH   4   6
ATOM      6  C   UNL     1     -11.227  10.989  69.560  0.00  0.00    +0.333 C 
ATOM      7  O   UNL     1     -10.316  10.184  69.494  0.00  0.00    -0.249 OA
BRANCH   6   8
ATOM      8  O   UNL     1     -12.532  10.617  69.888  0.00  0.00    -0.451 OA
BRANCH   8  10
ATOM      9  C   UNL     1     -13.122   9.885  71.318  0.00  0.00    +0.047 C 
ATOM     10  C   UNL     1     -12.792  10.333  71.263  0.00  0.00    +0.169 C 
ATOM     11  C   UNL     1     -13.176  11.660  71.910  0.00  0.00    +0.047 C 
ENDBRANCH   8  10
ENDBRANCH   6   8
ENDBRANCH   4   6
ENDBRANCH   3   4
ENDBRANCH   1   3
BRANCH   1  12
ATOM     12  O   UNL     1     -10.050  15.357  67.823  0.00  0.00    -0.270 OA
BRANCH  12  13
ATOM     13  C   UNL     1     -10.345  16.470  67.133  0.00  0.00    +0.186 C 
BRANCH  13  14
ATOM     14  C   UNL     1      -9.731  17.773  67.916  0.00  0.00    +0.180 C 
ATOM     15  C   UNL     1      -9.614  18.572  66.396  0.00  0.00    +0.215 C 
ATOM     16  O   UNL     1     -10.238  19.808  67.008  0.00  0.00    -0.217 OA
ATOM     17  C   UNL     1      -8.062  19.058  66.597  0.00  0.00    +0.209 C 
ATOM     18  F   UNL     1      -8.167  20.283  66.230  0.00  0.00    -0.233 F 
ATOM     19  C   UNL     1      -7.220  18.107  65.909  0.00  0.00    +0.043 C 
ATOM     20  C   UNL     1      -8.020  18.802  68.210  0.00  0.00    +0.241 C 
ATOM     21  O   UNL     1      -8.290  17.315  67.885  0.00  0.00    -0.331 OA
BRANCH  20  22
ATOM     22  N   UNL     1      -6.435  18.612  68.335  0.00  0.00    -0.253 N 
ATOM     23  C   UNL     1      -5.905  19.711  68.924  0.00  0.00    +0.355 A 
ATOM     24  O   UNL     1      -6.095  20.858  68.528  0.00  0.00    -0.244 OA
ATOM     25  N   UNL     1      -5.107  19.687  70.019  0.00  0.00    -0.153 NA
ATOM     26  C   UNL     1      -5.208  18.653  70.886  0.00  0.00    +0.285 A 
ATOM     27  O   UNL     1      -5.201  18.806  72.131  0.00  0.00    -0.265 OA
ATOM     28  C   UNL     1      -5.468  17.462  70.239  0.00  0.00    +0.081 A 
ATOM     29  C   UNL     1      -6.201  17.489  69.063  0.00  0.00    +0.087 A 
ENDBRANCH  20  22
ENDBRANCH  13  14
ENDBRANCH  12  13
ENDBRANCH   1  12
BRANCH   1  30
ATOM     30  O   UNL     1     -12.395  15.821  69.312  0.00  0.00    -0.411 OA
BRANCH  30  31
ATOM     31  C   UNL     1     -12.647  15.555  70.660  0.00  0.00    +0.148 A 
ATOM     32  C   UNL     1     -13.922  15.232  71.068  0.00  0.00    +0.037 A 
ATOM     33  C   UNL     1     -14.136  15.034  72.418  0.00  0.00    +0.003 A 
ATOM     34  C   UNL     1     -13.104  15.225  73.312  0.00  0.00    +0.000 A 
ATOM     35  C   UNL     1     -11.831  15.544  72.859  0.00  0.00    +0.003 A 
ATOM     36  C   UNL     1     -11.707  16.035  71.565  0.00  0.00    +0.037 A 
ENDBRANCH  30  31
ENDBRANCH   1  30
TORSDOF 11
ENDMDL
MODEL 6
REMARK VINA RESULT:      -7.7      1.706      2.242
REMARK  Name = 
REMARK  11 active torsions:
REMARK  status: ('A' for Active; 'I' for Inactive)
REMARK    1  A    between atoms: C_2  and  O_4
REMARK    2  A    between atoms: O_4  and  C_5
REMARK    3  A    between atoms: C_5  and  C_7
REMARK    4  A    between atoms: C_7  and  N_9
REMARK    5  A    between atoms: N_9  and  P_10
REMARK    6  A    between atoms: P_10  and  O_12
REMARK    7  A    between atoms: P_10  and  O_30
REMARK    8  A    between atoms: O_12  and  C_13
REMARK    9  A    between atoms: C_13  and  C_14
REMARK   10  A    between atoms: C_16  and  N_17
REMARK   11  A    between atoms: O_30  and  C_31
REMARK                            x       y       z     vdW  Elec       q    Type
REMARK                         _______ _______ _______ _____ _____    ______ ____
ROOT
ATOM      1  P   UNL     1      -9.664  14.034  67.791  0.00  0.00    +0.480 P 
ATOM      2  O   UNL     1      -8.476  13.229  68.302  0.00  0.00    -0.227 OA
ENDROOT
BRANCH   1   3
ATOM      3  N   UNL     1     -11.162  13.187  68.101  0.00  0.00    -0.101 NA
BRANCH   3   4
ATOM      4  C   UNL     1     -10.995  12.804  69.622  0.00  0.00    +0.183 C 
ATOM      5  C   UNL     1     -12.327  13.666  70.062  0.00  0.00    +0.031 C 
BRANCH   4   6
ATOM      6  C   UNL     1     -11.826  11.430  69.474  0.00  0.00    +0.333 C 
ATOM      7  O   UNL     1     -12.258  11.125  68.377  0.00  0.00    -0.249 OA
BRANCH   6   8
ATOM      8  O   UNL     1     -12.581  11.290  70.640  0.00  0.00    -0.451 OA
BRANCH   8  10
ATOM      9  C   UNL     1     -13.020   9.964  71.630  0.00  0.00    +0.047 C 
ATOM     10  C   UNL     1     -12.677   9.975  71.188  0.00  0.00    +0.169 C 
ATOM     11  C   UNL     1     -11.247   9.454  71.309  0.00  0.00    +0.047 C 
ENDBRANCH   8  10
ENDBRANCH   6   8
ENDBRANCH   4   6
ENDBRANCH   3   4
ENDBRANCH   1   3
BRANCH   1  12
ATOM     12  O   UNL     1      -9.580  15.503  68.633  0.00  0.00    -0.270 OA
BRANCH  12  13
ATOM     13  C   UNL     1     -10.502  16.336  68.124  0.00  0.00    +0.186 C 
BRANCH  13  14
ATOM     14  C   UNL     1     -10.022  17.885  68.357  0.00  0.00    +0.180 C 
ATOM     15  C   UNL     1     -10.073  18.109  66.652  0.00  0.00    +0.215 C 
ATOM     16  O   UNL     1     -10.818  19.410  66.853  0.00  0.00    -0.217 OA
ATOM     17  C   UNL     1      -8.586  18.789  66.541  0.00  0.00    +0.209 C 
ATOM     18  F   UNL     1      -8.859  19.790  65.786  0.00  0.00    -0.233 F 
ATOM     19  C   UNL     1      -7.663  17.749  66.153  0.00  0.00    +0.043 C 
ATOM     20  C   UNL     1      -8.442  19.121  68.134  0.00  0.00    +0.241 C 
ATOM     21  O   UNL     1      -8.538  17.595  68.364  0.00  0.00    -0.331 OA
BRANCH  20  22
ATOM     22  N   UNL     1      -6.842  19.149  68.183  0.00  0.00    -0.253 N 
ATOM     23  C   UNL     1      -6.426  20.435  68.271  0.00  0.00    +0.355 A 
ATOM     24  O   UNL     1      -6.774  21.321  67.494  0.00  0.00    -0.244 OA
ATOM     25  N   UNL     1      -5.585  20.909  69.222  0.00  0.00    -0.153 NA
ATOM     26  C   UNL     1      -5.519  20.277  70.418  0.00  0.00    +0.285 A 
ATOM     27  O   UNL     1      -5.477  20.893  71.510  0.00  0.00    -0.265 OA
ATOM     28  C   UNL     1      -5.658  18.911  70.286  0.00  0.00    +0.081 A 
ATOM     29  C   UNL     1      -6.439  18.417  69.254  0.00  0.00    +0.087 A 
ENDBRANCH  20  22
ENDBRANCH  13  14
ENDBRANCH  12  13
ENDBRANCH   1  12
BRANCH   1  30
ATOM     30  O   UNL     1      -9.548  14.255  66.108  0.00  0.00    -0.411 OA
BRANCH  30  31
ATOM     31  C   UNL     1     -10.428  13.559  65.277  0.00  0.00    +0.148 A 
ATOM     32  C   UNL     1     -10.088  12.308  64.812  0.00  0.00    +0.037 A 
ATOM     33  C   UNL     1     -10.963  11.681  63.947  0.00  0.00    +0.003 A 
ATOM     34  C   UNL     1     -12.100  12.337  63.527  0.00  0.00    +0.000 A 
ATOM     35  C   UNL     1     -12.411  13.596  64.024  0.00  0.00    +0.003 A 
ATOM     36  C   UNL     1     -11.394  14.322  64.631  0.00  0.00    +0.037 A 
ENDBRANCH  30  31
ENDBRANCH   1  30
TORSDOF 11
ENDMDL
MODEL 7
REMARK VINA RESULT:      -7.7      1.474      3.771
REMARK  Name = 
REMARK  11 active torsions:
REMARK  status: ('A' for Active; 'I' for Inactive)
REMARK    1  A    between atoms: C_2  and  O_4
REMARK    2  A    between atoms: O_4  and  C_5
REMARK    3  A    between atoms: C_5  and  C_7
REMARK    4  A    between atoms: C_7  and  N_9
REMARK    5  A    between atoms: N_9  and  P_10
REMARK    6  A    between atoms: P_10  and  O_12
REMARK    7  A    between atoms: P_10  and  O_30
REMARK    8  A    between atoms: O_12  and  C_13
REMARK    9  A    between atoms: C_13  and  C_14
REMARK   10  A    between atoms: C_16  and  N_17
REMARK   11  A    between atoms: O_30  and  C_31
REMARK                            x       y       z     vdW  Elec       q    Type
REMARK                         _______ _______ _______ _____ _____    ______ ____
ROOT
ATOM      1  P   UNL     1     -10.918  15.353  68.905  0.00  0.00    +0.480 P 
ATOM      2  O   UNL     1     -12.325  15.918  68.758  0.00  0.00    -0.227 OA
ENDROOT
BRANCH   1   3
ATOM      3  N   UNL     1     -10.640  14.082  67.737  0.00  0.00    -0.101 NA
BRANCH   3   4
ATOM      4  C   UNL     1     -12.073  13.431  67.636  0.00  0.00    +0.183 C 
ATOM      5  C   UNL     1     -12.222  13.826  66.045  0.00  0.00    +0.031 C 
BRANCH   4   6
ATOM      6  C   UNL     1     -11.496  11.962  67.307  0.00  0.00    +0.333 C 
ATOM      7  O   UNL     1     -11.317  11.652  66.143  0.00  0.00    -0.249 OA
BRANCH   6   8
ATOM      8  O   UNL     1     -12.069  11.089  68.234  0.00  0.00    -0.451 OA
BRANCH   8  10
ATOM      9  C   UNL     1     -10.963  10.680  69.475  0.00  0.00    +0.047 C 
ATOM     10  C   UNL     1     -11.427  10.991  69.505  0.00  0.00    +0.169 C 
ATOM     11  C   UNL     1     -12.520  10.649  70.514  0.00  0.00    +0.047 C 
ENDBRANCH   8  10
ENDBRANCH   6   8
ENDBRANCH   4   6
ENDBRANCH   3   4
ENDBRANCH   1   3
BRANCH   1  12
ATOM     12  O   UNL     1      -9.894  16.680  68.653  0.00  0.00    -0.270 OA
BRANCH  12  13
ATOM     13  C   UNL     1     -10.547  17.582  67.903  0.00  0.00    +0.186 C 
BRANCH  13  14
ATOM     14  C   UNL     1      -9.765  19.021  67.979  0.00  0.00    +0.180 C 
ATOM     15  C   UNL     1      -9.537  18.935  66.276  0.00  0.00    +0.215 C 
ATOM     16  O   UNL     1      -9.990  20.373  66.151  0.00  0.00    -0.217 OA
ATOM     17  C   UNL     1      -7.934  19.272  66.317  0.00  0.00    +0.209 C 
ATOM     18  F   UNL     1      -7.872  20.153  65.386  0.00  0.00    -0.233 F 
ATOM     19  C   UNL     1      -7.227  18.015  66.251  0.00  0.00    +0.043 C 
ATOM     20  C   UNL     1      -7.932  19.854  67.844  0.00  0.00    +0.241 C 
ATOM     21  O   UNL     1      -8.399  18.446  68.280  0.00  0.00    -0.331 OA
BRANCH  20  22
ATOM     22  N   UNL     1      -6.388  19.570  68.157  0.00  0.00    -0.253 N 
ATOM     23  C   UNL     1      -5.743  20.753  68.301  0.00  0.00    +0.355 A 
ATOM     24  O   UNL     1      -5.777  21.655  67.468  0.00  0.00    -0.244 OA
ATOM     25  N   UNL     1      -4.988  21.092  69.373  0.00  0.00    -0.153 NA
ATOM     26  C   UNL     1      -5.243  20.512  70.570  0.00  0.00    +0.285 A 
ATOM     27  O   UNL     1      -5.254  21.154  71.648  0.00  0.00    -0.265 OA
ATOM     28  C   UNL     1      -5.629  19.195  70.430  0.00  0.00    +0.081 A 
ATOM     29  C   UNL     1      -6.317  18.820  69.288  0.00  0.00    +0.087 A 
ENDBRANCH  20  22
ENDBRANCH  13  14
ENDBRANCH  12  13
ENDBRANCH   1  12
BRANCH   1  30
ATOM     30  O   UNL     1     -10.712  14.673  70.450  0.00  0.00    -0.411 OA
BRANCH  30  31
ATOM     31  C   UNL     1     -11.709  14.869  71.409  0.00  0.00    +0.148 A 
ATOM     32  C   UNL     1     -12.827  14.065  71.410  0.00  0.00    +0.037 A 
ATOM     33  C   UNL     1     -13.813  14.332  72.340  0.00  0.00    +0.003 A 
ATOM     34  C   UNL     1     -13.686  15.416  73.183  0.00  0.00    +0.000 A 
ATOM     35  C   UNL     1     -12.539  16.198  73.154  0.00  0.00    +0.003 A 
ATOM     36  C   UNL     1     -11.722  16.111  72.034  0.00  0.00    +0.037 A 
ENDBRANCH  30  31
ENDBRANCH   1  30
TORSDOF 11
ENDMDL
MODEL 8
REMARK VINA RESULT:      -7.7      2.018      4.693
REMARK  Name = 
REMARK  11 active torsions:
REMARK  status: ('A' for Active; 'I' for Inactive)
REMARK    1  A    between atoms: C_2  and  O_4
REMARK    2  A    between atoms: O_4  and  C_5
REMARK    3  A    between atoms: C_5  and  C_7
REMARK    4  A    between atoms: C_7  and  N_9
REMARK    5  A    between atoms: N_9  and  P_10
REMARK    6  A    between atoms: P_10  and  O_12
REMARK    7  A    between atoms: P_10  and  O_30
REMARK    8  A    between atoms: O_12  and  C_13
REMARK    9  A    between atoms: C_13  and  C_14
REMARK   10  A    between atoms: C_16  and  N_17
REMARK   11  A    between atoms: O_30  and  C_31
REMARK                            x       y       z     vdW  Elec       q    Type
REMARK                         _______ _______ _______ _____ _____    ______ ____
ROOT
ATOM      1  P   UNL     1     -10.521  16.208  68.851  0.00  0.00    +0.480 P 
ATOM      2  O   UNL     1     -12.001  16.416  68.558  0.00  0.00    -0.227 OA
ENDROOT
BRANCH   1   3
ATOM      3  N   UNL     1      -9.741  15.378  67.524  0.00  0.00    -0.101 NA
BRANCH   3   4
ATOM      4  C   UNL     1     -10.984  14.929  66.663  0.00  0.00    +0.183 C 
ATOM      5  C   UNL     1     -10.507  15.828  65.369  0.00  0.00    +0.031 C 
BRANCH   4   6
ATOM      6  C   UNL     1     -10.255  13.598  66.117  0.00  0.00    +0.333 C 
ATOM      7  O   UNL     1      -9.270  13.189  66.705  0.00  0.00    -0.249 OA
BRANCH   6   8
ATOM      8  O   UNL     1     -10.329  13.643  64.724  0.00  0.00    -0.451 OA
BRANCH   8  10
ATOM      9  C   UNL     1     -10.357  12.268  63.704  0.00  0.00    +0.047 C 
ATOM     10  C   UNL     1     -10.746  12.448  64.064  0.00  0.00    +0.169 C 
ATOM     11  C   UNL     1     -12.177  12.693  63.593  0.00  0.00    +0.047 C 
ENDBRANCH   8  10
ENDBRANCH   6   8
ENDBRANCH   4   6
ENDBRANCH   3   4
ENDBRANCH   1   3
BRANCH   1  12
ATOM     12  O   UNL     1      -9.904  17.771  69.071  0.00  0.00    -0.270 OA
BRANCH  12  13
ATOM     13  C   UNL     1     -10.000  18.433  67.907  0.00  0.00    +0.186 C 
BRANCH  13  14
ATOM     14  C   UNL     1      -8.764  19.502  67.785  0.00  0.00    +0.180 C 
ATOM     15  C   UNL     1      -8.176  18.598  66.444  0.00  0.00    +0.215 C 
ATOM     16  O   UNL     1      -7.986  19.885  65.671  0.00  0.00    -0.217 OA
ATOM     17  C   UNL     1      -6.633  18.504  66.986  0.00  0.00    +0.209 C 
ATOM     18  F   UNL     1      -6.004  18.818  65.913  0.00  0.00    -0.233 F 
ATOM     19  C   UNL     1      -6.480  17.222  67.632  0.00  0.00    +0.043 C 
ATOM     20  C   UNL     1      -6.779  19.693  68.096  0.00  0.00    +0.241 C 
ATOM     21  O   UNL     1      -7.850  18.804  68.769  0.00  0.00    -0.331 OA
BRANCH  20  22
ATOM     22  N   UNL     1      -5.597  19.206  69.060  0.00  0.00    -0.253 N 
ATOM     23  C   UNL     1      -4.524  20.015  68.886  0.00  0.00    +0.355 A 
ATOM     24  O   UNL     1      -4.017  20.251  67.792  0.00  0.00    -0.244 OA
ATOM     25  N   UNL     1      -3.881  20.666  69.885  0.00  0.00    -0.153 NA
ATOM     26  C   UNL     1      -4.558  20.967  71.018  0.00  0.00    +0.285 A 
ATOM     27  O   UNL     1      -4.455  22.076  71.597  0.00  0.00    -0.265 OA
ATOM     28  C   UNL     1      -5.463  19.982  71.354  0.00  0.00    +0.081 A 
ATOM     29  C   UNL     1      -6.052  19.244  70.339  0.00  0.00    +0.087 A 
ENDBRANCH  20  22
ENDBRANCH  13  14
ENDBRANCH  12  13
ENDBRANCH   1  12
BRANCH   1  30
ATOM     30  O   UNL     1     -10.322  15.242  70.237  0.00  0.00    -0.411 OA
BRANCH  30  31
ATOM     31  C   UNL     1     -11.418  15.045  71.080  0.00  0.00    +0.148 A 
ATOM     32  C   UNL     1     -12.259  13.974  70.872  0.00  0.00    +0.037 A 
ATOM     33  C   UNL     1     -13.362  13.851  71.695  0.00  0.00    +0.003 A 
ATOM     34  C   UNL     1     -13.623  14.819  72.642  0.00  0.00    +0.000 A 
ATOM     35  C   UNL     1     -12.746  15.880  72.824  0.00  0.00    +0.003 A 
ATOM     36  C   UNL     1     -11.838  16.152  71.809  0.00  0.00    +0.037 A 
ENDBRANCH  30  31
ENDBRANCH   1  30
TORSDOF 11
ENDMDL
MODEL 9
REMARK VINA RESULT:      -7.5      1.900      2.632
REMARK  Name = 
REMARK  11 active torsions:
REMARK  status: ('A' for Active; 'I' for Inactive)
REMARK    1  A    between atoms: C_2  and  O_4
REMARK    2  A    between atoms: O_4  and  C_5
REMARK    3  A    between atoms: C_5  and  C_7
REMARK    4  A    between atoms: C_7  and  N_9
REMARK    5  A    between atoms: N_9  and  P_10
REMARK    6  A    between atoms: P_10  and  O_12
REMARK    7  A    between atoms: P_10  and  O_30
REMARK    8  A    between atoms: O_12  and  C_13
REMARK    9  A    between atoms: C_13  and  C_14
REMARK   10  A    between atoms: C_16  and  N_17
REMARK   11  A    between atoms: O_30  and  C_31
REMARK                            x       y       z     vdW  Elec       q    Type
REMARK                         _______ _______ _______ _____ _____    ______ ____
ROOT
ATOM      1  P   UNL     1      -9.896  16.798  68.485  0.00  0.00    +0.480 P 
ATOM      2  O   UNL     1      -8.738  16.150  69.232  0.00  0.00    -0.227 OA
ENDROOT
BRANCH   1   3
ATOM      3  N   UNL     1     -11.417  16.418  69.258  0.00  0.00    -0.101 NA
BRANCH   3   4
ATOM      4  C   UNL     1     -10.951  15.429  70.396  0.00  0.00    +0.183 C 
ATOM      5  C   UNL     1     -11.543  16.401  71.586  0.00  0.00    +0.031 C 
BRANCH   4   6
ATOM      6  C   UNL     1     -12.300  14.548  70.325  0.00  0.00    +0.333 C 
ATOM      7  O   UNL     1     -12.491  13.850  69.346  0.00  0.00    -0.249 OA
BRANCH   6   8
ATOM      8  O   UNL     1     -13.311  15.316  70.904  0.00  0.00    -0.451 OA
BRANCH   8  10
ATOM      9  C   UNL     1     -14.820  14.957  71.629  0.00  0.00    +0.047 C 
ATOM     10  C   UNL     1     -14.419  14.606  71.458  0.00  0.00    +0.169 C 
ATOM     11  C   UNL     1     -13.833  13.578  72.422  0.00  0.00    +0.047 C 
ENDBRANCH   8  10
ENDBRANCH   6   8
ENDBRANCH   4   6
ENDBRANCH   3   4
ENDBRANCH   1   3
BRANCH   1  12
ATOM     12  O   UNL     1      -9.560  18.459  68.530  0.00  0.00    -0.270 OA
BRANCH  12  13
ATOM     13  C   UNL     1      -9.119  18.834  67.318  0.00  0.00    +0.186 C 
BRANCH  13  14
ATOM     14  C   UNL     1      -7.903  19.919  67.495  0.00  0.00    +0.180 C 
ATOM     15  C   UNL     1      -7.069  19.123  66.217  0.00  0.00    +0.215 C 
ATOM     16  O   UNL     1      -6.773  20.465  65.585  0.00  0.00    -0.217 OA
ATOM     17  C   UNL     1      -5.644  19.001  67.016  0.00  0.00    +0.209 C 
ATOM     18  F   UNL     1      -4.843  19.400  66.096  0.00  0.00    -0.233 F 
ATOM     19  C   UNL     1      -5.580  17.676  67.585  0.00  0.00    +0.043 C 
ATOM     20  C   UNL     1      -6.009  20.104  68.165  0.00  0.00    +0.241 C 
ATOM     21  O   UNL     1      -7.163  19.158  68.571  0.00  0.00    -0.331 OA
BRANCH  20  22
ATOM     22  N   UNL     1      -5.005  19.556  69.285  0.00  0.00    -0.253 N 
ATOM     23  C   UNL     1      -3.959  20.410  69.396  0.00  0.00    +0.355 A 
ATOM     24  O   UNL     1      -3.269  20.772  68.446  0.00  0.00    -0.244 OA
ATOM     25  N   UNL     1      -3.546  20.974  70.556  0.00  0.00    -0.153 NA
ATOM     26  C   UNL     1      -4.436  21.138  71.564  0.00  0.00    +0.285 A 
ATOM     27  O   UNL     1      -4.497  22.184  72.253  0.00  0.00    -0.265 OA
ATOM     28  C   UNL     1      -5.339  20.097  71.626  0.00  0.00    +0.081 A 
ATOM     29  C   UNL     1      -5.692  19.450  70.453  0.00  0.00    +0.087 A 
ENDBRANCH  20  22
ENDBRANCH  13  14
ENDBRANCH  12  13
ENDBRANCH   1  12
BRANCH   1  30
ATOM     30  O   UNL     1      -9.978  16.206  66.892  0.00  0.00    -0.411 OA
BRANCH  30  31
ATOM     31  C   UNL     1     -10.541  14.947  66.671  0.00  0.00    +0.148 A 
ATOM     32  C   UNL     1      -9.843  13.813  67.020  0.00  0.00    +0.037 A 
ATOM     33  C   UNL     1     -10.415  12.589  66.731  0.00  0.00    +0.003 A 
ATOM     34  C   UNL     1     -11.615  12.535  66.054  0.00  0.00    +0.000 A 
ATOM     35  C   UNL     1     -12.291  13.703  65.726  0.00  0.00    +0.003 A 
ATOM     36  C   UNL     1     -11.574  14.893  65.742  0.00  0.00    +0.037 A 
ENDBRANCH  30  31
ENDBRANCH   1  30
TORSDOF 11
ENDMDL
