MODEL 1
REMARK VINA RESULT:      -7.0      0.000      0.000
REMARK  Name = 
REMARK  8 active torsions:
REMARK  status: ('A' for Active; 'I' for Inactive)
REMARK    1  A    between atoms: C_2  and  C_3
REMARK    2  A    between atoms: CA_4  and  C_5
REMARK    3  A    between atoms: CA_11  and  N_12
REMARK    4  A    between atoms: C_13  and  C_15
REMARK    5  A    between atoms: C_15  and  C_22
REMARK    6  A    between atoms: N_16  and  O_17
REMARK    7  A    between atoms: O_17  and  C_18
REMARK    8  A    between atoms: C_18  and  C_19
REMARK                            x       y       z     vdW  Elec       q    Type
REMARK                         _______ _______ _______ _____ _____    ______ ____
ROOT
ATOM      1  N   UNL     1     -10.300  14.461  68.666  0.00  0.00    -0.190 NA
ATOM      2  C   UNL     1     -11.378  13.539  68.872  0.00  0.00    +0.288 C 
ATOM      3  O   UNL     1     -12.433  14.024  69.391  0.00  0.00    -0.267 OA
ENDROOT
BRANCH   1  11
ATOM      4  C   UNL     1      -7.666  18.518  68.695  0.00  0.00    +0.009 C 
ATOM      5  C   UNL     1      -6.954  17.224  68.959  0.00  0.00    +0.087 C 
ATOM      6  S   UNL     1      -8.115  15.818  68.835  0.00  0.00    -0.114 S 
ATOM      7  C   UNL     1      -9.757  16.775  69.099  0.00  0.00    +0.157 C 
ATOM      8  N   UNL     1      -9.586  17.400  67.717  0.00  0.00    -0.242 N 
ATOM      9  C   UNL     1      -9.763  16.134  67.021  0.00  0.00    +0.253 C 
ATOM     10  O   UNL     1     -10.134  16.036  65.812  0.00  0.00    -0.273 OA
ATOM     11  CA  UNL     1     -10.864  15.876  68.187  0.00  0.00    +0.201 C 
ATOM     12  CA  UNL     1      -8.618  18.461  67.761  0.00  0.00    +0.132 C 
BRANCH  12  13
ATOM     13  C   UNL     1      -8.957  19.562  66.881  0.00  0.00    +0.401 C 
ATOM     14  OXT UNL     1      -8.403  19.625  65.595  0.00  0.00    -0.239 OA
ATOM     15  O   UNL     1      -9.843  20.419  67.111  0.00  0.00    -0.239 OA
ENDBRANCH  12  13
BRANCH   4  17
ATOM     16  C   UNL     1      -6.422  20.035  69.211  0.00  0.00    -0.000 C 
ATOM     17  C   UNL     1      -6.796  19.704  68.705  0.00  0.00    -0.002 C 
ENDBRANCH   4  17
ENDBRANCH   1  11
BRANCH   2  18
ATOM     18  C   UNL     1     -11.635  12.363  68.026  0.00  0.00    +0.192 C 
ATOM     19  N   UNL     1     -11.966  11.214  68.532  0.00  0.00    -0.076 NA
BRANCH  18  20
ATOM     20  C   UNL     1     -11.275  12.361  66.591  0.00  0.00    +0.115 A 
ATOM     21  N   UNL     1     -11.967  12.982  65.603  0.00  0.00    -0.220 NA
ATOM     22  C   UNL     1     -12.072  12.203  64.504  0.00  0.00    +0.201 A 
ATOM     23  N   UNL     1     -13.121  12.176  63.526  0.00  0.00    -0.100 NA
ATOM     24  S   UNL     1     -10.507  11.502  64.488  0.00  0.00    -0.048 S 
ATOM     25  C   UNL     1     -10.054  11.910  66.097  0.00  0.00    +0.059 A 
ENDBRANCH  18  20
BRANCH  19  26
ATOM     26  O   UNL     1     -11.717  11.002  69.877  0.00  0.00    -0.365 OA
BRANCH  26  27
ATOM     27  C   UNL     1     -12.142   9.845  70.563  0.00  0.00    +0.351 C 
BRANCH  27  28
ATOM     28  C   UNL     1     -13.143  10.203  71.616  0.00  0.00    +0.411 C 
ATOM     29  O   UNL     1     -13.544   9.171  72.466  0.00  0.00    -0.241 OA
ATOM     30  O   UNL     1     -13.194  11.402  71.977  0.00  0.00    -0.241 OA
ENDBRANCH  27  28
ENDBRANCH  26  27
ENDBRANCH  19  26
ENDBRANCH   2  18
TORSDOF 8
ENDMDL
MODEL 2
REMARK VINA RESULT:      -7.0      2.113      2.663
REMARK  Name = 
REMARK  8 active torsions:
REMARK  status: ('A' for Active; 'I' for Inactive)
REMARK    1  A    between atoms: C_2  and  C_3
REMARK    2  A    between atoms: CA_4  and  C_5
REMARK    3  A    between atoms: CA_11  and  N_12
REMARK    4  A    between atoms: C_13  and  C_15
REMARK    5  A    between atoms: C_15  and  C_22
REMARK    6  A    between atoms: N_16  and  O_17
REMARK    7  A    between atoms: O_17  and  C_18
REMARK    8  A    between atoms: C_18  and  C_19
REMARK                            x       y       z     vdW  Elec       q    Type
REMARK                         _______ _______ _______ _____ _____    ______ ____
ROOT
ATOM      1  N   UNL     1      -9.888  15.913  68.984  0.00  0.00    -0.190 NA
ATOM      2  C   UNL     1     -11.222  15.472  69.265  0.00  0.00    +0.288 C 
ATOM      3  O   UNL     1     -12.116  16.376  69.271  0.00  0.00    -0.267 OA
ENDROOT
BRANCH   1  11
ATOM      4  C   UNL     1      -6.050  18.667  67.941  0.00  0.00    +0.009 C 
ATOM      5  C   UNL     1      -5.839  17.497  68.857  0.00  0.00    +0.087 C 
ATOM      6  S   UNL     1      -7.393  16.557  69.063  0.00  0.00    -0.114 S 
ATOM      7  C   UNL     1      -8.630  17.929  68.548  0.00  0.00    +0.157 C 
ATOM      8  N   UNL     1      -8.153  17.786  67.106  0.00  0.00    -0.242 N 
ATOM      9  C   UNL     1      -8.691  16.442  66.963  0.00  0.00    +0.253 C 
ATOM     10  O   UNL     1      -8.979  15.908  65.849  0.00  0.00    -0.273 OA
ATOM     11  CA  UNL     1      -9.902  17.048  67.862  0.00  0.00    +0.201 C 
ATOM     12  CA  UNL     1      -6.890  18.448  66.927  0.00  0.00    +0.132 C 
BRANCH  12  13
ATOM     13  C   UNL     1      -6.768  19.074  65.624  0.00  0.00    +0.401 C 
ATOM     14  OXT UNL     1      -6.202  18.363  64.558  0.00  0.00    -0.239 OA
ATOM     15  O   UNL     1      -7.270  20.178  65.309  0.00  0.00    -0.239 OA
ENDBRANCH  12  13
BRANCH   4  17
ATOM     16  C   UNL     1      -4.339  19.748  68.070  0.00  0.00    -0.000 C 
ATOM     17  C   UNL     1      -4.834  19.445  67.660  0.00  0.00    -0.002 C 
ENDBRANCH   4  17
ENDBRANCH   1  11
BRANCH   2  18
ATOM     18  C   UNL     1     -11.745  14.141  68.918  0.00  0.00    +0.192 C 
ATOM     19  N   UNL     1     -12.368  13.402  69.786  0.00  0.00    -0.076 NA
BRANCH  18  20
ATOM     20  C   UNL     1     -11.361  13.474  67.655  0.00  0.00    +0.115 A 
ATOM     21  N   UNL     1     -11.795  13.819  66.417  0.00  0.00    -0.220 NA
ATOM     22  C   UNL     1     -12.104  12.730  65.677  0.00  0.00    +0.201 A 
ATOM     23  N   UNL     1     -13.080  12.607  64.634  0.00  0.00    -0.100 NA
ATOM     24  S   UNL     1     -10.833  11.681  66.153  0.00  0.00    -0.048 S 
ATOM     25  C   UNL     1     -10.324  12.550  67.548  0.00  0.00    +0.059 A 
ENDBRANCH  18  20
BRANCH  19  26
ATOM     26  O   UNL     1     -12.215  13.709  71.126  0.00  0.00    -0.365 OA
BRANCH  26  27
ATOM     27  C   UNL     1     -13.301  13.798  72.022  0.00  0.00    +0.351 C 
BRANCH  27  28
ATOM     28  C   UNL     1     -13.662  15.231  72.262  0.00  0.00    +0.411 C 
ATOM     29  O   UNL     1     -12.611  16.087  72.593  0.00  0.00    -0.241 OA
ATOM     30  O   UNL     1     -14.705  15.660  71.715  0.00  0.00    -0.241 OA
ENDBRANCH  27  28
ENDBRANCH  26  27
ENDBRANCH  19  26
ENDBRANCH   2  18
TORSDOF 8
ENDMDL
MODEL 3
REMARK VINA RESULT:      -6.8      2.089      4.059
REMARK  Name = 
REMARK  8 active torsions:
REMARK  status: ('A' for Active; 'I' for Inactive)
REMARK    1  A    between atoms: C_2  and  C_3
REMARK    2  A    between atoms: CA_4  and  C_5
REMARK    3  A    between atoms: CA_11  and  N_12
REMARK    4  A    between atoms: C_13  and  C_15
REMARK    5  A    between atoms: C_15  and  C_22
REMARK    6  A    between atoms: N_16  and  O_17
REMARK    7  A    between atoms: O_17  and  C_18
REMARK    8  A    between atoms: C_18  and  C_19
REMARK                            x       y       z     vdW  Elec       q    Type
REMARK                         _______ _______ _______ _____ _____    ______ ____
ROOT
ATOM      1  N   UNL     1      -9.905  14.379  68.196  0.00  0.00    -0.190 NA
ATOM      2  C   UNL     1     -10.947  13.540  68.709  0.00  0.00    +0.288 C 
ATOM      3  O   UNL     1     -11.852  14.128  69.383  0.00  0.00    -0.267 OA
ENDROOT
BRANCH   1  11
ATOM      4  C   UNL     1      -7.581  18.592  68.696  0.00  0.00    +0.009 C 
ATOM      5  C   UNL     1      -6.817  17.336  68.995  0.00  0.00    +0.087 C 
ATOM      6  S   UNL     1      -7.854  15.865  68.679  0.00  0.00    -0.114 S 
ATOM      7  C   UNL     1      -9.578  16.702  68.778  0.00  0.00    +0.157 C 
ATOM      8  N   UNL     1      -9.289  17.398  67.452  0.00  0.00    -0.242 N 
ATOM      9  C   UNL     1      -9.295  16.157  66.692  0.00  0.00    +0.253 C 
ATOM     10  O   UNL     1      -9.513  16.091  65.444  0.00  0.00    -0.273 OA
ATOM     11  CA  UNL     1     -10.505  15.775  67.707  0.00  0.00    +0.201 C 
ATOM     12  CA  UNL     1      -8.409  18.516  67.652  0.00  0.00    +0.132 C 
BRANCH  12  13
ATOM     13  C   UNL     1      -8.718  19.633  66.779  0.00  0.00    +0.401 C 
ATOM     14  OXT UNL     1      -8.061  19.758  65.548  0.00  0.00    -0.239 OA
ATOM     15  O   UNL     1      -9.654  20.447  66.959  0.00  0.00    -0.239 OA
ENDBRANCH  12  13
BRANCH   4  17
ATOM     16  C   UNL     1      -6.161  19.976  69.126  0.00  0.00    -0.000 C 
ATOM     17  C   UNL     1      -6.802  19.830  68.855  0.00  0.00    -0.002 C 
ENDBRANCH   4  17
ENDBRANCH   1  11
BRANCH   2  18
ATOM     18  C   UNL     1     -11.418  12.310  68.054  0.00  0.00    +0.192 C 
ATOM     19  N   UNL     1     -11.942  12.325  66.865  0.00  0.00    -0.076 NA
BRANCH  18  20
ATOM     20  C   UNL     1     -11.562  11.047  68.810  0.00  0.00    +0.115 A 
ATOM     21  N   UNL     1     -12.669  10.656  69.490  0.00  0.00    -0.220 NA
ATOM     22  C   UNL     1     -12.352  10.117  70.688  0.00  0.00    +0.201 A 
ATOM     23  N   UNL     1     -13.120  10.117  71.899  0.00  0.00    -0.100 NA
ATOM     24  S   UNL     1     -10.949   9.231  70.251  0.00  0.00    -0.048 S 
ATOM     25  C   UNL     1     -10.659   9.989  68.735  0.00  0.00    +0.059 A 
ENDBRANCH  18  20
BRANCH  19  26
ATOM     26  O   UNL     1     -12.393  13.536  66.371  0.00  0.00    -0.365 OA
BRANCH  26  27
ATOM     27  C   UNL     1     -12.301  13.892  65.008  0.00  0.00    +0.351 C 
BRANCH  27  28
ATOM     28  C   UNL     1     -11.986  12.688  64.177  0.00  0.00    +0.411 C 
ATOM     29  O   UNL     1     -13.064  12.082  63.530  0.00  0.00    -0.241 OA
ATOM     30  O   UNL     1     -10.818  12.585  63.733  0.00  0.00    -0.241 OA
ENDBRANCH  27  28
ENDBRANCH  26  27
ENDBRANCH  19  26
ENDBRANCH   2  18
TORSDOF 8
ENDMDL
MODEL 4
REMARK VINA RESULT:      -6.6      3.092      6.849
REMARK  Name = 
REMARK  8 active torsions:
REMARK  status: ('A' for Active; 'I' for Inactive)
REMARK    1  A    between atoms: C_2  and  C_3
REMARK    2  A    between atoms: CA_4  and  C_5
REMARK    3  A    between atoms: CA_11  and  N_12
REMARK    4  A    between atoms: C_13  and  C_15
REMARK    5  A    between atoms: C_15  and  C_22
REMARK    6  A    between atoms: N_16  and  O_17
REMARK    7  A    between atoms: O_17  and  C_18
REMARK    8  A    between atoms: C_18  and  C_19
REMARK                            x       y       z     vdW  Elec       q    Type
REMARK                         _______ _______ _______ _____ _____    ______ ____
ROOT
ATOM      1  N   UNL     1     -10.582  14.234  68.434  0.00  0.00    -0.190 NA
ATOM      2  C   UNL     1      -9.931  15.184  69.287  0.00  0.00    +0.288 C 
ATOM      3  O   UNL     1      -8.676  15.036  69.428  0.00  0.00    -0.267 OA
ENDROOT
BRANCH   1  11
ATOM      4  C   UNL     1      -9.996   9.750  66.715  0.00  0.00    +0.009 C 
ATOM      5  C   UNL     1     -11.057   9.964  67.754  0.00  0.00    +0.087 C 
ATOM      6  S   UNL     1     -11.156  11.731  68.214  0.00  0.00    -0.114 S 
ATOM      7  C   UNL     1      -9.412  12.278  67.632  0.00  0.00    +0.157 C 
ATOM      8  N   UNL     1      -9.870  12.116  66.186  0.00  0.00    -0.242 N 
ATOM      9  C   UNL     1     -10.822  13.215  66.267  0.00  0.00    +0.253 C 
ATOM     10  O   UNL     1     -11.247  13.859  65.261  0.00  0.00    -0.273 OA
ATOM     11  CA  UNL     1      -9.658  13.890  67.178  0.00  0.00    +0.201 C 
ATOM     12  CA  UNL     1      -9.881  10.728  65.814  0.00  0.00    +0.132 C 
BRANCH  12  13
ATOM     13  C   UNL     1      -9.484  10.517  64.435  0.00  0.00    +0.401 C 
ATOM     14  OXT UNL     1     -10.408  10.726  63.403  0.00  0.00    -0.239 OA
ATOM     15  O   UNL     1      -8.311  10.298  64.051  0.00  0.00    -0.239 OA
ENDBRANCH  12  13
BRANCH   4  17
ATOM     16  C   UNL     1      -9.834   7.735  66.554  0.00  0.00    -0.000 C 
ATOM     17  C   UNL     1      -9.890   8.365  66.231  0.00  0.00    -0.002 C 
ENDBRANCH   4  17
ENDBRANCH   1  11
BRANCH   2  18
ATOM     18  C   UNL     1     -10.375  16.575  69.466  0.00  0.00    +0.192 C 
ATOM     19  N   UNL     1     -11.194  16.916  70.414  0.00  0.00    -0.076 NA
BRANCH  18  20
ATOM     20  C   UNL     1     -10.123  17.598  68.427  0.00  0.00    +0.115 A 
ATOM     21  N   UNL     1     -11.001  17.979  67.466  0.00  0.00    -0.220 NA
ATOM     22  C   UNL     1     -10.394  18.119  66.266  0.00  0.00    +0.201 A 
ATOM     23  N   UNL     1     -10.949  17.929  64.957  0.00  0.00    -0.100 NA
ATOM     24  S   UNL     1      -8.917  18.835  66.764  0.00  0.00    -0.048 S 
ATOM     25  C   UNL     1      -9.035  18.468  68.441  0.00  0.00    +0.059 A 
ENDBRANCH  18  20
BRANCH  19  26
ATOM     26  O   UNL     1     -11.934  15.917  71.022  0.00  0.00    -0.365 OA
BRANCH  26  27
ATOM     27  C   UNL     1     -12.256  15.928  72.396  0.00  0.00    +0.351 C 
BRANCH  27  28
ATOM     28  C   UNL     1     -13.573  15.255  72.626  0.00  0.00    +0.411 C 
ATOM     29  O   UNL     1     -14.682  15.839  72.013  0.00  0.00    -0.241 OA
ATOM     30  O   UNL     1     -13.553  14.035  72.912  0.00  0.00    -0.241 OA
ENDBRANCH  27  28
ENDBRANCH  26  27
ENDBRANCH  19  26
ENDBRANCH   2  18
TORSDOF 8
ENDMDL
MODEL 5
REMARK VINA RESULT:      -6.6      2.550      3.175
REMARK  Name = 
REMARK  8 active torsions:
REMARK  status: ('A' for Active; 'I' for Inactive)
REMARK    1  A    between atoms: C_2  and  C_3
REMARK    2  A    between atoms: CA_4  and  C_5
REMARK    3  A    between atoms: CA_11  and  N_12
REMARK    4  A    between atoms: C_13  and  C_15
REMARK    5  A    between atoms: C_15  and  C_22
REMARK    6  A    between atoms: N_16  and  O_17
REMARK    7  A    between atoms: O_17  and  C_18
REMARK    8  A    between atoms: C_18  and  C_19
REMARK                            x       y       z     vdW  Elec       q    Type
REMARK                         _______ _______ _______ _____ _____    ______ ____
ROOT
ATOM      1  N   UNL     1     -11.203  15.701  67.617  0.00  0.00    -0.190 NA
ATOM      2  C   UNL     1     -11.948  14.482  67.501  0.00  0.00    +0.288 C 
ATOM      3  O   UNL     1     -12.352  14.186  66.332  0.00  0.00    -0.267 OA
ENDROOT
BRANCH   1  11
ATOM      4  C   UNL     1      -8.074  19.364  67.178  0.00  0.00    +0.009 C 
ATOM      5  C   UNL     1      -8.754  19.184  68.504  0.00  0.00    +0.087 C 
ATOM      6  S   UNL     1      -9.836  17.711  68.474  0.00  0.00    -0.114 S 
ATOM      7  C   UNL     1     -10.059  17.556  66.574  0.00  0.00    +0.157 C 
ATOM      8  N   UNL     1      -8.606  17.105  66.465  0.00  0.00    -0.242 N 
ATOM      9  C   UNL     1      -8.842  15.858  67.177  0.00  0.00    +0.253 C 
ATOM     10  O   UNL     1      -8.105  14.830  67.070  0.00  0.00    -0.273 OA
ATOM     11  CA  UNL     1     -10.243  15.888  66.355  0.00  0.00    +0.201 C 
ATOM     12  CA  UNL     1      -7.720  18.232  66.565  0.00  0.00    +0.132 C 
BRANCH  12  13
ATOM     13  C   UNL     1      -6.554  18.103  65.713  0.00  0.00    +0.401 C 
ATOM     14  OXT UNL     1      -5.578  17.142  66.005  0.00  0.00    -0.239 OA
ATOM     15  O   UNL     1      -6.398  18.690  64.616  0.00  0.00    -0.239 OA
ENDBRANCH  12  13
BRANCH   4  17
ATOM     16  C   UNL     1      -6.655  20.753  67.589  0.00  0.00    -0.000 C 
ATOM     17  C   UNL     1      -7.127  20.488  67.128  0.00  0.00    -0.002 C 
ENDBRANCH   4  17
ENDBRANCH   1  11
BRANCH   2  18
ATOM     18  C   UNL     1     -11.749  13.305  68.361  0.00  0.00    +0.192 C 
ATOM     19  N   UNL     1     -11.924  13.358  69.647  0.00  0.00    -0.076 NA
BRANCH  18  20
ATOM     20  C   UNL     1     -11.090  12.085  67.846  0.00  0.00    +0.115 A 
ATOM     21  N   UNL     1     -11.570  10.821  67.959  0.00  0.00    -0.220 NA
ATOM     22  C   UNL     1     -10.593   9.946  68.288  0.00  0.00    +0.201 A 
ATOM     23  N   UNL     1     -10.700   8.730  69.041  0.00  0.00    -0.100 NA
ATOM     24  S   UNL     1      -9.311  10.562  67.330  0.00  0.00    -0.048 S 
ATOM     25  C   UNL     1     -10.002  12.097  66.976  0.00  0.00    +0.059 A 
ENDBRANCH  18  20
BRANCH  19  26
ATOM     26  O   UNL     1     -11.937  14.604  70.248  0.00  0.00    -0.365 OA
BRANCH  26  27
ATOM     27  C   UNL     1     -12.320  14.805  71.591  0.00  0.00    +0.351 C 
BRANCH  27  28
ATOM     28  C   UNL     1     -13.777  14.512  71.766  0.00  0.00    +0.411 C 
ATOM     29  O   UNL     1     -14.096  13.390  72.532  0.00  0.00    -0.241 OA
ATOM     30  O   UNL     1     -14.574  15.473  71.655  0.00  0.00    -0.241 OA
ENDBRANCH  27  28
ENDBRANCH  26  27
ENDBRANCH  19  26
ENDBRANCH   2  18
TORSDOF 8
ENDMDL
MODEL 6
REMARK VINA RESULT:      -6.5      3.318      8.660
REMARK  Name = 
REMARK  8 active torsions:
REMARK  status: ('A' for Active; 'I' for Inactive)
REMARK    1  A    between atoms: C_2  and  C_3
REMARK    2  A    between atoms: CA_4  and  C_5
REMARK    3  A    between atoms: CA_11  and  N_12
REMARK    4  A    between atoms: C_13  and  C_15
REMARK    5  A    between atoms: C_15  and  C_22
REMARK    6  A    between atoms: N_16  and  O_17
REMARK    7  A    between atoms: O_17  and  C_18
REMARK    8  A    between atoms: C_18  and  C_19
REMARK                            x       y       z     vdW  Elec       q    Type
REMARK                         _______ _______ _______ _____ _____    ______ ____
ROOT
ATOM      1  N   UNL     1     -10.772  12.332  68.348  0.00  0.00    -0.190 NA
ATOM      2  C   UNL     1     -11.422  13.503  67.838  0.00  0.00    +0.288 C 
ATOM      3  O   UNL     1     -12.405  13.297  67.058  0.00  0.00    -0.267 OA
ENDROOT
BRANCH   1  11
ATOM      4  C   UNL     1      -9.577   7.912  69.910  0.00  0.00    +0.009 C 
ATOM      5  C   UNL     1      -8.492   8.946  69.850  0.00  0.00    +0.087 C 
ATOM      6  S   UNL     1      -9.168  10.553  69.301  0.00  0.00    -0.114 S 
ATOM      7  C   UNL     1     -10.764   9.918  68.447  0.00  0.00    +0.157 C 
ATOM      8  N   UNL     1     -11.337   9.582  69.821  0.00  0.00    -0.242 N 
ATOM      9  C   UNL     1     -11.419  10.977  70.230  0.00  0.00    +0.253 C 
ATOM     10  O   UNL     1     -12.197  11.405  71.135  0.00  0.00    -0.273 OA
ATOM     11  CA  UNL     1     -11.846  11.198  68.678  0.00  0.00    +0.201 C 
ATOM     12  CA  UNL     1     -10.766   8.362  70.320  0.00  0.00    +0.132 C 
BRANCH  12  13
ATOM     13  C   UNL     1     -11.717   7.567  71.073  0.00  0.00    +0.401 C 
ATOM     14  OXT UNL     1     -12.418   6.533  70.440  0.00  0.00    -0.239 OA
ATOM     15  O   UNL     1     -11.872   7.621  72.316  0.00  0.00    -0.239 OA
ENDBRANCH  12  13
BRANCH   4  17
ATOM     16  C   UNL     1      -8.595   6.171  70.253  0.00  0.00    -0.000 C 
ATOM     17  C   UNL     1      -9.140   6.599  70.410  0.00  0.00    -0.002 C 
ENDBRANCH   4  17
ENDBRANCH   1  11
BRANCH   2  18
ATOM     18  C   UNL     1     -11.513  14.781  68.561  0.00  0.00    +0.192 C 
ATOM     19  N   UNL     1     -11.014  15.878  68.077  0.00  0.00    -0.076 NA
BRANCH  18  20
ATOM     20  C   UNL     1     -11.936  14.830  69.977  0.00  0.00    +0.115 A 
ATOM     21  N   UNL     1     -13.130  14.401  70.459  0.00  0.00    -0.220 NA
ATOM     22  C   UNL     1     -13.639  15.265  71.365  0.00  0.00    +0.201 A 
ATOM     23  N   UNL     1     -15.015  15.533  71.669  0.00  0.00    -0.100 NA
ATOM     24  S   UNL     1     -12.203  15.704  72.194  0.00  0.00    -0.048 S 
ATOM     25  C   UNL     1     -11.077  15.112  71.037  0.00  0.00    +0.059 A 
ENDBRANCH  18  20
BRANCH  19  26
ATOM     26  O   UNL     1     -10.080  15.773  67.062  0.00  0.00    -0.365 OA
BRANCH  26  27
ATOM     27  C   UNL     1     -10.147  16.533  65.875  0.00  0.00    +0.351 C 
BRANCH  27  28
ATOM     28  C   UNL     1     -10.973  15.823  64.849  0.00  0.00    +0.411 C 
ATOM     29  O   UNL     1     -11.588  16.625  63.886  0.00  0.00    -0.241 OA
ATOM     30  O   UNL     1     -10.697  14.623  64.617  0.00  0.00    -0.241 OA
ENDBRANCH  27  28
ENDBRANCH  26  27
ENDBRANCH  19  26
ENDBRANCH   2  18
TORSDOF 8
ENDMDL
MODEL 7
REMARK VINA RESULT:      -6.5      2.953      9.044
REMARK  Name = 
REMARK  8 active torsions:
REMARK  status: ('A' for Active; 'I' for Inactive)
REMARK    1  A    between atoms: C_2  and  C_3
REMARK    2  A    between atoms: CA_4  and  C_5
REMARK    3  A    between atoms: CA_11  and  N_12
REMARK    4  A    between atoms: C_13  and  C_15
REMARK    5  A    between atoms: C_15  and  C_22
REMARK    6  A    between atoms: N_16  and  O_17
REMARK    7  A    between atoms: O_17  and  C_18
REMARK    8  A    between atoms: C_18  and  C_19
REMARK                            x       y       z     vdW  Elec       q    Type
REMARK                         _______ _______ _______ _____ _____    ______ ____
ROOT
ATOM      1  N   UNL     1      -8.404  18.168  67.475  0.00  0.00    -0.190 NA
ATOM      2  C   UNL     1      -8.280  19.580  67.688  0.00  0.00    +0.288 C 
ATOM      3  O   UNL     1      -9.354  20.193  67.987  0.00  0.00    -0.267 OA
ENDROOT
BRANCH   1  11
ATOM      4  C   UNL     1     -11.388  14.521  66.379  0.00  0.00    +0.009 C 
ATOM      5  C   UNL     1     -10.321  14.870  65.384  0.00  0.00    +0.087 C 
ATOM      6  S   UNL     1      -9.268  16.223  66.021  0.00  0.00    -0.114 S 
ATOM      7  C   UNL     1     -10.480  16.941  67.324  0.00  0.00    +0.157 C 
ATOM      8  N   UNL     1     -10.260  15.697  68.179  0.00  0.00    -0.242 N 
ATOM      9  C   UNL     1      -8.867  16.017  68.451  0.00  0.00    +0.253 C 
ATOM     10  O   UNL     1      -8.220  15.575  69.448  0.00  0.00    -0.273 OA
ATOM     11  CA  UNL     1      -9.437  17.537  68.516  0.00  0.00    +0.201 C 
ATOM     12  CA  UNL     1     -11.013  14.589  67.659  0.00  0.00    +0.132 C 
BRANCH  12  13
ATOM     13  C   UNL     1     -11.538  13.731  68.703  0.00  0.00    +0.401 C 
ATOM     14  OXT UNL     1     -10.944  12.486  68.948  0.00  0.00    -0.239 OA
ATOM     15  O   UNL     1     -12.410  14.067  69.538  0.00  0.00    -0.239 OA
ENDBRANCH  12  13
BRANCH   4  17
ATOM     16  C   UNL     1     -12.366  13.063  65.365  0.00  0.00    -0.000 C 
ATOM     17  C   UNL     1     -12.244  13.393  65.982  0.00  0.00    -0.002 C 
ENDBRANCH   4  17
ENDBRANCH   1  11
BRANCH   2  18
ATOM     18  C   UNL     1      -7.072  20.235  68.214  0.00  0.00    +0.192 C 
ATOM     19  N   UNL     1      -6.393  21.087  67.508  0.00  0.00    -0.076 NA
BRANCH  18  20
ATOM     20  C   UNL     1      -6.427  19.763  69.459  0.00  0.00    +0.115 A 
ATOM     21  N   UNL     1      -6.410  20.430  70.640  0.00  0.00    -0.220 NA
ATOM     22  C   UNL     1      -5.193  20.372  71.226  0.00  0.00    +0.201 A 
ATOM     23  N   UNL     1      -4.573  21.333  72.092  0.00  0.00    -0.100 NA
ATOM     24  S   UNL     1      -4.768  18.751  70.863  0.00  0.00    -0.048 S 
ATOM     25  C   UNL     1      -5.948  18.469  69.644  0.00  0.00    +0.059 A 
ENDBRANCH  18  20
BRANCH  19  26
ATOM     26  O   UNL     1      -6.593  21.100  66.139  0.00  0.00    -0.365 OA
BRANCH  26  27
ATOM     27  C   UNL     1      -5.603  20.703  65.214  0.00  0.00    +0.351 C 
BRANCH  27  28
ATOM     28  C   UNL     1      -5.529  19.211  65.140  0.00  0.00    +0.411 C 
ATOM     29  O   UNL     1      -4.689  18.586  66.063  0.00  0.00    -0.241 OA
ATOM     30  O   UNL     1      -6.509  18.610  64.640  0.00  0.00    -0.241 OA
ENDBRANCH  27  28
ENDBRANCH  26  27
ENDBRANCH  19  26
ENDBRANCH   2  18
TORSDOF 8
ENDMDL
MODEL 8
REMARK VINA RESULT:      -6.4      3.282      6.664
REMARK  Name = 
REMARK  8 active torsions:
REMARK  status: ('A' for Active; 'I' for Inactive)
REMARK    1  A    between atoms: C_2  and  C_3
REMARK    2  A    between atoms: CA_4  and  C_5
REMARK    3  A    between atoms: CA_11  and  N_12
REMARK    4  A    between atoms: C_13  and  C_15
REMARK    5  A    between atoms: C_15  and  C_22
REMARK    6  A    between atoms: N_16  and  O_17
REMARK    7  A    between atoms: O_17  and  C_18
REMARK    8  A    between atoms: C_18  and  C_19
REMARK                            x       y       z     vdW  Elec       q    Type
REMARK                         _______ _______ _______ _____ _____    ______ ____
ROOT
ATOM      1  N   UNL     1     -11.648  13.203  67.642  0.00  0.00    -0.190 NA
ATOM      2  C   UNL     1     -11.734  13.933  68.873  0.00  0.00    +0.288 C 
ATOM      3  O   UNL     1     -11.873  13.233  69.926  0.00  0.00    -0.267 OA
ENDROOT
BRANCH   1  11
ATOM      4  C   UNL     1      -9.802  10.642  63.977  0.00  0.00    +0.009 C 
ATOM      5  C   UNL     1     -10.385  11.988  63.662  0.00  0.00    +0.087 C 
ATOM      6  S   UNL     1     -10.962  12.810  65.189  0.00  0.00    -0.114 S 
ATOM      7  C   UNL     1     -11.137  11.258  66.303  0.00  0.00    +0.157 C 
ATOM      8  N   UNL     1      -9.616  11.146  66.345  0.00  0.00    -0.242 N 
ATOM      9  C   UNL     1      -9.453  12.380  67.099  0.00  0.00    +0.253 C 
ATOM     10  O   UNL     1      -8.436  12.648  67.808  0.00  0.00    -0.273 OA
ATOM     11  CA  UNL     1     -10.800  11.866  67.846  0.00  0.00    +0.201 C 
ATOM     12  CA  UNL     1      -9.120  10.575  65.123  0.00  0.00    +0.132 C 
BRANCH  12  13
ATOM     13  C   UNL     1      -7.976   9.710  65.335  0.00  0.00    +0.401 C 
ATOM     14  OXT UNL     1      -6.679  10.227  65.221  0.00  0.00    -0.239 OA
ATOM     15  O   UNL     1      -8.034   8.536  65.770  0.00  0.00    -0.239 OA
ENDBRANCH  12  13
BRANCH   4  17
ATOM     16  C   UNL     1      -9.336   9.996  62.112  0.00  0.00    -0.000 C 
ATOM     17  C   UNL     1      -9.247   9.933  62.815  0.00  0.00    -0.002 C 
ENDBRANCH   4  17
ENDBRANCH   1  11
BRANCH   2  18
ATOM     18  C   UNL     1     -11.071  15.223  69.118  0.00  0.00    +0.192 C 
ATOM     19  N   UNL     1     -11.314  15.927  70.182  0.00  0.00    -0.076 NA
BRANCH  18  20
ATOM     20  C   UNL     1     -10.305  15.904  68.051  0.00  0.00    +0.115 A 
ATOM     21  N   UNL     1     -10.825  16.737  67.115  0.00  0.00    -0.220 NA
ATOM     22  C   UNL     1     -10.302  16.497  65.891  0.00  0.00    +0.201 A 
ATOM     23  N   UNL     1     -10.914  16.680  64.607  0.00  0.00    -0.100 NA
ATOM     24  S   UNL     1      -8.669  16.196  66.322  0.00  0.00    -0.048 S 
ATOM     25  C   UNL     1      -8.914  15.960  68.008  0.00  0.00    +0.059 A 
ENDBRANCH  18  20
BRANCH  19  26
ATOM     26  O   UNL     1     -12.462  15.641  70.900  0.00  0.00    -0.365 OA
BRANCH  26  27
ATOM     27  C   UNL     1     -12.667  16.077  72.226  0.00  0.00    +0.351 C 
BRANCH  27  28
ATOM     28  C   UNL     1     -12.771  14.903  73.149  0.00  0.00    +0.411 C 
ATOM     29  O   UNL     1     -12.342  15.107  74.461  0.00  0.00    -0.241 OA
ATOM     30  O   UNL     1     -13.622  14.026  72.870  0.00  0.00    -0.241 OA
ENDBRANCH  27  28
ENDBRANCH  26  27
ENDBRANCH  19  26
ENDBRANCH   2  18
TORSDOF 8
ENDMDL
MODEL 9
REMARK VINA RESULT:      -6.4      4.262      8.678
REMARK  Name = 
REMARK  8 active torsions:
REMARK  status: ('A' for Active; 'I' for Inactive)
REMARK    1  A    between atoms: C_2  and  C_3
REMARK    2  A    between atoms: CA_4  and  C_5
REMARK    3  A    between atoms: CA_11  and  N_12
REMARK    4  A    between atoms: C_13  and  C_15
REMARK    5  A    between atoms: C_15  and  C_22
REMARK    6  A    between atoms: N_16  and  O_17
REMARK    7  A    between atoms: O_17  and  C_18
REMARK    8  A    between atoms: C_18  and  C_19
REMARK                            x       y       z     vdW  Elec       q    Type
REMARK                         _______ _______ _______ _____ _____    ______ ____
ROOT
ATOM      1  N   UNL     1      -6.289  17.499  67.880  0.00  0.00    -0.190 NA
ATOM      2  C   UNL     1      -4.878  17.739  67.813  0.00  0.00    +0.288 C 
ATOM      3  O   UNL     1      -4.197  16.874  67.175  0.00  0.00    -0.267 OA
ENDROOT
BRANCH   1  11
ATOM      4  C   UNL     1     -10.411  15.003  67.459  0.00  0.00    +0.009 C 
ATOM      5  C   UNL     1     -10.141  15.685  68.768  0.00  0.00    +0.087 C 
ATOM      6  S   UNL     1      -8.573  16.622  68.690  0.00  0.00    -0.114 S 
ATOM      7  C   UNL     1      -7.761  15.702  67.215  0.00  0.00    +0.157 C 
ATOM      8  N   UNL     1      -8.775  16.355  66.281  0.00  0.00    -0.242 N 
ATOM      9  C   UNL     1      -8.243  17.694  66.488  0.00  0.00    +0.253 C 
ATOM     10  O   UNL     1      -8.398  18.652  65.672  0.00  0.00    -0.273 OA
ATOM     11  CA  UNL     1      -6.820  16.910  66.495  0.00  0.00    +0.201 C 
ATOM     12  CA  UNL     1     -10.046  15.692  66.375  0.00  0.00    +0.132 C 
BRANCH  12  13
ATOM     13  C   UNL     1     -10.736  15.624  65.102  0.00  0.00    +0.401 C 
ATOM     14  OXT UNL     1     -11.145  16.804  64.466  0.00  0.00    -0.239 OA
ATOM     15  O   UNL     1     -10.880  14.584  64.417  0.00  0.00    -0.239 OA
ENDBRANCH  12  13
BRANCH   4  17
ATOM     16  C   UNL     1     -12.058  13.896  67.876  0.00  0.00    -0.000 C 
ATOM     17  C   UNL     1     -11.690  14.278  67.403  0.00  0.00    -0.002 C 
ENDBRANCH   4  17
ENDBRANCH   1  11
BRANCH   2  18
ATOM     18  C   UNL     1      -4.263  19.075  67.813  0.00  0.00    +0.192 C 
ATOM     19  N   UNL     1      -3.872  19.650  68.910  0.00  0.00    -0.076 NA
BRANCH  18  20
ATOM     20  C   UNL     1      -4.302  19.935  66.609  0.00  0.00    +0.115 A 
ATOM     21  N   UNL     1      -5.405  20.205  65.868  0.00  0.00    -0.220 NA
ATOM     22  C   UNL     1      -5.138  20.157  64.544  0.00  0.00    +0.201 A 
ATOM     23  N   UNL     1      -6.018  19.804  63.468  0.00  0.00    -0.100 NA
ATOM     24  S   UNL     1      -3.587  20.888  64.529  0.00  0.00    -0.048 S 
ATOM     25  C   UNL     1      -3.254  20.762  66.212  0.00  0.00    +0.059 A 
ENDBRANCH  18  20
BRANCH  19  26
ATOM     26  O   UNL     1      -4.367  19.164  70.108  0.00  0.00    -0.365 OA
BRANCH  26  27
ATOM     27  C   UNL     1      -5.239  19.904  70.935  0.00  0.00    +0.351 C 
BRANCH  27  28
ATOM     28  C   UNL     1      -4.459  20.814  71.831  0.00  0.00    +0.411 C 
ATOM     29  O   UNL     1      -3.441  20.222  72.580  0.00  0.00    -0.241 OA
ATOM     30  O   UNL     1      -4.421  22.029  71.524  0.00  0.00    -0.241 OA
ENDBRANCH  27  28
ENDBRANCH  26  27
ENDBRANCH  19  26
ENDBRANCH   2  18
TORSDOF 8
ENDMDL
