MODEL 1
REMARK VINA RESULT:      -6.3      0.000      0.000
REMARK  Name = 
REMARK  8 active torsions:
REMARK  status: ('A' for Active; 'I' for Inactive)
REMARK    1  A    between atoms: O_2  and  C_3
REMARK    2  A    between atoms: C_3  and  C_5
REMARK    3  A    between atoms: C_11  and  C_12
REMARK    4  A    between atoms: C_12  and  O_14
REMARK    5  A    between atoms: O_14  and  C_15
REMARK    6  A    between atoms: C_15  and  C_16
REMARK    7  A    between atoms: C_19  and  C_20
REMARK    8  A    between atoms: C_25  and  N_26
REMARK                            x       y       z     vdW  Elec       q    Type
REMARK                         _______ _______ _______ _____ _____    ______ ____
ROOT
ATOM      1  C   UNL     1     -10.193  13.810  67.581  0.00  0.00    +0.073 C 
ATOM      2  C   UNL     1     -11.675  13.226  67.194  0.00  0.00    +0.087 C 
ATOM      3  C   UNL     1     -11.644  12.184  68.443  0.00  0.00    +0.073 C 
ATOM      4  C   UNL     1     -11.903  12.909  69.541  0.00  0.00    +0.051 C 
ATOM      5  C   UNL     1     -12.273  12.006  70.675  0.00  0.00    +0.049 C 
ATOM      6  N   UNL     1     -11.294  14.202  69.722  0.00  0.00    -0.221 NA
ATOM      7  C   UNL     1     -10.201  14.376  68.798  0.00  0.00    +0.051 C 
ATOM      8  C   UNL     1      -9.035  15.260  69.128  0.00  0.00    +0.049 C 
ENDROOT
BRANCH   2   9
ATOM      9  C   UNL     1     -11.169  12.130  66.095  0.00  0.00    +0.055 A 
ATOM     10  C   UNL     1     -11.806  12.356  64.874  0.00  0.00    +0.287 A 
ATOM     11  C   UNL     1     -11.240  11.792  63.733  0.00  0.00    +0.075 A 
ATOM     12  C   UNL     1     -10.134  10.960  63.880  0.00  0.00    +0.006 A 
ATOM     13  C   UNL     1      -9.309  11.233  64.946  0.00  0.00    +0.000 A 
ATOM     14  C   UNL     1      -9.803  11.984  65.968  0.00  0.00    +0.002 A 
BRANCH  10  15
ATOM     15  N   UNL     1     -12.564  13.539  64.579  0.00  0.00    +0.081 N 
ATOM     16  O   UNL     1     -13.638  13.916  65.374  0.00  0.00    -0.576 OA
ATOM     17  O   UNL     1     -12.551  13.948  63.420  0.00  0.00    +0.041 OA
ENDBRANCH  10  15
ENDBRANCH   2   9
BRANCH   1  18
ATOM     18  C   UNL     1      -9.686  14.753  66.562  0.00  0.00    +0.339 C 
ATOM     19  O   UNL     1      -8.451  14.897  66.508  0.00  0.00    -0.245 OA
BRANCH  18  21
ATOM     20  C   UNL     1     -10.209  17.071  66.105  0.00  0.00    +0.256 C 
ATOM     21  O   UNL     1     -10.473  15.776  66.038  0.00  0.00    -0.442 OA
ENDBRANCH  18  21
ENDBRANCH   1  18
BRANCH   3  22
ATOM     22  C   UNL     1     -10.727  11.090  68.420  0.00  0.00    +0.339 C 
ATOM     23  O   UNL     1      -9.640  11.024  69.074  0.00  0.00    -0.245 OA
BRANCH  22  24
ATOM     24  O   UNL     1     -11.291   9.842  68.195  0.00  0.00    -0.446 OA
BRANCH  24  25
ATOM     25  C   UNL     1     -10.507   8.650  68.196  0.00  0.00    +0.209 C 
BRANCH  25  26
ATOM     26  C   UNL     1     -10.553   7.917  66.891  0.00  0.00    +0.044 C 
ATOM     27  C   UNL     1     -10.964   6.459  67.052  0.00  0.00    +0.004 C 
ATOM     28  C   UNL     1      -9.138   7.905  66.342  0.00  0.00    +0.004 C 
ENDBRANCH  25  26
ENDBRANCH  24  25
ENDBRANCH  22  24
ENDBRANCH   3  22
TORSDOF 8
ENDMDL
MODEL 2
REMARK VINA RESULT:      -6.1      1.750      4.707
REMARK  Name = 
REMARK  8 active torsions:
REMARK  status: ('A' for Active; 'I' for Inactive)
REMARK    1  A    between atoms: O_2  and  C_3
REMARK    2  A    between atoms: C_3  and  C_5
REMARK    3  A    between atoms: C_11  and  C_12
REMARK    4  A    between atoms: C_12  and  O_14
REMARK    5  A    between atoms: O_14  and  C_15
REMARK    6  A    between atoms: C_15  and  C_16
REMARK    7  A    between atoms: C_19  and  C_20
REMARK    8  A    between atoms: C_25  and  N_26
REMARK                            x       y       z     vdW  Elec       q    Type
REMARK                         _______ _______ _______ _____ _____    ______ ____
ROOT
ATOM      1  C   UNL     1     -11.309  12.789  65.516  0.00  0.00    +0.073 C 
ATOM      2  C   UNL     1      -9.823  13.008  66.171  0.00  0.00    +0.087 C 
ATOM      3  C   UNL     1      -9.673  11.419  66.484  0.00  0.00    +0.073 C 
ATOM      4  C   UNL     1      -9.383  10.833  65.313  0.00  0.00    +0.051 C 
ATOM      5  C   UNL     1      -8.854   9.454  65.547  0.00  0.00    +0.049 C 
ATOM      6  N   UNL     1     -10.073  11.226  64.111  0.00  0.00    -0.221 NA
ATOM      7  C   UNL     1     -11.247  11.998  64.434  0.00  0.00    +0.051 C 
ATOM      8  C   UNL     1     -12.446  12.004  63.534  0.00  0.00    +0.049 C 
ENDROOT
BRANCH   2   9
ATOM      9  C   UNL     1     -10.330  13.391  67.675  0.00  0.00    +0.055 A 
ATOM     10  C   UNL     1      -9.463  14.327  68.243  0.00  0.00    +0.287 A 
ATOM     11  C   UNL     1      -9.922  15.055  69.338  0.00  0.00    +0.075 A 
ATOM     12  C   UNL     1     -11.173  14.747  69.865  0.00  0.00    +0.006 A 
ATOM     13  C   UNL     1     -12.102  14.259  68.976  0.00  0.00    +0.000 A 
ATOM     14  C   UNL     1     -11.658  13.747  67.795  0.00  0.00    +0.002 A 
BRANCH  10  15
ATOM     15  N   UNL     1      -8.459  15.033  67.500  0.00  0.00    +0.081 N 
ATOM     16  O   UNL     1      -7.156  14.559  67.427  0.00  0.00    -0.576 OA
ATOM     17  O   UNL     1      -8.630  16.236  67.315  0.00  0.00    +0.041 OA
ENDBRANCH  10  15
ENDBRANCH   2   9
BRANCH   1  18
ATOM     18  C   UNL     1     -11.968  14.073  65.195  0.00  0.00    +0.339 C 
ATOM     19  O   UNL     1     -13.213  14.073  65.206  0.00  0.00    -0.245 OA
BRANCH  18  21
ATOM     20  C   UNL     1     -11.029  16.283  64.894  0.00  0.00    +0.256 C 
ATOM     21  O   UNL     1     -11.334  15.071  64.459  0.00  0.00    -0.442 OA
ENDBRANCH  18  21
ENDBRANCH   1  18
BRANCH   3  22
ATOM     22  C   UNL     1     -10.502  10.819  67.479  0.00  0.00    +0.339 C 
ATOM     23  O   UNL     1     -11.579  10.183  67.258  0.00  0.00    -0.245 OA
BRANCH  22  24
ATOM     24  O   UNL     1      -9.843  10.372  68.616  0.00  0.00    -0.446 OA
BRANCH  24  25
ATOM     25  C   UNL     1     -10.378   9.337  69.439  0.00  0.00    +0.209 C 
BRANCH  25  26
ATOM     26  C   UNL     1     -10.727   9.805  70.818  0.00  0.00    +0.044 C 
ATOM     27  C   UNL     1     -11.014   8.653  71.772  0.00  0.00    +0.004 C 
ATOM     28  C   UNL     1     -12.016  10.598  70.701  0.00  0.00    +0.004 C 
ENDBRANCH  25  26
ENDBRANCH  24  25
ENDBRANCH  22  24
ENDBRANCH   3  22
TORSDOF 8
ENDMDL
MODEL 3
REMARK VINA RESULT:      -6.0      4.302      6.779
REMARK  Name = 
REMARK  8 active torsions:
REMARK  status: ('A' for Active; 'I' for Inactive)
REMARK    1  A    between atoms: O_2  and  C_3
REMARK    2  A    between atoms: C_3  and  C_5
REMARK    3  A    between atoms: C_11  and  C_12
REMARK    4  A    between atoms: C_12  and  O_14
REMARK    5  A    between atoms: O_14  and  C_15
REMARK    6  A    between atoms: C_15  and  C_16
REMARK    7  A    between atoms: C_19  and  C_20
REMARK    8  A    between atoms: C_25  and  N_26
REMARK                            x       y       z     vdW  Elec       q    Type
REMARK                         _______ _______ _______ _____ _____    ______ ____
ROOT
ATOM      1  C   UNL     1      -8.909  18.403  66.934  0.00  0.00    +0.073 C 
ATOM      2  C   UNL     1      -8.141  16.955  66.955  0.00  0.00    +0.087 C 
ATOM      3  C   UNL     1      -9.457  16.211  67.555  0.00  0.00    +0.073 C 
ATOM      4  C   UNL     1     -10.307  16.067  66.527  0.00  0.00    +0.051 C 
ATOM      5  C   UNL     1     -11.366  15.070  66.874  0.00  0.00    +0.049 C 
ATOM      6  N   UNL     1     -10.504  17.141  65.588  0.00  0.00    -0.221 NA
ATOM      7  C   UNL     1      -9.971  18.374  66.115  0.00  0.00    +0.051 C 
ATOM      8  C   UNL     1     -10.544  19.701  65.719  0.00  0.00    +0.049 C 
ENDROOT
BRANCH   2   9
ATOM      9  C   UNL     1      -7.420  17.140  68.408  0.00  0.00    +0.055 A 
ATOM     10  C   UNL     1      -6.626  16.026  68.687  0.00  0.00    +0.287 A 
ATOM     11  C   UNL     1      -5.649  16.157  69.671  0.00  0.00    +0.075 A 
ATOM     12  C   UNL     1      -5.579  17.349  70.386  0.00  0.00    +0.006 A 
ATOM     13  C   UNL     1      -5.979  18.481  69.715  0.00  0.00    +0.000 A 
ATOM     14  C   UNL     1      -6.759  18.335  68.609  0.00  0.00    +0.002 A 
BRANCH  10  15
ATOM     15  N   UNL     1      -6.292  15.025  67.715  0.00  0.00    +0.081 N 
ATOM     16  O   UNL     1      -6.934  13.794  67.706  0.00  0.00    -0.576 OA
ATOM     17  O   UNL     1      -5.175  15.080  67.203  0.00  0.00    +0.041 OA
ENDBRANCH  10  15
ENDBRANCH   2   9
BRANCH   1  18
ATOM     18  C   UNL     1      -7.996  19.509  66.576  0.00  0.00    +0.339 C 
ATOM     19  O   UNL     1      -8.152  20.577  67.195  0.00  0.00    -0.245 OA
BRANCH  18  21
ATOM     20  C   UNL     1      -6.124  20.018  65.129  0.00  0.00    +0.256 C 
ATOM     21  O   UNL     1      -7.352  19.573  65.342  0.00  0.00    -0.442 OA
ENDBRANCH  18  21
ENDBRANCH   1  18
BRANCH   3  22
ATOM     22  C   UNL     1      -9.878  16.498  68.888  0.00  0.00    +0.339 C 
ATOM     23  O   UNL     1     -10.598  17.484  69.239  0.00  0.00    -0.245 OA
BRANCH  22  24
ATOM     24  O   UNL     1     -10.046  15.395  69.713  0.00  0.00    -0.446 OA
BRANCH  24  25
ATOM     25  C   UNL     1     -11.020  15.374  70.755  0.00  0.00    +0.209 C 
BRANCH  25  26
ATOM     26  C   UNL     1     -12.322  14.768  70.330  0.00  0.00    +0.044 C 
ATOM     27  C   UNL     1     -13.446  15.041  71.321  0.00  0.00    +0.004 C 
ATOM     28  C   UNL     1     -12.122  13.264  70.310  0.00  0.00    +0.004 C 
ENDBRANCH  25  26
ENDBRANCH  24  25
ENDBRANCH  22  24
ENDBRANCH   3  22
TORSDOF 8
ENDMDL
MODEL 4
REMARK VINA RESULT:      -5.9      3.648      5.524
REMARK  Name = 
REMARK  8 active torsions:
REMARK  status: ('A' for Active; 'I' for Inactive)
REMARK    1  A    between atoms: O_2  and  C_3
REMARK    2  A    between atoms: C_3  and  C_5
REMARK    3  A    between atoms: C_11  and  C_12
REMARK    4  A    between atoms: C_12  and  O_14
REMARK    5  A    between atoms: O_14  and  C_15
REMARK    6  A    between atoms: C_15  and  C_16
REMARK    7  A    between atoms: C_19  and  C_20
REMARK    8  A    between atoms: C_25  and  N_26
REMARK                            x       y       z     vdW  Elec       q    Type
REMARK                         _______ _______ _______ _____ _____    ______ ____
ROOT
ATOM      1  C   UNL     1      -8.474  18.058  67.730  0.00  0.00    +0.073 C 
ATOM      2  C   UNL     1      -8.675  16.825  68.790  0.00  0.00    +0.087 C 
ATOM      3  C   UNL     1      -7.125  16.359  68.616  0.00  0.00    +0.073 C 
ATOM      4  C   UNL     1      -6.392  17.228  69.328  0.00  0.00    +0.051 C 
ATOM      5  C   UNL     1      -5.018  16.679  69.548  0.00  0.00    +0.049 C 
ATOM      6  N   UNL     1      -6.686  18.638  69.283  0.00  0.00    -0.221 NA
ATOM      7  C   UNL     1      -7.561  18.935  68.176  0.00  0.00    +0.051 C 
ATOM      8  C   UNL     1      -7.539  20.274  67.504  0.00  0.00    +0.049 C 
ENDROOT
BRANCH   2   9
ATOM      9  C   UNL     1      -9.258  15.741  67.717  0.00  0.00    +0.055 A 
ATOM     10  C   UNL     1     -10.405  15.135  68.233  0.00  0.00    +0.287 A 
ATOM     11  C   UNL     1     -11.252  14.484  67.340  0.00  0.00    +0.075 A 
ATOM     12  C   UNL     1     -10.867  14.389  66.006  0.00  0.00    +0.006 A 
ATOM     13  C   UNL     1     -10.084  15.413  65.527  0.00  0.00    +0.000 A 
ATOM     14  C   UNL     1      -9.428  16.198  66.425  0.00  0.00    +0.002 A 
BRANCH  10  15
ATOM     15  N   UNL     1     -11.098  15.607  69.398  0.00  0.00    +0.081 N 
ATOM     16  O   UNL     1     -10.925  14.993  70.631  0.00  0.00    -0.576 OA
ATOM     17  O   UNL     1     -12.140  16.234  69.223  0.00  0.00    +0.041 OA
ENDBRANCH  10  15
ENDBRANCH   2   9
BRANCH   1  18
ATOM     18  C   UNL     1      -9.751  18.736  67.421  0.00  0.00    +0.339 C 
ATOM     19  O   UNL     1     -10.558  18.850  68.362  0.00  0.00    -0.245 OA
BRANCH  18  21
ATOM     20  C   UNL     1     -10.673  19.906  65.513  0.00  0.00    +0.256 C 
ATOM     21  O   UNL     1     -10.262  18.808  66.127  0.00  0.00    -0.442 OA
ENDBRANCH  18  21
ENDBRANCH   1  18
BRANCH   3  22
ATOM     22  C   UNL     1      -6.697  15.800  67.375  0.00  0.00    +0.339 C 
ATOM     23  O   UNL     1      -5.958  16.380  66.519  0.00  0.00    -0.245 OA
BRANCH  22  24
ATOM     24  O   UNL     1      -6.546  14.420  67.361  0.00  0.00    -0.446 OA
BRANCH  24  25
ATOM     25  C   UNL     1      -6.549  13.650  68.562  0.00  0.00    +0.209 C 
BRANCH  25  26
ATOM     26  C   UNL     1      -7.575  12.559  68.558  0.00  0.00    +0.044 C 
ATOM     27  C   UNL     1      -7.041  11.249  69.121  0.00  0.00    +0.004 C 
ATOM     28  C   UNL     1      -7.927  12.291  67.106  0.00  0.00    +0.004 C 
ENDBRANCH  25  26
ENDBRANCH  24  25
ENDBRANCH  22  24
ENDBRANCH   3  22
TORSDOF 8
ENDMDL
MODEL 5
REMARK VINA RESULT:      -5.8      2.840      4.382
REMARK  Name = 
REMARK  8 active torsions:
REMARK  status: ('A' for Active; 'I' for Inactive)
REMARK    1  A    between atoms: O_2  and  C_3
REMARK    2  A    between atoms: C_3  and  C_5
REMARK    3  A    between atoms: C_11  and  C_12
REMARK    4  A    between atoms: C_12  and  O_14
REMARK    5  A    between atoms: O_14  and  C_15
REMARK    6  A    between atoms: C_15  and  C_16
REMARK    7  A    between atoms: C_19  and  C_20
REMARK    8  A    between atoms: C_25  and  N_26
REMARK                            x       y       z     vdW  Elec       q    Type
REMARK                         _______ _______ _______ _____ _____    ______ ____
ROOT
ATOM      1  C   UNL     1      -7.723  16.589  67.541  0.00  0.00    +0.073 C 
ATOM      2  C   UNL     1      -8.775  15.872  68.574  0.00  0.00    +0.087 C 
ATOM      3  C   UNL     1      -7.723  14.670  68.886  0.00  0.00    +0.073 C 
ATOM      4  C   UNL     1      -6.808  15.183  69.723  0.00  0.00    +0.051 C 
ATOM      5  C   UNL     1      -6.029  14.080  70.367  0.00  0.00    +0.049 C 
ATOM      6  N   UNL     1      -6.282  16.506  69.506  0.00  0.00    -0.221 NA
ATOM      7  C   UNL     1      -6.602  16.963  68.177  0.00  0.00    +0.051 C 
ATOM      8  C   UNL     1      -5.721  17.939  67.456  0.00  0.00    +0.049 C 
ENDROOT
BRANCH   2   9
ATOM      9  C   UNL     1      -9.606  15.030  67.448  0.00  0.00    +0.055 A 
ATOM     10  C   UNL     1     -10.870  14.702  67.941  0.00  0.00    +0.287 A 
ATOM     11  C   UNL     1     -11.849  14.335  67.021  0.00  0.00    +0.075 A 
ATOM     12  C   UNL     1     -11.494  14.220  65.681  0.00  0.00    +0.006 A 
ATOM     13  C   UNL     1     -10.477  15.040  65.251  0.00  0.00    +0.000 A 
ATOM     14  C   UNL     1      -9.649  15.584  66.185  0.00  0.00    +0.002 A 
BRANCH  10  15
ATOM     15  N   UNL     1     -11.429  15.268  69.136  0.00  0.00    +0.081 N 
ATOM     16  O   UNL     1     -11.632  14.492  70.268  0.00  0.00    -0.576 OA
ATOM     17  O   UNL     1     -12.117  16.280  69.017  0.00  0.00    +0.041 OA
ENDBRANCH  10  15
ENDBRANCH   2   9
BRANCH   1  18
ATOM     18  C   UNL     1      -8.336  17.734  66.833  0.00  0.00    +0.339 C 
ATOM     19  O   UNL     1      -7.903  17.973  65.691  0.00  0.00    -0.245 OA
BRANCH  18  21
ATOM     20  C   UNL     1     -10.256  19.075  67.442  0.00  0.00    +0.256 C 
ATOM     21  O   UNL     1      -8.968  18.774  67.509  0.00  0.00    -0.442 OA
ENDBRANCH  18  21
ENDBRANCH   1  18
BRANCH   3  22
ATOM     22  C   UNL     1      -7.411  13.728  67.861  0.00  0.00    +0.339 C 
ATOM     23  O   UNL     1      -6.335  13.701  67.186  0.00  0.00    -0.245 OA
BRANCH  22  24
ATOM     24  O   UNL     1      -7.977  12.470  68.012  0.00  0.00    -0.446 OA
BRANCH  24  25
ATOM     25  C   UNL     1      -8.036  11.536  66.935  0.00  0.00    +0.209 C 
BRANCH  25  26
ATOM     26  C   UNL     1      -9.374  11.498  66.263  0.00  0.00    +0.044 C 
ATOM     27  C   UNL     1     -10.444  10.842  67.124  0.00  0.00    +0.004 C 
ATOM     28  C   UNL     1      -9.222  10.627  65.029  0.00  0.00    +0.004 C 
ENDBRANCH  25  26
ENDBRANCH  24  25
ENDBRANCH  22  24
ENDBRANCH   3  22
TORSDOF 8
ENDMDL
MODEL 6
REMARK VINA RESULT:      -5.7      5.111      9.430
REMARK  Name = 
REMARK  8 active torsions:
REMARK  status: ('A' for Active; 'I' for Inactive)
REMARK    1  A    between atoms: O_2  and  C_3
REMARK    2  A    between atoms: C_3  and  C_5
REMARK    3  A    between atoms: C_11  and  C_12
REMARK    4  A    between atoms: C_12  and  O_14
REMARK    5  A    between atoms: O_14  and  C_15
REMARK    6  A    between atoms: C_15  and  C_16
REMARK    7  A    between atoms: C_19  and  C_20
REMARK    8  A    between atoms: C_25  and  N_26
REMARK                            x       y       z     vdW  Elec       q    Type
REMARK                         _______ _______ _______ _____ _____    ______ ____
ROOT
ATOM      1  C   UNL     1      -7.491  16.694  67.948  0.00  0.00    +0.073 C 
ATOM      2  C   UNL     1      -7.213  17.868  69.057  0.00  0.00    +0.087 C 
ATOM      3  C   UNL     1      -7.921  18.991  68.117  0.00  0.00    +0.073 C 
ATOM      4  C   UNL     1      -9.243  18.797  68.234  0.00  0.00    +0.051 C 
ATOM      5  C   UNL     1      -9.983  19.994  67.726  0.00  0.00    +0.049 C 
ATOM      6  N   UNL     1      -9.788  17.464  68.225  0.00  0.00    -0.221 NA
ATOM      7  C   UNL     1      -8.806  16.522  67.747  0.00  0.00    +0.051 C 
ATOM      8  C   UNL     1      -9.215  15.260  67.048  0.00  0.00    +0.049 C 
ENDROOT
BRANCH   2   9
ATOM      9  C   UNL     1      -5.695  18.232  68.577  0.00  0.00    +0.055 A 
ATOM     10  C   UNL     1      -5.074  19.031  69.537  0.00  0.00    +0.287 A 
ATOM     11  C   UNL     1      -3.685  19.124  69.503  0.00  0.00    +0.075 A 
ATOM     12  C   UNL     1      -3.001  18.499  68.465  0.00  0.00    +0.006 A 
ATOM     13  C   UNL     1      -3.587  17.368  67.948  0.00  0.00    +0.000 A 
ATOM     14  C   UNL     1      -4.914  17.166  68.178  0.00  0.00    +0.002 A 
BRANCH  10  15
ATOM     15  N   UNL     1      -5.604  19.250  70.853  0.00  0.00    +0.081 N 
ATOM     16  O   UNL     1      -6.259  20.431  71.173  0.00  0.00    -0.576 OA
ATOM     17  O   UNL     1      -5.103  18.616  71.779  0.00  0.00    +0.041 OA
ENDBRANCH  10  15
ENDBRANCH   2   9
BRANCH   1  18
ATOM     18  C   UNL     1      -6.843  15.417  68.319  0.00  0.00    +0.339 C 
ATOM     19  O   UNL     1      -6.459  14.699  67.378  0.00  0.00    -0.245 OA
BRANCH  18  21
ATOM     20  C   UNL     1      -6.131  14.403  70.397  0.00  0.00    +0.256 C 
ATOM     21  O   UNL     1      -7.064  14.799  69.547  0.00  0.00    -0.442 OA
ENDBRANCH  18  21
ENDBRANCH   1  18
BRANCH   3  22
ATOM     22  C   UNL     1      -7.288  19.385  66.899  0.00  0.00    +0.339 C 
ATOM     23  O   UNL     1      -7.576  18.945  65.742  0.00  0.00    -0.245 OA
BRANCH  22  24
ATOM     24  O   UNL     1      -6.803  20.685  66.870  0.00  0.00    -0.446 OA
BRANCH  24  25
ATOM     25  C   UNL     1      -5.902  21.131  65.859  0.00  0.00    +0.209 C 
BRANCH  25  26
ATOM     26  C   UNL     1      -4.489  20.695  66.098  0.00  0.00    +0.044 C 
ATOM     27  C   UNL     1      -3.508  21.861  66.098  0.00  0.00    +0.004 C 
ATOM     28  C   UNL     1      -4.099  19.805  64.932  0.00  0.00    +0.004 C 
ENDBRANCH  25  26
ENDBRANCH  24  25
ENDBRANCH  22  24
ENDBRANCH   3  22
TORSDOF 8
ENDMDL
MODEL 7
REMARK VINA RESULT:      -5.7      1.468      2.051
REMARK  Name = 
REMARK  8 active torsions:
REMARK  status: ('A' for Active; 'I' for Inactive)
REMARK    1  A    between atoms: O_2  and  C_3
REMARK    2  A    between atoms: C_3  and  C_5
REMARK    3  A    between atoms: C_11  and  C_12
REMARK    4  A    between atoms: C_12  and  O_14
REMARK    5  A    between atoms: O_14  and  C_15
REMARK    6  A    between atoms: C_15  and  C_16
REMARK    7  A    between atoms: C_19  and  C_20
REMARK    8  A    between atoms: C_25  and  N_26
REMARK                            x       y       z     vdW  Elec       q    Type
REMARK                         _______ _______ _______ _____ _____    ______ ____
ROOT
ATOM      1  C   UNL     1      -9.889  14.118  67.786  0.00  0.00    +0.073 C 
ATOM      2  C   UNL     1     -11.414  13.768  67.298  0.00  0.00    +0.087 C 
ATOM      3  C   UNL     1     -11.707  12.925  68.659  0.00  0.00    +0.073 C 
ATOM      4  C   UNL     1     -11.919  13.834  69.623  0.00  0.00    +0.051 C 
ATOM      5  C   UNL     1     -12.565  13.185  70.806  0.00  0.00    +0.049 C 
ATOM      6  N   UNL     1     -11.086  15.005  69.717  0.00  0.00    -0.221 NA
ATOM      7  C   UNL     1      -9.898  14.843  68.915  0.00  0.00    +0.051 C 
ATOM      8  C   UNL     1      -8.617  15.535  69.273  0.00  0.00    +0.049 C 
ENDROOT
BRANCH   2   9
ATOM      9  C   UNL     1     -11.035  12.452  66.408  0.00  0.00    +0.055 A 
ATOM     10  C   UNL     1     -11.789  12.442  65.234  0.00  0.00    +0.287 A 
ATOM     11  C   UNL     1     -11.348  11.637  64.187  0.00  0.00    +0.075 A 
ATOM     12  C   UNL     1     -10.243  10.818  64.397  0.00  0.00    +0.006 A 
ATOM     13  C   UNL     1      -9.311  11.278  65.298  0.00  0.00    +0.000 A 
ATOM     14  C   UNL     1      -9.690  12.239  66.184  0.00  0.00    +0.002 A 
BRANCH  10  15
ATOM     15  N   UNL     1     -12.559  13.563  64.774  0.00  0.00    +0.081 N 
ATOM     16  O   UNL     1     -13.691  13.983  65.459  0.00  0.00    -0.576 OA
ATOM     17  O   UNL     1     -12.484  13.853  63.582  0.00  0.00    +0.041 OA
ENDBRANCH  10  15
ENDBRANCH   2   9
BRANCH   1  18
ATOM     18  C   UNL     1      -9.112  14.798  66.728  0.00  0.00    +0.339 C 
ATOM     19  O   UNL     1      -7.900  14.521  66.667  0.00  0.00    -0.245 OA
BRANCH  18  21
ATOM     20  C   UNL     1     -10.550  16.167  65.343  0.00  0.00    +0.256 C 
ATOM     21  O   UNL     1      -9.522  16.003  66.161  0.00  0.00    -0.442 OA
ENDBRANCH  18  21
ENDBRANCH   1  18
BRANCH   3  22
ATOM     22  C   UNL     1     -11.027  11.690  68.879  0.00  0.00    +0.339 C 
ATOM     23  O   UNL     1      -9.849  11.567  69.338  0.00  0.00    -0.245 OA
BRANCH  22  24
ATOM     24  O   UNL     1     -11.838  10.608  69.195  0.00  0.00    -0.446 OA
BRANCH  24  25
ATOM     25  C   UNL     1     -11.365   9.516  69.981  0.00  0.00    +0.209 C 
BRANCH  25  26
ATOM     26  C   UNL     1     -11.833   9.571  71.403  0.00  0.00    +0.044 C 
ATOM     27  C   UNL     1     -11.465   8.319  72.189  0.00  0.00    +0.004 C 
ATOM     28  C   UNL     1     -13.349   9.625  71.366  0.00  0.00    +0.004 C 
ENDBRANCH  25  26
ENDBRANCH  24  25
ENDBRANCH  22  24
ENDBRANCH   3  22
TORSDOF 8
ENDMDL
MODEL 8
REMARK VINA RESULT:      -5.6      2.683      5.088
REMARK  Name = 
REMARK  8 active torsions:
REMARK  status: ('A' for Active; 'I' for Inactive)
REMARK    1  A    between atoms: O_2  and  C_3
REMARK    2  A    between atoms: C_3  and  C_5
REMARK    3  A    between atoms: C_11  and  C_12
REMARK    4  A    between atoms: C_12  and  O_14
REMARK    5  A    between atoms: O_14  and  C_15
REMARK    6  A    between atoms: C_15  and  C_16
REMARK    7  A    between atoms: C_19  and  C_20
REMARK    8  A    between atoms: C_25  and  N_26
REMARK                            x       y       z     vdW  Elec       q    Type
REMARK                         _______ _______ _______ _____ _____    ______ ____
ROOT
ATOM      1  C   UNL     1     -10.881  13.993  68.844  0.00  0.00    +0.073 C 
ATOM      2  C   UNL     1     -10.530  14.310  67.275  0.00  0.00    +0.087 C 
ATOM      3  C   UNL     1      -9.823  12.856  67.089  0.00  0.00    +0.073 C 
ATOM      4  C   UNL     1     -10.822  11.967  66.982  0.00  0.00    +0.051 C 
ATOM      5  C   UNL     1     -10.302  10.677  66.433  0.00  0.00    +0.049 C 
ATOM      6  N   UNL     1     -11.973  12.056  67.843  0.00  0.00    -0.221 NA
ATOM      7  C   UNL     1     -11.706  12.940  68.950  0.00  0.00    +0.051 C 
ATOM      8  C   UNL     1     -12.393  12.762  70.271  0.00  0.00    +0.049 C 
ENDROOT
BRANCH   2   9
ATOM      9  C   UNL     1      -9.128  15.103  67.548  0.00  0.00    +0.055 A 
ATOM     10  C   UNL     1      -9.080  16.259  66.768  0.00  0.00    +0.287 A 
ATOM     11  C   UNL     1      -8.170  17.249  67.132  0.00  0.00    +0.075 A 
ATOM     12  C   UNL     1      -7.298  16.997  68.186  0.00  0.00    +0.006 A 
ATOM     13  C   UNL     1      -7.762  16.150  69.166  0.00  0.00    +0.000 A 
ATOM     14  C   UNL     1      -8.810  15.334  68.871  0.00  0.00    +0.002 A 
BRANCH  10  15
ATOM     15  N   UNL     1     -10.211  16.790  66.061  0.00  0.00    +0.081 N 
ATOM     16  O   UNL     1     -10.519  16.360  64.778  0.00  0.00    -0.576 OA
ATOM     17  O   UNL     1     -10.619  17.900  66.396  0.00  0.00    +0.041 OA
ENDBRANCH  10  15
ENDBRANCH   2   9
BRANCH   1  18
ATOM     18  C   UNL     1     -11.440  15.174  69.536  0.00  0.00    +0.339 C 
ATOM     19  O   UNL     1     -11.994  16.025  68.816  0.00  0.00    -0.245 OA
BRANCH  18  21
ATOM     20  C   UNL     1     -11.736  16.040  71.776  0.00  0.00    +0.256 C 
ATOM     21  O   UNL     1     -10.984  15.591  70.784  0.00  0.00    -0.442 OA
ENDBRANCH  18  21
ENDBRANCH   1  18
BRANCH   3  22
ATOM     22  C   UNL     1      -8.595  12.582  67.763  0.00  0.00    +0.339 C 
ATOM     23  O   UNL     1      -8.449  11.776  68.734  0.00  0.00    -0.245 OA
BRANCH  22  24
ATOM     24  O   UNL     1      -7.450  12.697  66.987  0.00  0.00    -0.446 OA
BRANCH  24  25
ATOM     25  C   UNL     1      -6.163  12.334  67.485  0.00  0.00    +0.209 C 
BRANCH  25  26
ATOM     26  C   UNL     1      -5.410  13.491  68.065  0.00  0.00    +0.044 C 
ATOM     27  C   UNL     1      -3.938  13.488  67.672  0.00  0.00    +0.004 C 
ATOM     28  C   UNL     1      -5.452  13.334  69.574  0.00  0.00    +0.004 C 
ENDBRANCH  25  26
ENDBRANCH  24  25
ENDBRANCH  22  24
ENDBRANCH   3  22
TORSDOF 8
ENDMDL
MODEL 9
REMARK VINA RESULT:      -5.6      2.740      5.548
REMARK  Name = 
REMARK  8 active torsions:
REMARK  status: ('A' for Active; 'I' for Inactive)
REMARK    1  A    between atoms: O_2  and  C_3
REMARK    2  A    between atoms: C_3  and  C_5
REMARK    3  A    between atoms: C_11  and  C_12
REMARK    4  A    between atoms: C_12  and  O_14
REMARK    5  A    between atoms: O_14  and  C_15
REMARK    6  A    between atoms: C_15  and  C_16
REMARK    7  A    between atoms: C_19  and  C_20
REMARK    8  A    between atoms: C_25  and  N_26
REMARK                            x       y       z     vdW  Elec       q    Type
REMARK                         _______ _______ _______ _____ _____    ______ ____
ROOT
ATOM      1  C   UNL     1      -9.901   9.858  67.294  0.00  0.00    +0.073 C 
ATOM      2  C   UNL     1      -9.045  10.765  68.358  0.00  0.00    +0.087 C 
ATOM      3  C   UNL     1     -10.242  10.694  69.457  0.00  0.00    +0.073 C 
ATOM      4  C   UNL     1     -10.175   9.472  70.006  0.00  0.00    +0.051 C 
ATOM      5  C   UNL     1     -10.967   9.436  71.273  0.00  0.00    +0.049 C 
ATOM      6  N   UNL     1      -9.941   8.314  69.181  0.00  0.00    -0.221 NA
ATOM      7  C   UNL     1     -10.148   8.637  67.791  0.00  0.00    +0.051 C 
ATOM      8  C   UNL     1     -10.594   7.596  66.809  0.00  0.00    +0.049 C 
ENDROOT
BRANCH   2   9
ATOM      9  C   UNL     1      -9.490  12.222  67.771  0.00  0.00    +0.055 A 
ATOM     10  C   UNL     1      -8.393  13.085  67.767  0.00  0.00    +0.287 A 
ATOM     11  C   UNL     1      -8.465  14.222  66.965  0.00  0.00    +0.075 A 
ATOM     12  C   UNL     1      -9.653  14.486  66.290  0.00  0.00    +0.006 A 
ATOM     13  C   UNL     1     -10.402  13.390  65.930  0.00  0.00    +0.000 A 
ATOM     14  C   UNL     1     -10.168  12.211  66.569  0.00  0.00    +0.002 A 
BRANCH  10  15
ATOM     15  N   UNL     1      -7.041  12.654  67.982  0.00  0.00    +0.081 N 
ATOM     16  O   UNL     1      -6.446  12.761  69.232  0.00  0.00    -0.576 OA
ATOM     17  O   UNL     1      -6.295  12.616  67.006  0.00  0.00    +0.041 OA
ENDBRANCH  10  15
ENDBRANCH   2   9
BRANCH   1  18
ATOM     18  C   UNL     1      -9.232   9.768  65.979  0.00  0.00    +0.339 C 
ATOM     19  O   UNL     1      -7.992   9.880  65.981  0.00  0.00    -0.245 OA
BRANCH  18  21
ATOM     20  C   UNL     1      -9.354  10.045  63.578  0.00  0.00    +0.256 C 
ATOM     21  O   UNL     1      -9.896  10.038  64.785  0.00  0.00    -0.442 OA
ENDBRANCH  18  21
ENDBRANCH   1  18
BRANCH   3  22
ATOM     22  C   UNL     1     -11.471  11.373  69.198  0.00  0.00    +0.339 C 
ATOM     23  O   UNL     1     -12.522  10.842  68.720  0.00  0.00    -0.245 OA
BRANCH  22  24
ATOM     24  O   UNL     1     -11.749  12.446  70.034  0.00  0.00    -0.446 OA
BRANCH  24  25
ATOM     25  C   UNL     1     -12.184  13.705  69.524  0.00  0.00    +0.209 C 
BRANCH  25  26
ATOM     26  C   UNL     1     -11.260  14.831  69.871  0.00  0.00    +0.044 C 
ATOM     27  C   UNL     1     -11.465  15.340  71.292  0.00  0.00    +0.004 C 
ATOM     28  C   UNL     1     -11.605  15.986  68.948  0.00  0.00    +0.004 C 
ENDBRANCH  25  26
ENDBRANCH  24  25
ENDBRANCH  22  24
ENDBRANCH   3  22
TORSDOF 8
ENDMDL
