MODEL 1
REMARK VINA RESULT:      -9.2      0.000      0.000
REMARK  Name = 
REMARK  2 active torsions:
REMARK  status: ('A' for Active; 'I' for Inactive)
REMARK    1  A    between atoms: O_2  and  C_3
REMARK    2  A    between atoms: C_3  and  C_5
REMARK                            x       y       z     vdW  Elec       q    Type
REMARK                         _______ _______ _______ _____ _____    ______ ____
ROOT
ATOM      1  C   UNL     1     -12.434  14.543  70.418  0.00  0.00    +0.105 C 
ATOM      2  C   UNL     1     -11.865  13.235  69.952  0.00  0.00    +0.039 C 
ATOM      3  C   UNL     1     -10.917  13.200  68.790  0.00  0.00    +0.121 C 
ATOM      4  C   UNL     1     -10.349  11.892  68.325  0.00  0.00    +0.140 C 
ATOM      5  C   UNL     1     -10.728  10.620  69.022  0.00  0.00    +0.035 C 
ATOM      6  C   UNL     1     -11.676  10.654  70.185  0.00  0.00    +0.036 C 
ATOM      7  C   UNL     1     -12.229   9.570  71.061  0.00  0.00    +0.136 C 
ATOM      8  O   UNL     1     -11.319   8.933  70.053  0.00  0.00    -0.456 OA
ATOM      9  C   UNL     1     -11.309   7.454  70.308  0.00  0.00    +0.317 C 
ATOM     10  O   UNL     1     -10.532   6.432  69.534  0.00  0.00    -0.250 OA
ATOM     11  C   UNL     1     -12.213   7.178  71.473  0.00  0.00    +0.113 C 
ATOM     12  C   UNL     1     -12.782   8.486  71.938  0.00  0.00    +0.052 C 
ATOM     13  C   UNL     1     -13.139  10.209  72.068  0.00  0.00    +0.040 C 
ATOM     14  C   UNL     1     -13.149  11.687  71.814  0.00  0.00    +0.004 C 
ATOM     15  C   UNL     1     -11.006   9.459  69.574  0.00  0.00    +0.004 C 
ATOM     16  O   UNL     1      -9.970  13.166  67.628  0.00  0.00    -0.356 OA
ATOM     17  C   UNL     1     -10.538  14.474  68.093  0.00  0.00    +0.041 C 
ATOM     18  C   UNL     1     -11.107  15.782  68.559  0.00  0.00    -0.039 C 
ATOM     19  C   UNL     1     -10.727  17.054  67.862  0.00  0.00    +0.029 C 
ATOM     20  C   UNL     1      -9.780  17.019  66.700  0.00  0.00    +0.173 C 
ATOM     21  C   UNL     1      -9.211  15.711  66.235  0.00  0.00    +0.070 C 
ATOM     22  O   UNL     1      -9.400  18.293  66.003  0.00  0.00    -0.291 OA
ATOM     23  C   UNL     1     -10.146  13.891  67.715  0.00  0.00    +0.006 C 
ATOM     24  C   UNL     1      -9.590  14.439  66.931  0.00  0.00    +0.014 C 
ATOM     25  C   UNL     1     -12.244  11.962  70.649  0.00  0.00    +0.006 C 
ATOM     26  C   UNL     1     -12.054  15.816  69.721  0.00  0.00    +0.033 C 
ENDROOT
BRANCH   1  27
ATOM     27  C   UNL     1     -13.381  14.578  71.579  0.00  0.00    +0.317 C 
ATOM     28  O   UNL     1     -14.862  14.600  71.339  0.00  0.00    -0.250 OA
BRANCH  27  30
ATOM     29  C   UNL     1     -12.530  15.895  73.651  0.00  0.00    +0.256 C 
ATOM     30  O   UNL     1     -12.849  14.591  72.982  0.00  0.00    -0.444 OA
ENDBRANCH  27  30
ENDBRANCH   1  27
TORSDOF 2
ENDMDL
MODEL 2
REMARK VINA RESULT:      -8.5      2.368      5.284
REMARK  Name = 
REMARK  2 active torsions:
REMARK  status: ('A' for Active; 'I' for Inactive)
REMARK    1  A    between atoms: O_2  and  C_3
REMARK    2  A    between atoms: C_3  and  C_5
REMARK                            x       y       z     vdW  Elec       q    Type
REMARK                         _______ _______ _______ _____ _____    ______ ____
ROOT
ATOM      1  C   UNL     1     -12.365  10.042  71.241  0.00  0.00    +0.105 C 
ATOM      2  C   UNL     1     -11.569  10.401  70.021  0.00  0.00    +0.039 C 
ATOM      3  C   UNL     1     -11.500  11.827  69.563  0.00  0.00    +0.121 C 
ATOM      4  C   UNL     1     -10.704  12.186  68.344  0.00  0.00    +0.140 C 
ATOM      5  C   UNL     1      -9.977  11.119  67.582  0.00  0.00    +0.035 C 
ATOM      6  C   UNL     1     -10.046   9.691  68.039  0.00  0.00    +0.036 C 
ATOM      7  C   UNL     1      -9.439   8.432  67.495  0.00  0.00    +0.136 C 
ATOM      8  O   UNL     1      -9.018   9.570  66.612  0.00  0.00    -0.456 OA
ATOM      9  C   UNL     1      -8.151   9.013  65.522  0.00  0.00    +0.317 C 
ATOM     10  O   UNL     1      -7.511   9.800  64.417  0.00  0.00    -0.250 OA
ATOM     11  C   UNL     1      -8.035   7.533  65.731  0.00  0.00    +0.113 C 
ATOM     12  C   UNL     1      -8.831   7.173  66.951  0.00  0.00    +0.052 C 
ATOM     13  C   UNL     1      -9.860   7.296  68.379  0.00  0.00    +0.040 C 
ATOM     14  C   UNL     1     -10.727   7.852  69.469  0.00  0.00    +0.004 C 
ATOM     15  C   UNL     1      -9.310  10.247  66.856  0.00  0.00    +0.004 C 
ATOM     16  O   UNL     1     -11.432  13.254  69.107  0.00  0.00    -0.356 OA
ATOM     17  C   UNL     1     -12.227  12.896  70.326  0.00  0.00    +0.041 C 
ATOM     18  C   UNL     1     -13.024  12.537  71.546  0.00  0.00    -0.039 C 
ATOM     19  C   UNL     1     -13.750  13.604  72.307  0.00  0.00    +0.029 C 
ATOM     20  C   UNL     1     -13.681  15.031  71.850  0.00  0.00    +0.173 C 
ATOM     21  C   UNL     1     -12.885  15.390  70.630  0.00  0.00    +0.070 C 
ATOM     22  O   UNL     1     -14.409  16.099  72.612  0.00  0.00    -0.291 OA
ATOM     23  C   UNL     1     -11.866  13.266  69.719  0.00  0.00    +0.006 C 
ATOM     24  C   UNL     1     -12.158  14.322  69.868  0.00  0.00    +0.014 C 
ATOM     25  C   UNL     1     -10.842   9.332  69.258  0.00  0.00    +0.006 C 
ATOM     26  C   UNL     1     -13.092  11.110  72.002  0.00  0.00    +0.033 C 
ENDROOT
BRANCH   1  27
ATOM     27  C   UNL     1     -12.434   8.615  71.698  0.00  0.00    +0.317 C 
ATOM     28  O   UNL     1     -11.393   8.076  72.634  0.00  0.00    -0.250 OA
BRANCH  27  30
ATOM     29  C   UNL     1     -14.889   7.783  71.883  0.00  0.00    +0.256 C 
ATOM     30  O   UNL     1     -13.545   7.727  71.220  0.00  0.00    -0.444 OA
ENDBRANCH  27  30
ENDBRANCH   1  27
TORSDOF 2
ENDMDL
MODEL 3
REMARK VINA RESULT:      -8.4      2.211      5.225
REMARK  Name = 
REMARK  2 active torsions:
REMARK  status: ('A' for Active; 'I' for Inactive)
REMARK    1  A    between atoms: O_2  and  C_3
REMARK    2  A    between atoms: C_3  and  C_5
REMARK                            x       y       z     vdW  Elec       q    Type
REMARK                         _______ _______ _______ _____ _____    ______ ____
ROOT
ATOM      1  C   UNL     1     -10.965  13.839  67.751  0.00  0.00    +0.105 C 
ATOM      2  C   UNL     1     -10.974  12.402  68.180  0.00  0.00    +0.039 C 
ATOM      3  C   UNL     1     -11.629  12.007  69.470  0.00  0.00    +0.121 C 
ATOM      4  C   UNL     1     -11.637  10.570  69.899  0.00  0.00    +0.140 C 
ATOM      5  C   UNL     1     -10.990   9.527  69.037  0.00  0.00    +0.035 C 
ATOM      6  C   UNL     1     -10.334   9.921  67.746  0.00  0.00    +0.036 C 
ATOM      7  C   UNL     1      -9.622   9.120  66.697  0.00  0.00    +0.136 C 
ATOM      8  O   UNL     1     -10.071   8.177  67.774  0.00  0.00    -0.456 OA
ATOM      9  C   UNL     1      -9.635   6.795  67.390  0.00  0.00    +0.317 C 
ATOM     10  O   UNL     1      -9.876   5.544  68.182  0.00  0.00    -0.250 OA
ATOM     11  C   UNL     1      -8.918   6.882  66.076  0.00  0.00    +0.113 C 
ATOM     12  C   UNL     1      -8.909   8.320  65.647  0.00  0.00    +0.052 C 
ATOM     13  C   UNL     1      -9.174  10.063  65.620  0.00  0.00    +0.040 C 
ATOM     14  C   UNL     1      -9.609  11.447  66.004  0.00  0.00    +0.004 C 
ATOM     15  C   UNL     1     -10.447   8.549  68.344  0.00  0.00    +0.004 C 
ATOM     16  O   UNL     1     -12.284  11.614  70.761  0.00  0.00    -0.356 OA
ATOM     17  C   UNL     1     -12.276  13.051  70.332  0.00  0.00    +0.041 C 
ATOM     18  C   UNL     1     -12.268  14.489  69.904  0.00  0.00    -0.039 C 
ATOM     19  C   UNL     1     -12.915  15.531  70.765  0.00  0.00    +0.029 C 
ATOM     20  C   UNL     1     -13.570  15.137  72.055  0.00  0.00    +0.173 C 
ATOM     21  C   UNL     1     -13.578  13.700  72.484  0.00  0.00    +0.070 C 
ATOM     22  O   UNL     1     -14.217  16.181  72.918  0.00  0.00    -0.291 OA
ATOM     23  C   UNL     1     -12.377  12.357  70.713  0.00  0.00    +0.006 C 
ATOM     24  C   UNL     1     -12.931  12.657  71.622  0.00  0.00    +0.014 C 
ATOM     25  C   UNL     1     -10.326  11.358  67.318  0.00  0.00    +0.006 C 
ATOM     26  C   UNL     1     -11.612  14.882  68.613  0.00  0.00    +0.033 C 
ENDROOT
BRANCH   1  27
ATOM     27  C   UNL     1     -10.310  14.233  66.461  0.00  0.00    +0.317 C 
ATOM     28  O   UNL     1      -8.870  14.655  66.449  0.00  0.00    -0.250 OA
BRANCH  27  30
ATOM     29  C   UNL     1     -12.549  13.843  65.203  0.00  0.00    +0.256 C 
ATOM     30  O   UNL     1     -11.094  14.206  65.183  0.00  0.00    -0.444 OA
ENDBRANCH  27  30
ENDBRANCH   1  27
TORSDOF 2
ENDMDL
MODEL 4
REMARK VINA RESULT:      -8.2      2.344      5.303
REMARK  Name = 
REMARK  2 active torsions:
REMARK  status: ('A' for Active; 'I' for Inactive)
REMARK    1  A    between atoms: O_2  and  C_3
REMARK    2  A    between atoms: C_3  and  C_5
REMARK                            x       y       z     vdW  Elec       q    Type
REMARK                         _______ _______ _______ _____ _____    ______ ____
ROOT
ATOM      1  C   UNL     1     -12.313  10.138  71.180  0.00  0.00    +0.105 C 
ATOM      2  C   UNL     1     -11.576  10.522  69.931  0.00  0.00    +0.039 C 
ATOM      3  C   UNL     1     -11.544  11.954  69.489  0.00  0.00    +0.121 C 
ATOM      4  C   UNL     1     -10.807  12.337  68.240  0.00  0.00    +0.140 C 
ATOM      5  C   UNL     1     -10.103  11.287  67.433  0.00  0.00    +0.035 C 
ATOM      6  C   UNL     1     -10.135   9.853  67.875  0.00  0.00    +0.036 C 
ATOM      7  C   UNL     1      -9.538   8.609  67.289  0.00  0.00    +0.136 C 
ATOM      8  O   UNL     1      -9.170   9.762  66.402  0.00  0.00    -0.456 OA
ATOM      9  C   UNL     1      -8.346   9.228  65.268  0.00  0.00    +0.317 C 
ATOM     10  O   UNL     1      -7.765  10.036  64.145  0.00  0.00    -0.250 OA
ATOM     11  C   UNL     1      -8.204   7.747  65.453  0.00  0.00    +0.113 C 
ATOM     12  C   UNL     1      -8.941   7.364  66.703  0.00  0.00    +0.052 C 
ATOM     13  C   UNL     1      -9.906   7.457  68.176  0.00  0.00    +0.040 C 
ATOM     14  C   UNL     1     -10.731   7.989  69.311  0.00  0.00    +0.004 C 
ATOM     15  C   UNL     1      -9.459  10.433  66.667  0.00  0.00    +0.004 C 
ATOM     16  O   UNL     1     -11.512  13.387  69.047  0.00  0.00    -0.356 OA
ATOM     17  C   UNL     1     -12.249  13.005  70.296  0.00  0.00    +0.041 C 
ATOM     18  C   UNL     1     -12.985  12.621  71.545  0.00  0.00    -0.039 C 
ATOM     19  C   UNL     1     -13.690  13.671  72.352  0.00  0.00    +0.029 C 
ATOM     20  C   UNL     1     -13.657  15.104  71.910  0.00  0.00    +0.173 C 
ATOM     21  C   UNL     1     -12.920  15.487  70.661  0.00  0.00    +0.070 C 
ATOM     22  O   UNL     1     -14.362  16.154  72.717  0.00  0.00    -0.291 OA
ATOM     23  C   UNL     1     -11.918  13.386  69.679  0.00  0.00    +0.006 C 
ATOM     24  C   UNL     1     -12.216  14.437  69.854  0.00  0.00    +0.014 C 
ATOM     25  C   UNL     1     -10.872   9.471  69.124  0.00  0.00    +0.006 C 
ATOM     26  C   UNL     1     -13.017  11.188  71.987  0.00  0.00    +0.033 C 
ENDROOT
BRANCH   1  27
ATOM     27  C   UNL     1     -12.346   8.706  71.623  0.00  0.00    +0.317 C 
ATOM     28  O   UNL     1     -13.481   7.817  71.206  0.00  0.00    -0.250 OA
BRANCH  27  30
ATOM     29  C   UNL     1     -11.138   6.683  72.718  0.00  0.00    +0.256 C 
ATOM     30  O   UNL     1     -11.243   8.160  72.482  0.00  0.00    -0.444 OA
ENDBRANCH  27  30
ENDBRANCH   1  27
TORSDOF 2
ENDMDL
MODEL 5
REMARK VINA RESULT:      -8.2      2.077      5.234
REMARK  Name = 
REMARK  2 active torsions:
REMARK  status: ('A' for Active; 'I' for Inactive)
REMARK    1  A    between atoms: O_2  and  C_3
REMARK    2  A    between atoms: C_3  and  C_5
REMARK                            x       y       z     vdW  Elec       q    Type
REMARK                         _______ _______ _______ _____ _____    ______ ____
ROOT
ATOM      1  C   UNL     1     -11.171  12.524  67.857  0.00  0.00    +0.105 C 
ATOM      2  C   UNL     1     -11.197  11.217  68.593  0.00  0.00    +0.039 C 
ATOM      3  C   UNL     1     -11.827  11.133  69.951  0.00  0.00    +0.121 C 
ATOM      4  C   UNL     1     -11.853   9.826  70.687  0.00  0.00    +0.140 C 
ATOM      5  C   UNL     1     -11.249   8.603  70.063  0.00  0.00    +0.035 C 
ATOM      6  C   UNL     1     -10.619   8.686  68.704  0.00  0.00    +0.036 C 
ATOM      7  C   UNL     1      -9.950   7.657  67.843  0.00  0.00    +0.136 C 
ATOM      8  O   UNL     1     -10.389   6.986  69.111  0.00  0.00    -0.456 OA
ATOM      9  C   UNL     1      -9.991   5.542  69.032  0.00  0.00    +0.317 C 
ATOM     10  O   UNL     1     -10.236   4.503  70.085  0.00  0.00    -0.250 OA
ATOM     11  C   UNL     1      -9.306   5.320  67.717  0.00  0.00    +0.113 C 
ATOM     12  C   UNL     1      -9.280   6.627  66.981  0.00  0.00    +0.052 C 
ATOM     13  C   UNL     1      -9.510   8.328  66.575  0.00  0.00    +0.040 C 
ATOM     14  C   UNL     1      -9.908   9.772  66.653  0.00  0.00    +0.004 C 
ATOM     15  C   UNL     1     -10.744   7.483  69.591  0.00  0.00    +0.004 C 
ATOM     16  O   UNL     1     -12.456  11.050  71.310  0.00  0.00    -0.356 OA
ATOM     17  C   UNL     1     -12.431  12.357  70.575  0.00  0.00    +0.041 C 
ATOM     18  C   UNL     1     -12.405  13.664  69.839  0.00  0.00    -0.039 C 
ATOM     19  C   UNL     1     -13.008  14.887  70.463  0.00  0.00    +0.029 C 
ATOM     20  C   UNL     1     -13.638  14.803  71.821  0.00  0.00    +0.173 C 
ATOM     21  C   UNL     1     -13.664  13.496  72.557  0.00  0.00    +0.070 C 
ATOM     22  O   UNL     1     -14.242  16.027  72.445  0.00  0.00    -0.291 OA
ATOM     23  C   UNL     1     -12.536  11.767  71.101  0.00  0.00    +0.006 C 
ATOM     24  C   UNL     1     -13.060  12.273  71.933  0.00  0.00    +0.014 C 
ATOM     25  C   UNL     1     -10.593   9.993  67.969  0.00  0.00    +0.006 C 
ATOM     26  C   UNL     1     -11.775  13.747  68.481  0.00  0.00    +0.033 C 
ENDROOT
BRANCH   1  27
ATOM     27  C   UNL     1     -10.541  12.608  66.499  0.00  0.00    +0.317 C 
ATOM     28  O   UNL     1      -9.085  12.943  66.366  0.00  0.00    -0.250 OA
BRANCH  27  30
ATOM     29  C   UNL     1     -12.210  13.457  64.698  0.00  0.00    +0.256 C 
ATOM     30  O   UNL     1     -11.368  12.357  65.272  0.00  0.00    -0.444 OA
ENDBRANCH  27  30
ENDBRANCH   1  27
TORSDOF 2
ENDMDL
MODEL 6
REMARK VINA RESULT:      -8.1      3.468      6.274
REMARK  Name = 
REMARK  2 active torsions:
REMARK  status: ('A' for Active; 'I' for Inactive)
REMARK    1  A    between atoms: O_2  and  C_3
REMARK    2  A    between atoms: C_3  and  C_5
REMARK                            x       y       z     vdW  Elec       q    Type
REMARK                         _______ _______ _______ _____ _____    ______ ____
ROOT
ATOM      1  C   UNL     1     -11.550  13.894  66.493  0.00  0.00    +0.105 C 
ATOM      2  C   UNL     1     -11.046  12.481  66.473  0.00  0.00    +0.039 C 
ATOM      3  C   UNL     1     -11.149  11.630  67.703  0.00  0.00    +0.121 C 
ATOM      4  C   UNL     1     -10.645  10.217  67.683  0.00  0.00    +0.140 C 
ATOM      5  C   UNL     1     -10.038   9.656  66.432  0.00  0.00    +0.035 C 
ATOM      6  C   UNL     1      -9.934  10.507  65.200  0.00  0.00    +0.036 C 
ATOM      7  C   UNL     1      -9.388  10.229  63.831  0.00  0.00    +0.136 C 
ATOM      8  O   UNL     1      -9.222   8.988  64.658  0.00  0.00    -0.456 OA
ATOM      9  C   UNL     1      -8.573   7.944  63.799  0.00  0.00    +0.317 C 
ATOM     10  O   UNL     1      -8.220   6.549  64.223  0.00  0.00    -0.250 OA
ATOM     11  C   UNL     1      -8.338   8.539  62.442  0.00  0.00    +0.113 C 
ATOM     12  C   UNL     1      -8.842   9.951  62.462  0.00  0.00    +0.052 C 
ATOM     13  C   UNL     1      -9.555  11.470  63.006  0.00  0.00    +0.040 C 
ATOM     14  C   UNL     1     -10.204  12.515  63.865  0.00  0.00    +0.004 C 
ATOM     15  C   UNL     1      -9.492   9.085  65.380  0.00  0.00    +0.004 C 
ATOM     16  O   UNL     1     -11.253  10.780  68.934  0.00  0.00    -0.356 OA
ATOM     17  C   UNL     1     -11.757  12.192  68.955  0.00  0.00    +0.041 C 
ATOM     18  C   UNL     1     -12.261  13.605  68.975  0.00  0.00    -0.039 C 
ATOM     19  C   UNL     1     -12.868  14.166  70.226  0.00  0.00    +0.029 C 
ATOM     20  C   UNL     1     -12.971  13.315  71.456  0.00  0.00    +0.173 C 
ATOM     21  C   UNL     1     -12.467  11.902  71.436  0.00  0.00    +0.070 C 
ATOM     22  O   UNL     1     -13.579  13.877  72.708  0.00  0.00    -0.291 OA
ATOM     23  C   UNL     1     -11.549  11.442  69.129  0.00  0.00    +0.006 C 
ATOM     24  C   UNL     1     -11.860  11.341  70.185  0.00  0.00    +0.014 C 
ATOM     25  C   UNL     1     -10.438  11.919  65.221  0.00  0.00    +0.006 C 
ATOM     26  C   UNL     1     -12.157  14.455  67.744  0.00  0.00    +0.033 C 
ENDROOT
BRANCH   1  27
ATOM     27  C   UNL     1     -11.447  14.745  65.262  0.00  0.00    +0.317 C 
ATOM     28  O   UNL     1     -12.552  14.733  64.247  0.00  0.00    -0.250 OA
BRANCH  27  30
ATOM     29  C   UNL     1      -9.146  15.638  66.072  0.00  0.00    +0.256 C 
ATOM     30  O   UNL     1     -10.239  15.607  65.046  0.00  0.00    -0.444 OA
ENDBRANCH  27  30
ENDBRANCH   1  27
TORSDOF 2
ENDMDL
MODEL 7
REMARK VINA RESULT:      -8.0      1.972      8.034
REMARK  Name = 
REMARK  2 active torsions:
REMARK  status: ('A' for Active; 'I' for Inactive)
REMARK    1  A    between atoms: O_2  and  C_3
REMARK    2  A    between atoms: C_3  and  C_5
REMARK                            x       y       z     vdW  Elec       q    Type
REMARK                         _______ _______ _______ _____ _____    ______ ____
ROOT
ATOM      1  C   UNL     1     -10.188  12.100  67.891  0.00  0.00    +0.105 C 
ATOM      2  C   UNL     1     -10.458  13.511  68.326  0.00  0.00    +0.039 C 
ATOM      3  C   UNL     1     -11.358  13.775  69.496  0.00  0.00    +0.121 C 
ATOM      4  C   UNL     1     -11.629  15.185  69.931  0.00  0.00    +0.140 C 
ATOM      5  C   UNL     1     -10.999  16.330  69.195  0.00  0.00    +0.035 C 
ATOM      6  C   UNL     1     -10.099  16.066  68.024  0.00  0.00    +0.036 C 
ATOM      7  C   UNL     1      -9.343  16.986  67.112  0.00  0.00    +0.136 C 
ATOM      8  O   UNL     1     -10.081  17.827  68.110  0.00  0.00    -0.456 OA
ATOM      9  C   UNL     1      -9.780  19.267  67.815  0.00  0.00    +0.317 C 
ATOM     10  O   UNL     1     -10.311  20.450  68.568  0.00  0.00    -0.250 OA
ATOM     11  C   UNL     1      -8.857  19.315  66.634  0.00  0.00    +0.113 C 
ATOM     12  C   UNL     1      -8.587  17.905  66.199  0.00  0.00    +0.052 C 
ATOM     13  C   UNL     1      -8.605  16.143  66.113  0.00  0.00    +0.040 C 
ATOM     14  C   UNL     1      -8.905  14.703  66.408  0.00  0.00    +0.004 C 
ATOM     15  C   UNL     1     -10.490  17.392  68.608  0.00  0.00    +0.004 C 
ATOM     16  O   UNL     1     -12.258  14.039  70.666  0.00  0.00    -0.356 OA
ATOM     17  C   UNL     1     -11.988  12.629  70.232  0.00  0.00    +0.041 C 
ATOM     18  C   UNL     1     -11.717  11.219  69.798  0.00  0.00    -0.039 C 
ATOM     19  C   UNL     1     -12.347  10.074  70.534  0.00  0.00    +0.029 C 
ATOM     20  C   UNL     1     -13.246  10.339  71.704  0.00  0.00    +0.173 C 
ATOM     21  C   UNL     1     -13.517  11.749  72.138  0.00  0.00    +0.070 C 
ATOM     22  O   UNL     1     -13.876   9.193  72.440  0.00  0.00    -0.291 OA
ATOM     23  C   UNL     1     -12.241  13.291  70.598  0.00  0.00    +0.006 C 
ATOM     24  C   UNL     1     -12.888  12.894  71.402  0.00  0.00    +0.014 C 
ATOM     25  C   UNL     1      -9.829  14.656  67.590  0.00  0.00    +0.006 C 
ATOM     26  C   UNL     1     -10.817  10.955  68.627  0.00  0.00    +0.033 C 
ENDROOT
BRANCH   1  27
ATOM     27  C   UNL     1      -9.288  11.836  66.721  0.00  0.00    +0.317 C 
ATOM     28  O   UNL     1      -7.803  11.755  66.920  0.00  0.00    -0.250 OA
BRANCH  27  30
ATOM     29  C   UNL     1     -11.275  12.103  65.068  0.00  0.00    +0.256 C 
ATOM     30  O   UNL     1      -9.872  11.652  65.352  0.00  0.00    -0.444 OA
ENDBRANCH  27  30
ENDBRANCH   1  27
TORSDOF 2
ENDMDL
MODEL 8
REMARK VINA RESULT:      -7.9      2.494      6.710
REMARK  Name = 
REMARK  2 active torsions:
REMARK  status: ('A' for Active; 'I' for Inactive)
REMARK    1  A    between atoms: O_2  and  C_3
REMARK    2  A    between atoms: C_3  and  C_5
REMARK                            x       y       z     vdW  Elec       q    Type
REMARK                         _______ _______ _______ _____ _____    ______ ____
ROOT
ATOM      1  C   UNL     1     -11.566   8.025  70.258  0.00  0.00    +0.105 C 
ATOM      2  C   UNL     1     -11.431   9.416  69.713  0.00  0.00    +0.039 C 
ATOM      3  C   UNL     1     -10.690   9.650  68.431  0.00  0.00    +0.121 C 
ATOM      4  C   UNL     1     -10.554  11.041  67.886  0.00  0.00    +0.140 C 
ATOM      5  C   UNL     1     -11.160  12.198  68.624  0.00  0.00    +0.035 C 
ATOM      6  C   UNL     1     -11.901  11.964  69.907  0.00  0.00    +0.036 C 
ATOM      7  C   UNL     1     -12.599  12.900  70.848  0.00  0.00    +0.136 C 
ATOM      8  O   UNL     1     -12.032  13.712  69.721  0.00  0.00    -0.456 OA
ATOM      9  C   UNL     1     -12.380  15.151  69.967  0.00  0.00    +0.317 C 
ATOM     10  O   UNL     1     -12.010  16.308  69.088  0.00  0.00    -0.250 OA
ATOM     11  C   UNL     1     -13.161  15.228  71.245  0.00  0.00    +0.113 C 
ATOM     12  C   UNL     1     -13.297  13.837  71.790  0.00  0.00    +0.052 C 
ATOM     13  C   UNL     1     -13.165  12.088  71.975  0.00  0.00    +0.040 C 
ATOM     14  C   UNL     1     -12.818  10.649  71.730  0.00  0.00    +0.004 C 
ATOM     15  C   UNL     1     -11.659  13.267  69.205  0.00  0.00    +0.004 C 
ATOM     16  O   UNL     1      -9.948   9.884  67.148  0.00  0.00    -0.356 OA
ATOM     17  C   UNL     1     -10.083   8.493  67.692  0.00  0.00    +0.041 C 
ATOM     18  C   UNL     1     -10.219   7.102  68.237  0.00  0.00    -0.039 C 
ATOM     19  C   UNL     1      -9.613   5.945  67.499  0.00  0.00    +0.029 C 
ATOM     20  C   UNL     1      -8.872   6.180  66.217  0.00  0.00    +0.173 C 
ATOM     21  C   UNL     1      -8.737   7.571  65.672  0.00  0.00    +0.070 C 
ATOM     22  O   UNL     1      -8.266   5.022  65.478  0.00  0.00    -0.291 OA
ATOM     23  C   UNL     1      -9.914   9.142  67.261  0.00  0.00    +0.006 C 
ATOM     24  C   UNL     1      -9.342   8.727  66.410  0.00  0.00    +0.014 C 
ATOM     25  C   UNL     1     -12.037  10.573  70.452  0.00  0.00    +0.006 C 
ATOM     26  C   UNL     1     -10.960   6.868  69.520  0.00  0.00    +0.033 C 
ENDROOT
BRANCH   1  27
ATOM     27  C   UNL     1     -12.307   7.790  71.541  0.00  0.00    +0.317 C 
ATOM     28  O   UNL     1     -13.784   7.524  71.516  0.00  0.00    -0.250 OA
BRANCH  27  30
ATOM     29  C   UNL     1     -10.087   8.025  72.869  0.00  0.00    +0.256 C 
ATOM     30  O   UNL     1     -11.573   7.822  72.848  0.00  0.00    -0.444 OA
ENDBRANCH  27  30
ENDBRANCH   1  27
TORSDOF 2
ENDMDL
MODEL 9
REMARK VINA RESULT:      -7.8      2.642      5.143
REMARK  Name = 
REMARK  2 active torsions:
REMARK  status: ('A' for Active; 'I' for Inactive)
REMARK    1  A    between atoms: O_2  and  C_3
REMARK    2  A    between atoms: C_3  and  C_5
REMARK                            x       y       z     vdW  Elec       q    Type
REMARK                         _______ _______ _______ _____ _____    ______ ____
ROOT
ATOM      1  C   UNL     1     -12.118   9.419  71.068  0.00  0.00    +0.105 C 
ATOM      2  C   UNL     1     -11.414   9.280  69.750  0.00  0.00    +0.039 C 
ATOM      3  C   UNL     1     -11.172  10.489  68.897  0.00  0.00    +0.121 C 
ATOM      4  C   UNL     1     -10.468  10.349  67.580  0.00  0.00    +0.140 C 
ATOM      5  C   UNL     1     -10.006   9.000  67.116  0.00  0.00    +0.035 C 
ATOM      6  C   UNL     1     -10.248   7.789  67.970  0.00  0.00    +0.036 C 
ATOM      7  C   UNL     1      -9.910   6.341  67.776  0.00  0.00    +0.136 C 
ATOM      8  O   UNL     1      -9.415   7.097  66.578  0.00  0.00    -0.456 OA
ATOM      9  C   UNL     1      -8.771   6.115  65.645  0.00  0.00    +0.317 C 
ATOM     10  O   UNL     1      -8.141   6.439  64.323  0.00  0.00    -0.250 OA
ATOM     11  C   UNL     1      -8.867   4.753  66.266  0.00  0.00    +0.113 C 
ATOM     12  C   UNL     1      -9.571   4.892  67.583  0.00  0.00    +0.052 C 
ATOM     13  C   UNL     1     -10.405   5.586  68.974  0.00  0.00    +0.040 C 
ATOM     14  C   UNL     1     -11.049   6.568  69.908  0.00  0.00    +0.004 C 
ATOM     15  C   UNL     1      -9.568   7.857  66.634  0.00  0.00    +0.004 C 
ATOM     16  O   UNL     1     -10.930  11.699  68.044  0.00  0.00    -0.356 OA
ATOM     17  C   UNL     1     -11.634  11.839  69.361  0.00  0.00    +0.041 C 
ATOM     18  C   UNL     1     -12.338  11.979  70.678  0.00  0.00    -0.039 C 
ATOM     19  C   UNL     1     -12.800  13.328  71.142  0.00  0.00    +0.029 C 
ATOM     20  C   UNL     1     -12.558  14.537  70.289  0.00  0.00    +0.173 C 
ATOM     21  C   UNL     1     -11.854  14.398  68.971  0.00  0.00    +0.070 C 
ATOM     22  O   UNL     1     -13.020  15.888  70.753  0.00  0.00    -0.291 OA
ATOM     23  C   UNL     1     -11.287  11.957  68.652  0.00  0.00    +0.006 C 
ATOM     24  C   UNL     1     -11.392  13.048  68.508  0.00  0.00    +0.014 C 
ATOM     25  C   UNL     1     -10.952   7.929  69.286  0.00  0.00    +0.006 C 
ATOM     26  C   UNL     1     -12.580  10.769  71.531  0.00  0.00    +0.033 C 
ENDROOT
BRANCH   1  27
ATOM     27  C   UNL     1     -12.360   8.210  71.921  0.00  0.00    +0.317 C 
ATOM     28  O   UNL     1     -11.381   7.844  72.998  0.00  0.00    -0.250 OA
BRANCH  27  30
ATOM     29  C   UNL     1     -14.944   7.943  71.936  0.00  0.00    +0.256 C 
ATOM     30  O   UNL     1     -13.580   7.366  71.698  0.00  0.00    -0.444 OA
ENDBRANCH  27  30
ENDBRANCH   1  27
TORSDOF 2
ENDMDL
