MODEL 1
REMARK VINA RESULT:      -6.8      0.000      0.000
REMARK  Name = 
REMARK  6 active torsions:
REMARK  status: ('A' for Active; 'I' for Inactive)
REMARK    1  A    between atoms: O_2  and  C_3
REMARK    2  A    between atoms: C_10  and  C_11
REMARK    3  A    between atoms: C_11  and  C_12
REMARK    4  A    between atoms: C_13  and  C_15
REMARK    5  A    between atoms: C_15  and  C_16
REMARK    6  A    between atoms: C_16  and  C_17
REMARK                            x       y       z     vdW  Elec       q    Type
REMARK                         _______ _______ _______ _____ _____    ______ ____
ROOT
ATOM      1  C   UNL     1     -11.807  11.976  69.043  0.00  0.00    +0.134 A 
ATOM      2  C   UNL     1     -11.685  13.299  68.630  0.00  0.00    +0.055 A 
ATOM      3  C   UNL     1     -11.933  14.258  69.605  0.00  0.00    +0.201 A 
ATOM      4  O   UNL     1     -11.844  15.595  69.213  0.00  0.00    -0.287 OA
ATOM      5  C   UNL     1     -12.497  13.929  70.832  0.00  0.00    +0.114 A 
ATOM      6  C   UNL     1     -13.221  14.694  71.857  0.00  0.00    +0.344 C 
ATOM      7  O   UNL     1     -14.190  13.854  72.415  0.00  0.00    -0.440 OA
ATOM      8  C   UNL     1     -13.614  12.560  72.375  0.00  0.00    +0.235 C 
ATOM      9  O   UNL     1     -13.398  15.935  71.789  0.00  0.00    -0.245 OA
ATOM     10  C   UNL     1     -12.770  12.606  71.140  0.00  0.00    +0.030 A 
ATOM     11  C   UNL     1     -12.189  11.637  70.333  0.00  0.00    +0.012 A 
ATOM     12  C   UNL     1     -12.520  10.222  70.689  0.00  0.00    +0.034 C 
ENDROOT
BRANCH   1  14
ATOM     13  C   UNL     1     -10.708  10.226  67.698  0.00  0.00    +0.252 C 
ATOM     14  O   UNL     1     -11.849  10.944  68.100  0.00  0.00    -0.472 OA
ENDBRANCH   1  14
BRANCH   2  15
ATOM     15  C   UNL     1     -11.937  13.549  67.197  0.00  0.00    +0.058 C 
BRANCH  15  16
ATOM     16  C   UNL     1     -10.719  13.788  66.398  0.00  0.00    -0.030 C 
ATOM     17  C   UNL     1     -10.616  14.713  65.444  0.00  0.00    -0.047 C 
ATOM     18  C   UNL     1     -11.870  14.895  64.643  0.00  0.00    +0.026 C 
BRANCH  17  19
ATOM     19  C   UNL     1      -9.685  15.864  65.491  0.00  0.00    +0.034 C 
BRANCH  19  20
ATOM     20  C   UNL     1      -9.679  16.591  66.797  0.00  0.00    +0.118 C 
BRANCH  20  21
ATOM     21  C   UNL     1     -10.182  17.986  66.703  0.00  0.00    +0.365 C 
ATOM     22  O   UNL     1     -10.658  18.374  65.446  0.00  0.00    -0.246 OA
ATOM     23  O   UNL     1     -10.896  18.365  67.682  0.00  0.00    -0.246 OA
ENDBRANCH  20  21
ENDBRANCH  19  20
ENDBRANCH  17  19
ENDBRANCH  15  16
ENDBRANCH   2  15
TORSDOF 6
ENDMDL
MODEL 2
REMARK VINA RESULT:      -6.7      2.067      6.464
REMARK  Name = 
REMARK  6 active torsions:
REMARK  status: ('A' for Active; 'I' for Inactive)
REMARK    1  A    between atoms: O_2  and  C_3
REMARK    2  A    between atoms: C_10  and  C_11
REMARK    3  A    between atoms: C_11  and  C_12
REMARK    4  A    between atoms: C_13  and  C_15
REMARK    5  A    between atoms: C_15  and  C_16
REMARK    6  A    between atoms: C_16  and  C_17
REMARK                            x       y       z     vdW  Elec       q    Type
REMARK                         _______ _______ _______ _____ _____    ______ ____
ROOT
ATOM      1  C   UNL     1      -9.953  14.791  67.765  0.00  0.00    +0.134 A 
ATOM      2  C   UNL     1     -10.668  13.646  68.100  0.00  0.00    +0.055 A 
ATOM      3  C   UNL     1     -11.321  13.016  67.047  0.00  0.00    +0.201 A 
ATOM      4  O   UNL     1     -12.069  11.878  67.358  0.00  0.00    -0.287 OA
ATOM      5  C   UNL     1     -11.452  13.615  65.800  0.00  0.00    +0.114 A 
ATOM      6  C   UNL     1     -12.370  13.421  64.669  0.00  0.00    +0.344 C 
ATOM      7  O   UNL     1     -12.603  14.670  64.085  0.00  0.00    -0.440 OA
ATOM      8  C   UNL     1     -11.390  15.382  64.259  0.00  0.00    +0.235 C 
ATOM      9  O   UNL     1     -13.243  12.519  64.641  0.00  0.00    -0.245 OA
ATOM     10  C   UNL     1     -10.870  14.849  65.556  0.00  0.00    +0.030 A 
ATOM     11  C   UNL     1      -9.924  15.292  66.471  0.00  0.00    +0.012 A 
ATOM     12  C   UNL     1      -9.329  16.634  66.180  0.00  0.00    +0.034 C 
ENDROOT
BRANCH   1  14
ATOM     13  C   UNL     1      -8.221  15.518  69.363  0.00  0.00    +0.252 C 
ATOM     14  O   UNL     1      -9.487  15.651  68.765  0.00  0.00    -0.472 OA
ENDBRANCH   1  14
BRANCH   2  15
ATOM     15  C   UNL     1     -11.171  13.587  69.487  0.00  0.00    +0.058 C 
BRANCH  15  16
ATOM     16  C   UNL     1     -12.427  14.329  69.711  0.00  0.00    -0.030 C 
ATOM     17  C   UNL     1     -13.065  14.391  70.879  0.00  0.00    -0.047 C 
ATOM     18  C   UNL     1     -13.006  13.116  71.666  0.00  0.00    +0.026 C 
BRANCH  17  19
ATOM     19  C   UNL     1     -13.283  15.637  71.650  0.00  0.00    +0.034 C 
BRANCH  19  20
ATOM     20  C   UNL     1     -12.159  15.988  72.571  0.00  0.00    +0.118 C 
BRANCH  20  21
ATOM     21  C   UNL     1     -12.546  15.991  74.005  0.00  0.00    +0.365 C 
ATOM     22  O   UNL     1     -12.269  14.814  74.710  0.00  0.00    -0.246 OA
ATOM     23  O   UNL     1     -12.274  17.061  74.632  0.00  0.00    -0.246 OA
ENDBRANCH  20  21
ENDBRANCH  19  20
ENDBRANCH  17  19
ENDBRANCH  15  16
ENDBRANCH   2  15
TORSDOF 6
ENDMDL
MODEL 3
REMARK VINA RESULT:      -6.3      2.052      5.757
REMARK  Name = 
REMARK  6 active torsions:
REMARK  status: ('A' for Active; 'I' for Inactive)
REMARK    1  A    between atoms: O_2  and  C_3
REMARK    2  A    between atoms: C_10  and  C_11
REMARK    3  A    between atoms: C_11  and  C_12
REMARK    4  A    between atoms: C_13  and  C_15
REMARK    5  A    between atoms: C_15  and  C_16
REMARK    6  A    between atoms: C_16  and  C_17
REMARK                            x       y       z     vdW  Elec       q    Type
REMARK                         _______ _______ _______ _____ _____    ______ ____
ROOT
ATOM      1  C   UNL     1      -8.831  15.303  67.193  0.00  0.00    +0.134 A 
ATOM      2  C   UNL     1      -9.696  15.412  66.109  0.00  0.00    +0.055 A 
ATOM      3  C   UNL     1      -9.982  16.707  65.696  0.00  0.00    +0.201 A 
ATOM      4  O   UNL     1     -10.870  16.848  64.627  0.00  0.00    -0.287 OA
ATOM      5  C   UNL     1      -9.627  17.815  66.456  0.00  0.00    +0.114 A 
ATOM      6  C   UNL     1     -10.103  19.204  66.513  0.00  0.00    +0.344 C 
ATOM      7  O   UNL     1     -10.028  19.629  67.844  0.00  0.00    -0.440 OA
ATOM      8  C   UNL     1      -8.906  18.949  68.378  0.00  0.00    +0.235 C 
ATOM      9  O   UNL     1     -10.971  19.665  65.733  0.00  0.00    -0.245 OA
ATOM     10  C   UNL     1      -8.911  17.653  67.631  0.00  0.00    +0.030 A 
ATOM     11  C   UNL     1      -8.316  16.416  67.842  0.00  0.00    +0.012 A 
ATOM     12  C   UNL     1      -7.564  16.276  69.128  0.00  0.00    +0.034 C 
ENDROOT
BRANCH   1  14
ATOM     13  C   UNL     1      -7.734  13.114  67.491  0.00  0.00    +0.252 C 
ATOM     14  O   UNL     1      -8.685  14.083  67.861  0.00  0.00    -0.472 OA
ENDBRANCH   1  14
BRANCH   2  15
ATOM     15  C   UNL     1     -10.655  14.301  65.941  0.00  0.00    +0.058 C 
BRANCH  15  16
ATOM     16  C   UNL     1     -11.803  14.344  66.867  0.00  0.00    -0.030 C 
ATOM     17  C   UNL     1     -11.990  13.491  67.874  0.00  0.00    -0.047 C 
ATOM     18  C   UNL     1     -11.558  12.089  67.562  0.00  0.00    +0.026 C 
BRANCH  17  19
ATOM     19  C   UNL     1     -12.016  13.875  69.304  0.00  0.00    +0.034 C 
BRANCH  19  20
ATOM     20  C   UNL     1     -11.756  15.326  69.550  0.00  0.00    +0.118 C 
BRANCH  20  21
ATOM     21  C   UNL     1     -12.150  15.778  70.909  0.00  0.00    +0.365 C 
ATOM     22  O   UNL     1     -13.523  15.754  71.181  0.00  0.00    -0.246 OA
ATOM     23  O   UNL     1     -11.416  15.349  71.851  0.00  0.00    -0.246 OA
ENDBRANCH  20  21
ENDBRANCH  19  20
ENDBRANCH  17  19
ENDBRANCH  15  16
ENDBRANCH   2  15
TORSDOF 6
ENDMDL
MODEL 4
REMARK VINA RESULT:      -6.3      1.945      6.446
REMARK  Name = 
REMARK  6 active torsions:
REMARK  status: ('A' for Active; 'I' for Inactive)
REMARK    1  A    between atoms: O_2  and  C_3
REMARK    2  A    between atoms: C_10  and  C_11
REMARK    3  A    between atoms: C_11  and  C_12
REMARK    4  A    between atoms: C_13  and  C_15
REMARK    5  A    between atoms: C_15  and  C_16
REMARK    6  A    between atoms: C_16  and  C_17
REMARK                            x       y       z     vdW  Elec       q    Type
REMARK                         _______ _______ _______ _____ _____    ______ ____
ROOT
ATOM      1  C   UNL     1      -9.517  14.277  67.213  0.00  0.00    +0.134 A 
ATOM      2  C   UNL     1      -9.900  12.945  67.085  0.00  0.00    +0.055 A 
ATOM      3  C   UNL     1     -10.548  12.617  65.901  0.00  0.00    +0.201 A 
ATOM      4  O   UNL     1     -10.968  11.293  65.756  0.00  0.00    -0.287 OA
ATOM      5  C   UNL     1     -10.998  13.590  65.016  0.00  0.00    +0.114 A 
ATOM      6  C   UNL     1     -12.010  13.607  63.952  0.00  0.00    +0.344 C 
ATOM      7  O   UNL     1     -12.602  14.874  63.941  0.00  0.00    -0.440 OA
ATOM      8  C   UNL     1     -11.566  15.760  64.330  0.00  0.00    +0.235 C 
ATOM      9  O   UNL     1     -12.654  12.588  63.600  0.00  0.00    -0.245 OA
ATOM     10  C   UNL     1     -10.748  14.929  65.269  0.00  0.00    +0.030 A 
ATOM     11  C   UNL     1      -9.797  15.223  66.237  0.00  0.00    +0.012 A 
ATOM     12  C   UNL     1      -9.568  16.680  66.490  0.00  0.00    +0.034 C 
ENDROOT
BRANCH   1  14
ATOM     13  C   UNL     1      -7.770  14.753  68.887  0.00  0.00    +0.252 C 
ATOM     14  O   UNL     1      -9.107  14.779  68.452  0.00  0.00    -0.472 OA
ENDBRANCH   1  14
BRANCH   2  15
ATOM     15  C   UNL     1     -10.160  12.230  68.351  0.00  0.00    +0.058 C 
BRANCH  15  16
ATOM     16  C   UNL     1     -11.543  12.358  68.849  0.00  0.00    -0.030 C 
ATOM     17  C   UNL     1     -12.028  11.697  69.900  0.00  0.00    -0.047 C 
ATOM     18  C   UNL     1     -11.501  10.299  70.027  0.00  0.00    +0.026 C 
BRANCH  17  19
ATOM     19  C   UNL     1     -12.510  12.340  71.144  0.00  0.00    +0.034 C 
BRANCH  19  20
ATOM     20  C   UNL     1     -12.587  13.831  71.070  0.00  0.00    +0.118 C 
BRANCH  20  21
ATOM     21  C   UNL     1     -13.604  14.419  71.978  0.00  0.00    +0.365 C 
ATOM     22  O   UNL     1     -14.305  15.519  71.471  0.00  0.00    -0.246 OA
ATOM     23  O   UNL     1     -14.320  13.576  72.600  0.00  0.00    -0.246 OA
ENDBRANCH  20  21
ENDBRANCH  19  20
ENDBRANCH  17  19
ENDBRANCH  15  16
ENDBRANCH   2  15
TORSDOF 6
ENDMDL
MODEL 5
REMARK VINA RESULT:      -6.2      1.996      5.701
REMARK  Name = 
REMARK  6 active torsions:
REMARK  status: ('A' for Active; 'I' for Inactive)
REMARK    1  A    between atoms: O_2  and  C_3
REMARK    2  A    between atoms: C_10  and  C_11
REMARK    3  A    between atoms: C_11  and  C_12
REMARK    4  A    between atoms: C_13  and  C_15
REMARK    5  A    between atoms: C_15  and  C_16
REMARK    6  A    between atoms: C_16  and  C_17
REMARK                            x       y       z     vdW  Elec       q    Type
REMARK                         _______ _______ _______ _____ _____    ______ ____
ROOT
ATOM      1  C   UNL     1      -8.965  13.390  66.948  0.00  0.00    +0.134 A 
ATOM      2  C   UNL     1      -9.971  12.962  66.088  0.00  0.00    +0.055 A 
ATOM      3  C   UNL     1     -10.433  13.911  65.184  0.00  0.00    +0.201 A 
ATOM      4  O   UNL     1     -11.462  13.517  64.326  0.00  0.00    -0.287 OA
ATOM      5  C   UNL     1     -10.092  15.254  65.290  0.00  0.00    +0.114 A 
ATOM      6  C   UNL     1     -10.689  16.498  64.787  0.00  0.00    +0.344 C 
ATOM      7  O   UNL     1     -10.483  17.493  65.749  0.00  0.00    -0.440 OA
ATOM      8  C   UNL     1      -9.240  17.167  66.345  0.00  0.00    +0.235 C 
ATOM      9  O   UNL     1     -11.693  16.522  64.033  0.00  0.00    -0.245 OA
ATOM     10  C   UNL     1      -9.216  15.673  66.279  0.00  0.00    +0.030 A 
ATOM     11  C   UNL     1      -8.481  14.690  66.929  0.00  0.00    +0.012 A 
ATOM     12  C   UNL     1      -7.558  15.182  68.000  0.00  0.00    +0.034 C 
ENDROOT
BRANCH   1  14
ATOM     13  C   UNL     1      -7.649  11.601  68.020  0.00  0.00    +0.252 C 
ATOM     14  O   UNL     1      -8.615  12.622  68.064  0.00  0.00    -0.472 OA
ENDBRANCH   1  14
BRANCH   2  15
ATOM     15  C   UNL     1     -10.831  11.875  66.599  0.00  0.00    +0.058 C 
BRANCH  15  16
ATOM     16  C   UNL     1     -11.890  12.322  67.524  0.00  0.00    -0.030 C 
ATOM     17  C   UNL     1     -11.921  12.037  68.826  0.00  0.00    -0.047 C 
ATOM     18  C   UNL     1     -11.418  10.662  69.152  0.00  0.00    +0.026 C 
BRANCH  17  19
ATOM     19  C   UNL     1     -11.844  13.046  69.907  0.00  0.00    +0.034 C 
BRANCH  19  20
ATOM     20  C   UNL     1     -11.603  14.440  69.424  0.00  0.00    +0.118 C 
BRANCH  20  21
ATOM     21  C   UNL     1     -12.303  15.476  70.227  0.00  0.00    +0.365 C 
ATOM     22  O   UNL     1     -13.473  15.056  70.869  0.00  0.00    -0.246 OA
ATOM     23  O   UNL     1     -11.545  16.210  70.932  0.00  0.00    -0.246 OA
ENDBRANCH  20  21
ENDBRANCH  19  20
ENDBRANCH  17  19
ENDBRANCH  15  16
ENDBRANCH   2  15
TORSDOF 6
ENDMDL
MODEL 6
REMARK VINA RESULT:      -6.1      2.129      4.141
REMARK  Name = 
REMARK  6 active torsions:
REMARK  status: ('A' for Active; 'I' for Inactive)
REMARK    1  A    between atoms: O_2  and  C_3
REMARK    2  A    between atoms: C_10  and  C_11
REMARK    3  A    between atoms: C_11  and  C_12
REMARK    4  A    between atoms: C_13  and  C_15
REMARK    5  A    between atoms: C_15  and  C_16
REMARK    6  A    between atoms: C_16  and  C_17
REMARK                            x       y       z     vdW  Elec       q    Type
REMARK                         _______ _______ _______ _____ _____    ______ ____
ROOT
ATOM      1  C   UNL     1     -10.340  14.592  68.028  0.00  0.00    +0.134 A 
ATOM      2  C   UNL     1     -10.585  13.229  68.154  0.00  0.00    +0.055 A 
ATOM      3  C   UNL     1     -11.581  12.879  69.058  0.00  0.00    +0.201 A 
ATOM      4  O   UNL     1     -11.831  11.515  69.225  0.00  0.00    -0.287 OA
ATOM      5  C   UNL     1     -12.123  13.799  69.946  0.00  0.00    +0.114 A 
ATOM      6  C   UNL     1     -12.845  13.680  71.221  0.00  0.00    +0.344 C 
ATOM      7  O   UNL     1     -12.470  14.758  72.029  0.00  0.00    -0.440 OA
ATOM      8  C   UNL     1     -12.236  15.824  71.125  0.00  0.00    +0.235 C 
ATOM      9  O   UNL     1     -13.175  12.578  71.722  0.00  0.00    -0.245 OA
ATOM     10  C   UNL     1     -11.721  15.125  69.907  0.00  0.00    +0.030 A 
ATOM     11  C   UNL     1     -11.019  15.539  68.782  0.00  0.00    +0.012 A 
ATOM     12  C   UNL     1     -10.590  16.972  68.784  0.00  0.00    +0.034 C 
ENDROOT
BRANCH   1  14
ATOM     13  C   UNL     1      -9.232  15.647  66.093  0.00  0.00    +0.252 C 
ATOM     14  O   UNL     1      -9.195  15.046  67.364  0.00  0.00    -0.472 OA
ENDBRANCH   1  14
BRANCH   2  15
ATOM     15  C   UNL     1      -9.441  12.342  67.858  0.00  0.00    +0.058 C 
BRANCH  15  16
ATOM     16  C   UNL     1      -9.254  12.050  66.425  0.00  0.00    -0.030 C 
ATOM     17  C   UNL     1      -9.955  11.143  65.745  0.00  0.00    -0.047 C 
ATOM     18  C   UNL     1     -10.284   9.916  66.541  0.00  0.00    +0.026 C 
BRANCH  17  19
ATOM     19  C   UNL     1     -10.851  11.456  64.608  0.00  0.00    +0.034 C 
BRANCH  19  20
ATOM     20  C   UNL     1     -10.919  12.911  64.268  0.00  0.00    +0.118 C 
BRANCH  20  21
ATOM     21  C   UNL     1     -12.200  13.553  64.658  0.00  0.00    +0.365 C 
ATOM     22  O   UNL     1     -12.603  14.633  63.865  0.00  0.00    -0.246 OA
ATOM     23  O   UNL     1     -13.130  12.748  64.970  0.00  0.00    -0.246 OA
ENDBRANCH  20  21
ENDBRANCH  19  20
ENDBRANCH  17  19
ENDBRANCH  15  16
ENDBRANCH   2  15
TORSDOF 6
ENDMDL
MODEL 7
REMARK VINA RESULT:      -6.0      2.016      4.207
REMARK  Name = 
REMARK  6 active torsions:
REMARK  status: ('A' for Active; 'I' for Inactive)
REMARK    1  A    between atoms: O_2  and  C_3
REMARK    2  A    between atoms: C_10  and  C_11
REMARK    3  A    between atoms: C_11  and  C_12
REMARK    4  A    between atoms: C_13  and  C_15
REMARK    5  A    between atoms: C_15  and  C_16
REMARK    6  A    between atoms: C_16  and  C_17
REMARK                            x       y       z     vdW  Elec       q    Type
REMARK                         _______ _______ _______ _____ _____    ______ ____
ROOT
ATOM      1  C   UNL     1     -11.997  13.435  70.092  0.00  0.00    +0.134 A 
ATOM      2  C   UNL     1     -11.244  13.343  68.926  0.00  0.00    +0.055 A 
ATOM      3  C   UNL     1     -11.078  12.061  68.418  0.00  0.00    +0.201 A 
ATOM      4  O   UNL     1     -10.303  11.935  67.262  0.00  0.00    -0.287 OA
ATOM      5  C   UNL     1     -11.429  10.931  69.146  0.00  0.00    +0.114 A 
ATOM      6  C   UNL     1     -11.036   9.516  69.082  0.00  0.00    +0.344 C 
ATOM      7  O   UNL     1     -11.013   9.017  70.388  0.00  0.00    -0.440 OA
ATOM      8  C   UNL     1     -12.037   9.726  71.064  0.00  0.00    +0.235 C 
ATOM      9  O   UNL     1     -10.274   9.055  68.197  0.00  0.00    -0.245 OA
ATOM     10  C   UNL     1     -12.022  11.062  70.392  0.00  0.00    +0.030 A 
ATOM     11  C   UNL     1     -12.517  12.316  70.726  0.00  0.00    +0.012 A 
ATOM     12  C   UNL     1     -13.135  12.420  72.085  0.00  0.00    +0.034 C 
ENDROOT
BRANCH   1  14
ATOM     13  C   UNL     1     -13.034  15.574  70.751  0.00  0.00    +0.252 C 
ATOM     14  O   UNL     1     -12.004  14.619  70.837  0.00  0.00    -0.472 OA
ENDBRANCH   1  14
BRANCH   2  15
ATOM     15  C   UNL     1     -10.237  14.406  68.728  0.00  0.00    +0.058 C 
BRANCH  15  16
ATOM     16  C   UNL     1     -10.637  15.450  67.765  0.00  0.00    -0.030 C 
ATOM     17  C   UNL     1      -9.945  15.767  66.670  0.00  0.00    -0.047 C 
ATOM     18  C   UNL     1      -8.459  15.700  66.858  0.00  0.00    +0.026 C 
BRANCH  17  19
ATOM     19  C   UNL     1     -10.447  15.609  65.286  0.00  0.00    +0.034 C 
BRANCH  19  20
ATOM     20  C   UNL     1     -10.859  14.214  64.942  0.00  0.00    +0.118 C 
BRANCH  20  21
ATOM     21  C   UNL     1     -12.270  14.106  64.489  0.00  0.00    +0.365 C 
ATOM     22  O   UNL     1     -12.493  13.254  63.402  0.00  0.00    -0.246 OA
ATOM     23  O   UNL     1     -13.127  14.013  65.421  0.00  0.00    -0.246 OA
ENDBRANCH  20  21
ENDBRANCH  19  20
ENDBRANCH  17  19
ENDBRANCH  15  16
ENDBRANCH   2  15
TORSDOF 6
ENDMDL
MODEL 8
REMARK VINA RESULT:      -6.0      1.382      1.604
REMARK  Name = 
REMARK  6 active torsions:
REMARK  status: ('A' for Active; 'I' for Inactive)
REMARK    1  A    between atoms: O_2  and  C_3
REMARK    2  A    between atoms: C_10  and  C_11
REMARK    3  A    between atoms: C_11  and  C_12
REMARK    4  A    between atoms: C_13  and  C_15
REMARK    5  A    between atoms: C_15  and  C_16
REMARK    6  A    between atoms: C_16  and  C_17
REMARK                            x       y       z     vdW  Elec       q    Type
REMARK                         _______ _______ _______ _____ _____    ______ ____
ROOT
ATOM      1  C   UNL     1     -11.665  12.299  68.839  0.00  0.00    +0.134 A 
ATOM      2  C   UNL     1     -11.431  13.632  68.516  0.00  0.00    +0.055 A 
ATOM      3  C   UNL     1     -11.629  14.544  69.545  0.00  0.00    +0.201 A 
ATOM      4  O   UNL     1     -11.427  15.892  69.243  0.00  0.00    -0.287 OA
ATOM      5  C   UNL     1     -12.248  14.183  70.736  0.00  0.00    +0.114 A 
ATOM      6  C   UNL     1     -12.936  14.936  71.793  0.00  0.00    +0.344 C 
ATOM      7  O   UNL     1     -13.981  14.142  72.276  0.00  0.00    -0.440 OA
ATOM      8  C   UNL     1     -13.505  12.812  72.164  0.00  0.00    +0.235 C 
ATOM      9  O   UNL     1     -13.016  16.189  71.802  0.00  0.00    -0.245 OA
ATOM     10  C   UNL     1     -12.629  12.869  70.952  0.00  0.00    +0.030 A 
ATOM     11  C   UNL     1     -12.104  11.910  70.096  0.00  0.00    +0.012 A 
ATOM     12  C   UNL     1     -12.552  10.505  70.354  0.00  0.00    +0.034 C 
ENDROOT
BRANCH   1  14
ATOM     13  C   UNL     1     -10.684  10.517  67.445  0.00  0.00    +0.252 C 
ATOM     14  O   UNL     1     -11.761  11.334  67.831  0.00  0.00    -0.472 OA
ENDBRANCH   1  14
BRANCH   2  15
ATOM     15  C   UNL     1     -11.626  13.990  67.096  0.00  0.00    +0.058 C 
BRANCH  15  16
ATOM     16  C   UNL     1     -10.380  14.057  66.309  0.00  0.00    -0.030 C 
ATOM     17  C   UNL     1      -9.788  15.191  65.934  0.00  0.00    -0.047 C 
ATOM     18  C   UNL     1     -10.750  16.283  65.576  0.00  0.00    +0.026 C 
BRANCH  17  19
ATOM     19  C   UNL     1      -8.436  15.614  66.369  0.00  0.00    +0.034 C 
BRANCH  19  20
ATOM     20  C   UNL     1      -8.236  15.586  67.850  0.00  0.00    +0.118 C 
BRANCH  20  21
ATOM     21  C   UNL     1      -7.812  16.892  68.416  0.00  0.00    +0.365 C 
ATOM     22  O   UNL     1      -8.840  17.810  68.658  0.00  0.00    -0.246 OA
ATOM     23  O   UNL     1      -6.939  16.820  69.335  0.00  0.00    -0.246 OA
ENDBRANCH  20  21
ENDBRANCH  19  20
ENDBRANCH  17  19
ENDBRANCH  15  16
ENDBRANCH   2  15
TORSDOF 6
ENDMDL
MODEL 9
REMARK VINA RESULT:      -6.0      2.046      2.860
REMARK  Name = 
REMARK  6 active torsions:
REMARK  status: ('A' for Active; 'I' for Inactive)
REMARK    1  A    between atoms: O_2  and  C_3
REMARK    2  A    between atoms: C_10  and  C_11
REMARK    3  A    between atoms: C_11  and  C_12
REMARK    4  A    between atoms: C_13  and  C_15
REMARK    5  A    between atoms: C_15  and  C_16
REMARK    6  A    between atoms: C_16  and  C_17
REMARK                            x       y       z     vdW  Elec       q    Type
REMARK                         _______ _______ _______ _____ _____    ______ ____
ROOT
ATOM      1  C   UNL     1     -11.229  13.835  69.142  0.00  0.00    +0.134 A 
ATOM      2  C   UNL     1     -11.162  15.138  69.626  0.00  0.00    +0.055 A 
ATOM      3  C   UNL     1     -11.597  15.316  70.934  0.00  0.00    +0.201 A 
ATOM      4  O   UNL     1     -11.566  16.618  71.438  0.00  0.00    -0.287 OA
ATOM      5  C   UNL     1     -12.274  14.319  71.625  0.00  0.00    +0.114 A 
ATOM      6  C   UNL     1     -13.169  14.316  72.790  0.00  0.00    +0.344 C 
ATOM      7  O   UNL     1     -14.129  13.319  72.592  0.00  0.00    -0.440 OA
ATOM      8  C   UNL     1     -13.454  12.306  71.866  0.00  0.00    +0.235 C 
ATOM      9  O   UNL     1     -13.434  15.349  73.454  0.00  0.00    -0.245 OA
ATOM     10  C   UNL     1     -12.477  13.080  71.038  0.00  0.00    +0.030 A 
ATOM     11  C   UNL     1     -11.732  12.789  69.903  0.00  0.00    +0.012 A 
ATOM     12  C   UNL     1     -11.991  11.449  69.291  0.00  0.00    +0.034 C 
ENDROOT
BRANCH   1  14
ATOM     13  C   UNL     1      -9.832  13.343  67.171  0.00  0.00    +0.252 C 
ATOM     14  O   UNL     1     -11.079  13.581  67.775  0.00  0.00    -0.472 OA
ENDBRANCH   1  14
BRANCH   2  15
ATOM     15  C   UNL     1     -11.263  16.205  68.609  0.00  0.00    +0.058 C 
BRANCH  15  16
ATOM     16  C   UNL     1     -10.119  17.137  68.591  0.00  0.00    -0.030 C 
ATOM     17  C   UNL     1      -9.958  18.110  67.695  0.00  0.00    -0.047 C 
ATOM     18  C   UNL     1     -10.419  17.742  66.317  0.00  0.00    +0.026 C 
BRANCH  17  19
ATOM     19  C   UNL     1      -9.932  19.555  68.022  0.00  0.00    +0.034 C 
BRANCH  19  20
ATOM     20  C   UNL     1      -9.151  20.385  67.055  0.00  0.00    +0.118 C 
BRANCH  20  21
ATOM     21  C   UNL     1      -7.680  20.247  67.207  0.00  0.00    +0.365 C 
ATOM     22  O   UNL     1      -7.064  19.336  66.341  0.00  0.00    -0.246 OA
ATOM     23  O   UNL     1      -7.052  21.339  67.361  0.00  0.00    -0.246 OA
ENDBRANCH  20  21
ENDBRANCH  19  20
ENDBRANCH  17  19
ENDBRANCH  15  16
ENDBRANCH   2  15
TORSDOF 6
ENDMDL
