MODEL 1
REMARK VINA RESULT:      -7.4      0.000      0.000
REMARK  Name = 
REMARK  6 active torsions:
REMARK  status: ('A' for Active; 'I' for Inactive)
REMARK    1  A    between atoms: C_4  and  C_5
REMARK    2  A    between atoms: C_15  and  C_16
REMARK    3  A    between atoms: C_16  and  C_18
REMARK    4  A    between atoms: C_18  and  C_19
REMARK    5  A    between atoms: C_19  and  C_20
REMARK    6  A    between atoms: C_20  and  C_21
REMARK                            x       y       z     vdW  Elec       q    Type
REMARK                         _______ _______ _______ _____ _____    ______ ____
ROOT
ATOM      1  C   UNL     1      -9.805  11.201  64.799  0.00  0.00    -0.009 C 
ATOM      2  C   UNL     1     -10.818  11.775  65.480  0.00  0.00    -0.045 C 
ATOM      3  C   UNL     1     -10.260  12.212  66.929  0.00  0.00    +0.018 C 
ATOM      4  C   UNL     1     -11.555  11.710  67.792  0.00  0.00    +0.004 C 
ATOM      5  C   UNL     1     -11.613  12.752  68.911  0.00  0.00    +0.000 C 
ATOM      6  C   UNL     1     -10.397  13.747  68.493  0.00  0.00    +0.000 C 
ATOM      7  C   UNL     1     -10.897  13.732  66.957  0.00  0.00    +0.003 C 
ATOM      8  C   UNL     1     -12.284  13.695  66.782  0.00  0.00    +0.000 C 
ATOM      9  C   UNL     1      -9.920  14.354  66.073  0.00  0.00    +0.001 C 
ATOM     10  C   UNL     1     -10.402  14.042  64.709  0.00  0.00    +0.004 C 
ATOM     11  C   UNL     1     -11.328  12.863  64.601  0.00  0.00    +0.022 C 
ENDROOT
BRANCH   1  21
ATOM     12  C   UNL     1      -7.764   9.969  64.449  0.00  0.00    -0.002 C 
ATOM     13  C   UNL     1      -7.941   9.788  63.425  0.00  0.00    +0.004 C 
ATOM     14  C   UNL     1      -6.798   9.914  62.274  0.00  0.00    +0.176 C 
ATOM     15  O   UNL     1      -5.735   9.274  63.159  0.00  0.00    -0.218 OA
ATOM     16  C   UNL     1      -7.211   8.469  61.600  0.00  0.00    +0.071 C 
ATOM     17  C   UNL     1      -8.857   8.528  61.508  0.00  0.00    +0.159 C 
ATOM     18  O   UNL     1      -8.818   8.277  60.008  0.00  0.00    -0.223 OA
ATOM     19  C   UNL     1      -8.994  10.162  61.266  0.00  0.00    +0.059 C 
ATOM     20  C   UNL     1      -9.023  10.522  62.725  0.00  0.00    -0.021 C 
ATOM     21  C   UNL     1     -10.107  10.754  63.424  0.00  0.00    -0.005 C 
ENDBRANCH   1  21
BRANCH   6  22
ATOM     22  C   UNL     1     -11.058  15.231  69.017  0.00  0.00    +0.000 C 
ATOM     23  C   UNL     1      -9.802  16.217  68.748  0.00  0.00    +0.000 C 
BRANCH  22  24
ATOM     24  C   UNL     1     -10.732  15.108  70.605  0.00  0.00    +0.000 C 
BRANCH  24  25
ATOM     25  C   UNL     1     -11.742  16.020  71.218  0.00  0.00    +0.003 C 
BRANCH  25  26
ATOM     26  C   UNL     1     -13.065  15.450  70.716  0.00  0.00    +0.030 C 
BRANCH  26  27
ATOM     27  C   UNL     1     -13.917  15.185  71.930  0.00  0.00    +0.127 C 
ATOM     28  O   UNL     1     -15.186  15.754  71.838  0.00  0.00    -0.226 OA
ATOM     29  C   UNL     1     -14.030  13.712  72.230  0.00  0.00    +0.033 C 
ATOM     30  C   UNL     1     -13.194  15.888  73.075  0.00  0.00    +0.033 C 
ENDBRANCH  26  27
ENDBRANCH  25  26
ENDBRANCH  24  25
ENDBRANCH  22  24
ENDBRANCH   6  22
TORSDOF 6
ENDMDL
MODEL 2
REMARK VINA RESULT:      -7.0      4.861      7.921
REMARK  Name = 
REMARK  6 active torsions:
REMARK  status: ('A' for Active; 'I' for Inactive)
REMARK    1  A    between atoms: C_4  and  C_5
REMARK    2  A    between atoms: C_15  and  C_16
REMARK    3  A    between atoms: C_16  and  C_18
REMARK    4  A    between atoms: C_18  and  C_19
REMARK    5  A    between atoms: C_19  and  C_20
REMARK    6  A    between atoms: C_20  and  C_21
REMARK                            x       y       z     vdW  Elec       q    Type
REMARK                         _______ _______ _______ _____ _____    ______ ____
ROOT
ATOM      1  C   UNL     1      -8.233  16.556  67.208  0.00  0.00    -0.009 C 
ATOM      2  C   UNL     1      -9.278  15.814  66.785  0.00  0.00    -0.045 C 
ATOM      3  C   UNL     1      -9.206  14.384  67.527  0.00  0.00    +0.018 C 
ATOM      4  C   UNL     1      -9.571  13.472  66.220  0.00  0.00    +0.004 C 
ATOM      5  C   UNL     1     -10.371  12.327  66.847  0.00  0.00    +0.000 C 
ATOM      6  C   UNL     1     -10.420  12.780  68.407  0.00  0.00    +0.000 C 
ATOM      7  C   UNL     1     -10.790  14.291  67.971  0.00  0.00    +0.003 C 
ATOM      8  C   UNL     1     -11.628  14.399  66.855  0.00  0.00    +0.000 C 
ATOM      9  C   UNL     1     -10.717  15.205  69.101  0.00  0.00    +0.001 C 
ATOM     10  C   UNL     1     -10.835  16.552  68.499  0.00  0.00    +0.004 C 
ATOM     11  C   UNL     1     -10.489  16.642  67.038  0.00  0.00    +0.022 C 
ENDROOT
BRANCH   1  21
ATOM     12  C   UNL     1      -6.651  17.390  68.822  0.00  0.00    -0.002 C 
ATOM     13  C   UNL     1      -6.711  18.392  68.500  0.00  0.00    +0.004 C 
ATOM     14  C   UNL     1      -6.784  19.665  69.512  0.00  0.00    +0.176 C 
ATOM     15  O   UNL     1      -5.760  19.055  70.464  0.00  0.00    -0.218 OA
ATOM     16  C   UNL     1      -5.627  20.489  68.679  0.00  0.00    +0.071 C 
ATOM     17  C   UNL     1      -6.082  20.329  67.102  0.00  0.00    +0.159 C 
ATOM     18  O   UNL     1      -6.116  21.839  66.922  0.00  0.00    -0.223 OA
ATOM     19  C   UNL     1      -7.718  20.288  67.360  0.00  0.00    +0.059 C 
ATOM     20  C   UNL     1      -7.795  18.803  67.573  0.00  0.00    -0.021 C 
ATOM     21  C   UNL     1      -8.136  17.926  66.662  0.00  0.00    -0.005 C 
ENDBRANCH   1  21
BRANCH   6  22
ATOM     22  C   UNL     1     -11.968  12.191  68.821  0.00  0.00    +0.000 C 
ATOM     23  C   UNL     1     -11.990  12.527  70.405  0.00  0.00    +0.000 C 
BRANCH  22  24
ATOM     24  C   UNL     1     -11.587  10.630  69.069  0.00  0.00    +0.000 C 
BRANCH  24  25
ATOM     25  C   UNL     1     -11.852  10.457  70.528  0.00  0.00    +0.003 C 
BRANCH  25  26
ATOM     26  C   UNL     1     -11.109   9.166  70.859  0.00  0.00    +0.030 C 
BRANCH  26  27
ATOM     27  C   UNL     1     -11.990   8.380  71.794  0.00  0.00    +0.127 C 
ATOM     28  O   UNL     1     -11.333   7.988  72.959  0.00  0.00    -0.226 OA
ATOM     29  C   UNL     1     -13.254   9.124  72.137  0.00  0.00    +0.033 C 
ATOM     30  C   UNL     1     -12.335   7.107  71.026  0.00  0.00    +0.033 C 
ENDBRANCH  26  27
ENDBRANCH  25  26
ENDBRANCH  24  25
ENDBRANCH  22  24
ENDBRANCH   6  22
TORSDOF 6
ENDMDL
MODEL 3
REMARK VINA RESULT:      -6.9      5.872      8.174
REMARK  Name = 
REMARK  6 active torsions:
REMARK  status: ('A' for Active; 'I' for Inactive)
REMARK    1  A    between atoms: C_4  and  C_5
REMARK    2  A    between atoms: C_15  and  C_16
REMARK    3  A    between atoms: C_16  and  C_18
REMARK    4  A    between atoms: C_18  and  C_19
REMARK    5  A    between atoms: C_19  and  C_20
REMARK    6  A    between atoms: C_20  and  C_21
REMARK                            x       y       z     vdW  Elec       q    Type
REMARK                         _______ _______ _______ _____ _____    ______ ____
ROOT
ATOM      1  C   UNL     1      -6.791  19.784  65.640  0.00  0.00    -0.009 C 
ATOM      2  C   UNL     1      -7.776  19.857  66.560  0.00  0.00    -0.045 C 
ATOM      3  C   UNL     1      -8.631  18.491  66.484  0.00  0.00    +0.018 C 
ATOM      4  C   UNL     1     -10.108  19.184  66.599  0.00  0.00    +0.004 C 
ATOM      5  C   UNL     1     -10.890  18.131  67.389  0.00  0.00    +0.000 C 
ATOM      6  C   UNL     1      -9.737  17.023  67.683  0.00  0.00    +0.000 C 
ATOM      7  C   UNL     1      -8.703  18.190  68.102  0.00  0.00    +0.003 C 
ATOM      8  C   UNL     1      -9.270  19.271  68.786  0.00  0.00    +0.000 C 
ATOM      9  C   UNL     1      -7.349  17.674  68.251  0.00  0.00    +0.001 C 
ATOM     10  C   UNL     1      -6.504  18.881  68.386  0.00  0.00    +0.004 C 
ATOM     11  C   UNL     1      -7.099  20.154  67.852  0.00  0.00    +0.022 C 
ENDROOT
BRANCH   1  21
ATOM     12  C   UNL     1      -5.430  18.947  63.838  0.00  0.00    -0.002 C 
ATOM     13  C   UNL     1      -4.705  19.710  63.908  0.00  0.00    +0.004 C 
ATOM     14  C   UNL     1      -3.102  19.448  63.809  0.00  0.00    +0.176 C 
ATOM     15  O   UNL     1      -3.267  18.424  62.691  0.00  0.00    -0.218 OA
ATOM     16  C   UNL     1      -2.889  20.686  62.745  0.00  0.00    +0.071 C 
ATOM     17  C   UNL     1      -3.747  21.930  63.404  0.00  0.00    +0.159 C 
ATOM     18  O   UNL     1      -2.515  22.822  63.414  0.00  0.00    -0.223 OA
ATOM     19  C   UNL     1      -3.511  21.528  64.994  0.00  0.00    +0.059 C 
ATOM     20  C   UNL     1      -4.696  20.609  65.089  0.00  0.00    -0.021 C 
ATOM     21  C   UNL     1      -5.869  20.936  65.572  0.00  0.00    -0.005 C 
ENDBRANCH   1  21
BRANCH   6  22
ATOM     22  C   UNL     1     -10.245  16.494  69.225  0.00  0.00    +0.000 C 
ATOM     23  C   UNL     1      -9.430  15.099  69.335  0.00  0.00    +0.000 C 
BRANCH  22  24
ATOM     24  C   UNL     1     -11.628  15.752  68.796  0.00  0.00    +0.000 C 
BRANCH  24  25
ATOM     25  C   UNL     1     -11.930  14.909  69.991  0.00  0.00    +0.003 C 
BRANCH  25  26
ATOM     26  C   UNL     1     -12.339  15.939  71.039  0.00  0.00    +0.030 C 
BRANCH  26  27
ATOM     27  C   UNL     1     -13.264  15.241  72.003  0.00  0.00    +0.127 C 
ATOM     28  O   UNL     1     -14.546  15.785  72.015  0.00  0.00    -0.226 OA
ATOM     29  C   UNL     1     -13.332  13.758  71.744  0.00  0.00    +0.033 C 
ATOM     30  C   UNL     1     -12.657  15.495  73.379  0.00  0.00    +0.033 C 
ENDBRANCH  26  27
ENDBRANCH  25  26
ENDBRANCH  24  25
ENDBRANCH  22  24
ENDBRANCH   6  22
TORSDOF 6
ENDMDL
MODEL 4
REMARK VINA RESULT:      -6.7      5.376      9.209
REMARK  Name = 
REMARK  6 active torsions:
REMARK  status: ('A' for Active; 'I' for Inactive)
REMARK    1  A    between atoms: C_4  and  C_5
REMARK    2  A    between atoms: C_15  and  C_16
REMARK    3  A    between atoms: C_16  and  C_18
REMARK    4  A    between atoms: C_18  and  C_19
REMARK    5  A    between atoms: C_19  and  C_20
REMARK    6  A    between atoms: C_20  and  C_21
REMARK                            x       y       z     vdW  Elec       q    Type
REMARK                         _______ _______ _______ _____ _____    ______ ____
ROOT
ATOM      1  C   UNL     1      -6.175  17.799  68.837  0.00  0.00    -0.009 C 
ATOM      2  C   UNL     1      -6.882  16.987  68.023  0.00  0.00    -0.045 C 
ATOM      3  C   UNL     1      -7.738  15.979  68.946  0.00  0.00    +0.018 C 
ATOM      4  C   UNL     1      -7.457  14.629  68.067  0.00  0.00    +0.004 C 
ATOM      5  C   UNL     1      -8.775  13.867  68.227  0.00  0.00    +0.000 C 
ATOM      6  C   UNL     1      -9.652  14.915  69.108  0.00  0.00    +0.000 C 
ATOM      7  C   UNL     1      -9.177  16.131  68.157  0.00  0.00    +0.003 C 
ATOM      8  C   UNL     1      -9.039  15.809  66.802  0.00  0.00    +0.000 C 
ATOM      9  C   UNL     1      -9.555  17.422  68.715  0.00  0.00    +0.001 C 
ATOM     10  C   UNL     1      -8.846  18.412  67.874  0.00  0.00    +0.004 C 
ATOM     11  C   UNL     1      -7.652  17.891  67.124  0.00  0.00    +0.022 C 
ENDROOT
BRANCH   1  21
ATOM     12  C   UNL     1      -4.943  18.459  70.799  0.00  0.00    -0.002 C 
ATOM     13  C   UNL     1      -4.468  19.279  70.337  0.00  0.00    +0.004 C 
ATOM     14  C   UNL     1      -4.280  20.733  71.044  0.00  0.00    +0.176 C 
ATOM     15  O   UNL     1      -3.951  20.111  72.396  0.00  0.00    -0.218 OA
ATOM     16  C   UNL     1      -2.692  20.821  70.615  0.00  0.00    +0.071 C 
ATOM     17  C   UNL     1      -2.684  20.376  69.027  0.00  0.00    +0.159 C 
ATOM     18  O   UNL     1      -2.008  21.680  68.630  0.00  0.00    -0.223 OA
ATOM     19  C   UNL     1      -4.172  20.986  68.631  0.00  0.00    +0.059 C 
ATOM     20  C   UNL     1      -4.941  19.753  69.012  0.00  0.00    -0.021 C 
ATOM     21  C   UNL     1      -5.341  18.825  68.179  0.00  0.00    -0.005 C 
ENDBRANCH   1  21
BRANCH   6  22
ATOM     22  C   UNL     1     -11.199  14.601  68.456  0.00  0.00    +0.000 C 
ATOM     23  C   UNL     1     -12.122  14.882  69.756  0.00  0.00    +0.000 C 
BRANCH  22  24
ATOM     24  C   UNL     1     -11.240  12.989  68.667  0.00  0.00    +0.000 C 
BRANCH  24  25
ATOM     25  C   UNL     1     -11.899  12.513  67.415  0.00  0.00    +0.003 C 
BRANCH  25  26
ATOM     26  C   UNL     1     -12.139  13.806  66.643  0.00  0.00    +0.030 C 
BRANCH  26  27
ATOM     27  C   UNL     1     -12.102  13.456  65.178  0.00  0.00    +0.127 C 
ATOM     28  O   UNL     1     -13.064  12.515  64.820  0.00  0.00    -0.226 OA
ATOM     29  C   UNL     1     -12.221  14.678  64.304  0.00  0.00    +0.033 C 
ATOM     30  C   UNL     1     -10.739  12.805  64.968  0.00  0.00    +0.033 C 
ENDBRANCH  26  27
ENDBRANCH  25  26
ENDBRANCH  24  25
ENDBRANCH  22  24
ENDBRANCH   6  22
TORSDOF 6
ENDMDL
MODEL 5
REMARK VINA RESULT:      -6.6      4.061      8.261
REMARK  Name = 
REMARK  6 active torsions:
REMARK  status: ('A' for Active; 'I' for Inactive)
REMARK    1  A    between atoms: C_4  and  C_5
REMARK    2  A    between atoms: C_15  and  C_16
REMARK    3  A    between atoms: C_16  and  C_18
REMARK    4  A    between atoms: C_18  and  C_19
REMARK    5  A    between atoms: C_19  and  C_20
REMARK    6  A    between atoms: C_20  and  C_21
REMARK                            x       y       z     vdW  Elec       q    Type
REMARK                         _______ _______ _______ _____ _____    ______ ____
ROOT
ATOM      1  C   UNL     1      -9.735  15.419  65.922  0.00  0.00    -0.009 C 
ATOM      2  C   UNL     1     -10.593  14.391  65.751  0.00  0.00    -0.045 C 
ATOM      3  C   UNL     1      -9.741  13.022  65.773  0.00  0.00    +0.018 C 
ATOM      4  C   UNL     1     -10.506  12.300  64.520  0.00  0.00    +0.004 C 
ATOM      5  C   UNL     1     -10.482  10.829  64.941  0.00  0.00    +0.000 C 
ATOM      6  C   UNL     1      -9.779  10.919  66.404  0.00  0.00    +0.000 C 
ATOM      7  C   UNL     1     -10.720  12.174  66.792  0.00  0.00    +0.003 C 
ATOM      8  C   UNL     1     -12.026  12.115  66.295  0.00  0.00    +0.000 C 
ATOM      9  C   UNL     1     -10.283  12.804  68.030  0.00  0.00    +0.001 C 
ATOM     10  C   UNL     1     -11.072  14.053  68.110  0.00  0.00    +0.004 C 
ATOM     11  C   UNL     1     -11.630  14.553  66.806  0.00  0.00    +0.022 C 
ENDROOT
BRANCH   1  21
ATOM     12  C   UNL     1      -7.954  16.471  67.156  0.00  0.00    -0.002 C 
ATOM     13  C   UNL     1      -8.464  17.383  67.294  0.00  0.00    +0.004 C 
ATOM     14  C   UNL     1      -8.476  18.211  68.695  0.00  0.00    +0.176 C 
ATOM     15  O   UNL     1      -7.002  17.923  68.959  0.00  0.00    -0.218 OA
ATOM     16  C   UNL     1      -8.138  19.636  67.943  0.00  0.00    +0.071 C 
ATOM     17  C   UNL     1      -9.170  19.662  66.657  0.00  0.00    +0.159 C 
ATOM     18  O   UNL     1      -9.756  20.992  67.109  0.00  0.00    -0.223 OA
ATOM     19  C   UNL     1     -10.414  18.832  67.371  0.00  0.00    +0.059 C 
ATOM     20  C   UNL     1      -9.915  17.467  66.991  0.00  0.00    -0.021 C 
ATOM     21  C   UNL     1     -10.329  16.771  65.962  0.00  0.00    -0.005 C 
ENDBRANCH   1  21
BRANCH   6  22
ATOM     22  C   UNL     1     -10.612   9.655  67.193  0.00  0.00    +0.000 C 
ATOM     23  C   UNL     1      -9.780   9.583  68.580  0.00  0.00    +0.000 C 
BRANCH  22  24
ATOM     24  C   UNL     1      -9.818   8.389  66.550  0.00  0.00    +0.000 C 
BRANCH  24  25
ATOM     25  C   UNL     1     -10.712   7.240  66.883  0.00  0.00    +0.003 C 
BRANCH  25  26
ATOM     26  C   UNL     1      -9.726   6.107  67.146  0.00  0.00    +0.030 C 
BRANCH  26  27
ATOM     27  C   UNL     1      -9.818   5.776  68.613  0.00  0.00    +0.127 C 
ATOM     28  O   UNL     1      -8.810   6.371  69.369  0.00  0.00    -0.226 OA
ATOM     29  C   UNL     1     -11.168   6.123  69.185  0.00  0.00    +0.033 C 
ATOM     30  C   UNL     1      -9.601   4.268  68.687  0.00  0.00    +0.033 C 
ENDBRANCH  26  27
ENDBRANCH  25  26
ENDBRANCH  24  25
ENDBRANCH  22  24
ENDBRANCH   6  22
TORSDOF 6
ENDMDL
MODEL 6
REMARK VINA RESULT:      -6.5      5.617      7.808
REMARK  Name = 
REMARK  6 active torsions:
REMARK  status: ('A' for Active; 'I' for Inactive)
REMARK    1  A    between atoms: C_4  and  C_5
REMARK    2  A    between atoms: C_15  and  C_16
REMARK    3  A    between atoms: C_16  and  C_18
REMARK    4  A    between atoms: C_18  and  C_19
REMARK    5  A    between atoms: C_19  and  C_20
REMARK    6  A    between atoms: C_20  and  C_21
REMARK                            x       y       z     vdW  Elec       q    Type
REMARK                         _______ _______ _______ _____ _____    ______ ____
ROOT
ATOM      1  C   UNL     1     -10.633  11.891  68.115  0.00  0.00    -0.009 C 
ATOM      2  C   UNL     1     -10.155  11.164  69.146  0.00  0.00    -0.045 C 
ATOM      3  C   UNL     1     -10.999   9.792  69.221  0.00  0.00    +0.018 C 
ATOM      4  C   UNL     1     -11.177   9.765  70.847  0.00  0.00    +0.004 C 
ATOM      5  C   UNL     1     -11.133   8.264  71.144  0.00  0.00    +0.000 C 
ATOM      6  C   UNL     1     -10.860   7.646  69.666  0.00  0.00    +0.000 C 
ATOM      7  C   UNL     1      -9.724   8.762  69.395  0.00  0.00    +0.003 C 
ATOM      8  C   UNL     1      -8.952   9.108  70.509  0.00  0.00    +0.000 C 
ATOM      9  C   UNL     1      -9.299   8.763  68.002  0.00  0.00    +0.001 C 
ATOM     10  C   UNL     1      -8.463   9.976  67.869  0.00  0.00    +0.004 C 
ATOM     11  C   UNL     1      -8.691  11.039  68.907  0.00  0.00    +0.022 C 
ENDROOT
BRANCH   1  21
ATOM     12  C   UNL     1     -11.990  12.538  66.233  0.00  0.00    -0.002 C 
ATOM     13  C   UNL     1     -11.407  13.381  65.984  0.00  0.00    +0.004 C 
ATOM     14  C   UNL     1     -11.003  13.784  64.460  0.00  0.00    +0.176 C 
ATOM     15  O   UNL     1     -12.382  13.418  63.923  0.00  0.00    -0.218 OA
ATOM     16  C   UNL     1     -11.426  15.359  64.684  0.00  0.00    +0.071 C 
ATOM     17  C   UNL     1     -10.739  15.754  66.130  0.00  0.00    +0.159 C 
ATOM     18  O   UNL     1      -9.981  16.910  65.495  0.00  0.00    -0.223 OA
ATOM     19  C   UNL     1      -9.412  14.770  66.007  0.00  0.00    +0.059 C 
ATOM     20  C   UNL     1     -10.072  13.561  66.607  0.00  0.00    -0.021 C 
ATOM     21  C   UNL     1      -9.965  13.184  67.857  0.00  0.00    -0.005 C 
ENDBRANCH   1  21
BRANCH   6  22
ATOM     22  C   UNL     1      -9.885   6.312  70.096  0.00  0.00    +0.000 C 
ATOM     23  C   UNL     1     -10.006   5.420  68.750  0.00  0.00    +0.000 C 
BRANCH  22  24
ATOM     24  C   UNL     1     -10.998   5.429  70.886  0.00  0.00    +0.000 C 
BRANCH  24  25
ATOM     25  C   UNL     1     -10.182   4.723  71.918  0.00  0.00    +0.003 C 
BRANCH  25  26
ATOM     26  C   UNL     1     -10.960   4.982  73.204  0.00  0.00    +0.030 C 
BRANCH  26  27
ATOM     27  C   UNL     1      -9.945   5.252  74.284  0.00  0.00    +0.127 C 
ATOM     28  O   UNL     1     -10.427   4.980  75.563  0.00  0.00    -0.226 OA
ATOM     29  C   UNL     1      -8.657   4.507  74.046  0.00  0.00    +0.033 C 
ATOM     30  C   UNL     1      -9.691   6.754  74.213  0.00  0.00    +0.033 C 
ENDBRANCH  26  27
ENDBRANCH  25  26
ENDBRANCH  24  25
ENDBRANCH  22  24
ENDBRANCH   6  22
TORSDOF 6
ENDMDL
MODEL 7
REMARK VINA RESULT:      -6.5      4.067      5.402
REMARK  Name = 
REMARK  6 active torsions:
REMARK  status: ('A' for Active; 'I' for Inactive)
REMARK    1  A    between atoms: C_4  and  C_5
REMARK    2  A    between atoms: C_15  and  C_16
REMARK    3  A    between atoms: C_16  and  C_18
REMARK    4  A    between atoms: C_18  and  C_19
REMARK    5  A    between atoms: C_19  and  C_20
REMARK    6  A    between atoms: C_20  and  C_21
REMARK                            x       y       z     vdW  Elec       q    Type
REMARK                         _______ _______ _______ _____ _____    ______ ____
ROOT
ATOM      1  C   UNL     1     -10.682   9.761  67.371  0.00  0.00    -0.009 C 
ATOM      2  C   UNL     1     -10.695  10.974  66.779  0.00  0.00    -0.045 C 
ATOM      3  C   UNL     1     -10.973  12.081  67.919  0.00  0.00    +0.018 C 
ATOM      4  C   UNL     1     -12.035  12.979  67.057  0.00  0.00    +0.004 C 
ATOM      5  C   UNL     1     -11.726  14.394  67.552  0.00  0.00    +0.000 C 
ATOM      6  C   UNL     1     -10.485  14.121  68.566  0.00  0.00    +0.000 C 
ATOM      7  C   UNL     1      -9.795  13.145  67.479  0.00  0.00    +0.003 C 
ATOM      8  C   UNL     1      -9.950  13.537  66.145  0.00  0.00    +0.000 C 
ATOM      9  C   UNL     1      -8.671  12.419  68.052  0.00  0.00    +0.001 C 
ATOM     10  C   UNL     1      -8.317  11.412  67.028  0.00  0.00    +0.004 C 
ATOM     11  C   UNL     1      -9.404  11.077  66.045  0.00  0.00    +0.022 C 
ENDROOT
BRANCH   1  21
ATOM     12  C   UNL     1     -10.523   8.112  69.120  0.00  0.00    -0.002 C 
ATOM     13  C   UNL     1     -10.189   7.338  68.486  0.00  0.00    +0.004 C 
ATOM     14  C   UNL     1      -8.997   6.301  68.875  0.00  0.00    +0.176 C 
ATOM     15  O   UNL     1      -9.479   6.178  70.317  0.00  0.00    -0.218 OA
ATOM     16  C   UNL     1      -9.874   4.993  68.393  0.00  0.00    +0.071 C 
ATOM     17  C   UNL     1     -10.488   5.443  66.930  0.00  0.00    +0.159 C 
ATOM     18  O   UNL     1      -9.860   4.233  66.255  0.00  0.00    -0.223 OA
ATOM     19  C   UNL     1      -9.224   6.405  66.460  0.00  0.00    +0.059 C 
ATOM     20  C   UNL     1      -9.745   7.657  67.107  0.00  0.00    -0.021 C 
ATOM     21  C   UNL     1     -10.410   8.604  66.493  0.00  0.00    -0.005 C 
ENDBRANCH   1  21
BRANCH   6  22
ATOM     22  C   UNL     1      -9.592  15.553  68.305  0.00  0.00    +0.000 C 
ATOM     23  C   UNL     1      -8.452  15.393  69.445  0.00  0.00    +0.000 C 
BRANCH  22  24
ATOM     24  C   UNL     1     -10.478  16.573  69.210  0.00  0.00    +0.000 C 
BRANCH  24  25
ATOM     25  C   UNL     1     -10.077  17.910  68.681  0.00  0.00    +0.003 C 
BRANCH  25  26
ATOM     26  C   UNL     1      -9.884  17.643  67.192  0.00  0.00    +0.030 C 
BRANCH  26  27
ATOM     27  C   UNL     1      -9.278  18.888  66.598  0.00  0.00    +0.127 C 
ATOM     28  O   UNL     1      -8.261  18.616  65.686  0.00  0.00    -0.226 OA
ATOM     29  C   UNL     1     -10.319  19.775  65.965  0.00  0.00    +0.033 C 
ATOM     30  C   UNL     1      -8.637  19.611  67.779  0.00  0.00    +0.033 C 
ENDBRANCH  26  27
ENDBRANCH  25  26
ENDBRANCH  24  25
ENDBRANCH  22  24
ENDBRANCH   6  22
TORSDOF 6
ENDMDL
MODEL 8
REMARK VINA RESULT:      -6.5      4.079      5.789
REMARK  Name = 
REMARK  6 active torsions:
REMARK  status: ('A' for Active; 'I' for Inactive)
REMARK    1  A    between atoms: C_4  and  C_5
REMARK    2  A    between atoms: C_15  and  C_16
REMARK    3  A    between atoms: C_16  and  C_18
REMARK    4  A    between atoms: C_18  and  C_19
REMARK    5  A    between atoms: C_19  and  C_20
REMARK    6  A    between atoms: C_20  and  C_21
REMARK                            x       y       z     vdW  Elec       q    Type
REMARK                         _______ _______ _______ _____ _____    ______ ____
ROOT
ATOM      1  C   UNL     1     -10.751  11.062  68.389  0.00  0.00    -0.009 C 
ATOM      2  C   UNL     1     -11.442  12.131  67.940  0.00  0.00    -0.045 C 
ATOM      3  C   UNL     1     -10.668  13.462  68.420  0.00  0.00    +0.018 C 
ATOM      4  C   UNL     1     -11.996  14.303  68.872  0.00  0.00    +0.004 C 
ATOM      5  C   UNL     1     -11.599  15.737  68.515  0.00  0.00    +0.000 C 
ATOM      6  C   UNL     1     -10.138  15.512  67.839  0.00  0.00    +0.000 C 
ATOM      7  C   UNL     1     -10.711  14.268  66.983  0.00  0.00    +0.003 C 
ATOM      8  C   UNL     1     -12.027  14.412  66.531  0.00  0.00    +0.000 C 
ATOM      9  C   UNL     1      -9.638  13.532  66.329  0.00  0.00    +0.001 C 
ATOM     10  C   UNL     1     -10.290  12.310  65.807  0.00  0.00    +0.004 C 
ATOM     11  C   UNL     1     -11.584  11.930  66.471  0.00  0.00    +0.022 C 
ENDROOT
BRANCH   1  21
ATOM     12  C   UNL     1      -8.756   9.810  68.892  0.00  0.00    -0.002 C 
ATOM     13  C   UNL     1      -9.114   8.902  68.491  0.00  0.00    +0.004 C 
ATOM     14  C   UNL     1      -8.216   7.903  67.573  0.00  0.00    +0.176 C 
ATOM     15  O   UNL     1      -6.975   8.112  68.433  0.00  0.00    -0.218 OA
ATOM     16  C   UNL     1      -8.678   6.576  68.432  0.00  0.00    +0.071 C 
ATOM     17  C   UNL     1     -10.312   6.745  68.576  0.00  0.00    +0.159 C 
ATOM     18  O   UNL     1     -10.545   5.386  67.932  0.00  0.00    -0.223 OA
ATOM     19  C   UNL     1     -10.572   7.512  67.131  0.00  0.00    +0.059 C 
ATOM     20  C   UNL     1     -10.343   8.900  67.660  0.00  0.00    -0.021 C 
ATOM     21  C   UNL     1     -11.285   9.734  68.025  0.00  0.00    -0.005 C 
ENDBRANCH   1  21
BRANCH   6  22
ATOM     22  C   UNL     1     -10.183  16.745  66.659  0.00  0.00    +0.000 C 
ATOM     23  C   UNL     1      -8.656  16.689  66.124  0.00  0.00    +0.000 C 
BRANCH  22  24
ATOM     24  C   UNL     1      -9.892  18.025  67.618  0.00  0.00    +0.000 C 
BRANCH  24  25
ATOM     25  C   UNL     1      -9.250  18.995  66.682  0.00  0.00    +0.003 C 
BRANCH  25  26
ATOM     26  C   UNL     1      -8.608  20.006  67.627  0.00  0.00    +0.030 C 
BRANCH  26  27
ATOM     27  C   UNL     1      -7.203  20.235  67.136  0.00  0.00    +0.127 C 
ATOM     28  O   UNL     1      -6.796  21.563  67.250  0.00  0.00    -0.226 OA
ATOM     29  C   UNL     1      -6.211  19.329  67.819  0.00  0.00    +0.033 C 
ATOM     30  C   UNL     1      -7.253  19.911  65.646  0.00  0.00    +0.033 C 
ENDBRANCH  26  27
ENDBRANCH  25  26
ENDBRANCH  24  25
ENDBRANCH  22  24
ENDBRANCH   6  22
TORSDOF 6
ENDMDL
MODEL 9
REMARK VINA RESULT:      -6.4      4.498      6.487
REMARK  Name = 
REMARK  6 active torsions:
REMARK  status: ('A' for Active; 'I' for Inactive)
REMARK    1  A    between atoms: C_4  and  C_5
REMARK    2  A    between atoms: C_15  and  C_16
REMARK    3  A    between atoms: C_16  and  C_18
REMARK    4  A    between atoms: C_18  and  C_19
REMARK    5  A    between atoms: C_19  and  C_20
REMARK    6  A    between atoms: C_20  and  C_21
REMARK                            x       y       z     vdW  Elec       q    Type
REMARK                         _______ _______ _______ _____ _____    ______ ____
ROOT
ATOM      1  C   UNL     1     -11.253  10.496  68.157  0.00  0.00    -0.009 C 
ATOM      2  C   UNL     1     -10.945  11.395  67.198  0.00  0.00    -0.045 C 
ATOM      3  C   UNL     1     -11.344  12.860  67.741  0.00  0.00    +0.018 C 
ATOM      4  C   UNL     1     -12.016  13.402  66.352  0.00  0.00    +0.004 C 
ATOM      5  C   UNL     1     -11.647  14.887  66.381  0.00  0.00    +0.000 C 
ATOM      6  C   UNL     1     -10.754  14.974  67.737  0.00  0.00    +0.000 C 
ATOM      7  C   UNL     1      -9.955  13.636  67.312  0.00  0.00    +0.003 C 
ATOM      8  C   UNL     1      -9.711  13.499  65.941  0.00  0.00    +0.000 C 
ATOM      9  C   UNL     1      -9.126  13.141  68.402  0.00  0.00    +0.001 C 
ATOM     10  C   UNL     1      -8.670  11.809  67.947  0.00  0.00    +0.004 C 
ATOM     11  C   UNL     1      -9.509  11.165  66.878  0.00  0.00    +0.022 C 
ENDROOT
BRANCH   1  21
ATOM     12  C   UNL     1     -11.377   9.701  70.427  0.00  0.00    -0.002 C 
ATOM     13  C   UNL     1     -11.007   8.738  70.207  0.00  0.00    +0.004 C 
ATOM     14  C   UNL     1      -9.918   7.955  71.129  0.00  0.00    +0.176 C 
ATOM     15  O   UNL     1     -10.570   8.425  72.424  0.00  0.00    -0.218 OA
ATOM     16  C   UNL     1     -10.791   6.559  71.109  0.00  0.00    +0.071 C 
ATOM     17  C   UNL     1     -11.207   6.373  69.524  0.00  0.00    +0.159 C 
ATOM     18  O   UNL     1     -10.560   4.997  69.479  0.00  0.00    -0.223 OA
ATOM     19  C   UNL     1      -9.853   7.068  68.869  0.00  0.00    +0.059 C 
ATOM     20  C   UNL     1     -10.388   8.472  68.885  0.00  0.00    -0.021 C 
ATOM     21  C   UNL     1     -10.933   9.085  67.862  0.00  0.00    -0.005 C 
ENDBRANCH   1  21
BRANCH   6  22
ATOM     22  C   UNL     1      -9.632  16.168  67.255  0.00  0.00    +0.000 C 
ATOM     23  C   UNL     1      -8.713  16.254  68.586  0.00  0.00    +0.000 C 
BRANCH  22  24
ATOM     24  C   UNL     1     -10.485  17.494  67.653  0.00  0.00    +0.000 C 
BRANCH  24  25
ATOM     25  C   UNL     1      -9.934  18.527  66.726  0.00  0.00    +0.003 C 
BRANCH  25  26
ATOM     26  C   UNL     1      -9.536  19.655  67.673  0.00  0.00    +0.030 C 
BRANCH  26  27
ATOM     27  C   UNL     1      -8.060  19.889  67.480  0.00  0.00    +0.127 C 
ATOM     28  O   UNL     1      -7.743  21.232  67.287  0.00  0.00    -0.226 OA
ATOM     29  C   UNL     1      -7.246  19.321  68.614  0.00  0.00    +0.033 C 
ATOM     30  C   UNL     1      -7.716  19.158  66.185  0.00  0.00    +0.033 C 
ENDBRANCH  26  27
ENDBRANCH  25  26
ENDBRANCH  24  25
ENDBRANCH  22  24
ENDBRANCH   6  22
TORSDOF 6
ENDMDL
