MODEL 1
REMARK VINA RESULT:      -8.0      0.000      0.000
REMARK  Name = 
REMARK  2 active torsions:
REMARK  status: ('A' for Active; 'I' for Inactive)
REMARK    1  A    between atoms: O_2  and  C_3
REMARK    2  A    between atoms: C_6  and  C_7
REMARK                            x       y       z     vdW  Elec       q    Type
REMARK                         _______ _______ _______ _____ _____    ______ ____
ROOT
ATOM      1  C   UNL     1     -11.812  13.396  67.901  0.00  0.00    +0.149 A 
ATOM      2  O   UNL     1     -11.156  12.307  67.557  0.00  0.00    -0.453 OA
ATOM      3  C   UNL     1     -11.099  11.874  66.316  0.00  0.00    +0.155 A 
ATOM      4  C   UNL     1     -11.841  12.509  65.334  0.00  0.00    +0.113 A 
ATOM      5  C   UNL     1     -11.771  12.048  64.027  0.00  0.00    +0.205 A 
ATOM      6  C   UNL     1     -10.822  11.088  63.699  0.00  0.00    +0.084 A 
ATOM      7  C   UNL     1      -9.890  10.664  64.627  0.00  0.00    +0.202 A 
ATOM      8  O   UNL     1      -8.618  10.327  64.155  0.00  0.00    -0.286 OA
ATOM      9  O   UNL     1     -12.572  12.658  63.077  0.00  0.00    -0.286 OA
ATOM     10  C   UNL     1     -12.396  13.749  65.629  0.00  0.00    +0.205 A 
ATOM     11  O   UNL     1     -12.748  14.524  64.690  0.00  0.00    -0.286 OA
ATOM     12  C   UNL     1     -10.164  10.916  65.945  0.00  0.00    +0.080 A 
ATOM     13  C   UNL     1     -12.115  14.277  66.872  0.00  0.00    +0.080 A 
ENDROOT
BRANCH   1  18
ATOM     14  C   UNL     1     -13.107  15.035  71.438  0.00  0.00    +0.177 A 
ATOM     15  C   UNL     1     -12.790  13.682  71.452  0.00  0.00    +0.229 A 
ATOM     16  O   UNL     1     -13.530  12.880  72.318  0.00  0.00    -0.283 OA
ATOM     17  C   UNL     1     -12.268  13.088  70.307  0.00  0.00    +0.048 A 
ATOM     18  C   UNL     1     -11.717  13.861  69.292  0.00  0.00    +0.038 A 
ATOM     19  C   UNL     1     -11.579  15.212  69.593  0.00  0.00    +0.006 A 
ATOM     20  C   UNL     1     -12.295  15.814  70.620  0.00  0.00    +0.040 A 
BRANCH  14  22
ATOM     21  C   UNL     1     -15.563  15.248  71.313  0.00  0.00    +0.253 C 
ATOM     22  O   UNL     1     -14.319  15.519  71.939  0.00  0.00    -0.468 OA
ENDBRANCH  14  22
ENDBRANCH   1  18
TORSDOF 2
ENDMDL
MODEL 2
REMARK VINA RESULT:      -7.5      1.814      7.196
REMARK  Name = 
REMARK  2 active torsions:
REMARK  status: ('A' for Active; 'I' for Inactive)
REMARK    1  A    between atoms: O_2  and  C_3
REMARK    2  A    between atoms: C_6  and  C_7
REMARK                            x       y       z     vdW  Elec       q    Type
REMARK                         _______ _______ _______ _____ _____    ______ ____
ROOT
ATOM      1  C   UNL     1     -11.592  13.791  68.347  0.00  0.00    +0.149 A 
ATOM      2  O   UNL     1     -11.934  14.834  69.075  0.00  0.00    -0.453 OA
ATOM      3  C   UNL     1     -12.420  14.721  70.293  0.00  0.00    +0.155 A 
ATOM      4  C   UNL     1     -12.696  13.465  70.807  0.00  0.00    +0.113 A 
ATOM      5  C   UNL     1     -13.203  13.356  72.094  0.00  0.00    +0.205 A 
ATOM      6  C   UNL     1     -13.248  14.485  72.901  0.00  0.00    +0.084 A 
ATOM      7  C   UNL     1     -12.704  15.683  72.478  0.00  0.00    +0.202 A 
ATOM      8  O   UNL     1     -12.123  16.506  73.446  0.00  0.00    -0.286 OA
ATOM      9  O   UNL     1     -13.531  12.094  72.560  0.00  0.00    -0.286 OA
ATOM     10  C   UNL     1     -12.188  12.356  70.140  0.00  0.00    +0.205 A 
ATOM     11  O   UNL     1     -12.083  11.248  70.744  0.00  0.00    -0.286 OA
ATOM     12  C   UNL     1     -12.481  15.825  71.133  0.00  0.00    +0.080 A 
ATOM     13  C   UNL     1     -11.397  12.602  69.036  0.00  0.00    +0.080 A 
ENDROOT
BRANCH   1  18
ATOM     14  C   UNL     1     -10.986  13.406  64.302  0.00  0.00    +0.177 A 
ATOM     15  C   UNL     1     -11.421  14.646  64.757  0.00  0.00    +0.229 A 
ATOM     16  O   UNL     1     -12.243  15.370  63.896  0.00  0.00    -0.283 OA
ATOM     17  C   UNL     1     -11.565  14.863  66.123  0.00  0.00    +0.048 A 
ATOM     18  C   UNL     1     -10.949  14.026  67.046  0.00  0.00    +0.038 A 
ATOM     19  C   UNL     1     -10.067  13.100  66.500  0.00  0.00    +0.006 A 
ATOM     20  C   UNL     1     -10.105  12.751  65.156  0.00  0.00    +0.040 A 
BRANCH  14  22
ATOM     21  C   UNL     1     -12.677  11.818  63.458  0.00  0.00    +0.253 C 
ATOM     22  O   UNL     1     -11.617  12.739  63.249  0.00  0.00    -0.468 OA
ENDBRANCH  14  22
ENDBRANCH   1  18
TORSDOF 2
ENDMDL
MODEL 3
REMARK VINA RESULT:      -7.4      2.705      3.574
REMARK  Name = 
REMARK  2 active torsions:
REMARK  status: ('A' for Active; 'I' for Inactive)
REMARK    1  A    between atoms: O_2  and  C_3
REMARK    2  A    between atoms: C_6  and  C_7
REMARK                            x       y       z     vdW  Elec       q    Type
REMARK                         _______ _______ _______ _____ _____    ______ ____
ROOT
ATOM      1  C   UNL     1     -11.685  11.654  68.332  0.00  0.00    +0.149 A 
ATOM      2  O   UNL     1     -11.221  10.881  67.372  0.00  0.00    -0.453 OA
ATOM      3  C   UNL     1     -11.203  11.251  66.110  0.00  0.00    +0.155 A 
ATOM      4  C   UNL     1     -11.790  12.449  65.738  0.00  0.00    +0.113 A 
ATOM      5  C   UNL     1     -11.761  12.832  64.405  0.00  0.00    +0.205 A 
ATOM      6  C   UNL     1     -10.988  12.106  63.508  0.00  0.00    +0.084 A 
ATOM      7  C   UNL     1     -10.175  11.076  63.943  0.00  0.00    +0.202 A 
ATOM      8  O   UNL     1      -8.969  10.876  63.266  0.00  0.00    -0.286 OA
ATOM      9  O   UNL     1     -12.411  14.002  64.049  0.00  0.00    -0.286 OA
ATOM     10  C   UNL     1     -12.125  13.354  66.738  0.00  0.00    +0.205 A 
ATOM     11  O   UNL     1     -12.304  14.575  66.452  0.00  0.00    -0.286 OA
ATOM     12  C   UNL     1     -10.441  10.553  65.181  0.00  0.00    +0.080 A 
ATOM     13  C   UNL     1     -11.794  13.004  68.031  0.00  0.00    +0.080 A 
ENDROOT
BRANCH   1  18
ATOM     14  C   UNL     1     -12.406   9.314  71.631  0.00  0.00    +0.177 A 
ATOM     15  C   UNL     1     -11.139   9.230  71.067  0.00  0.00    +0.229 A 
ATOM     16  O   UNL     1     -10.503   7.993  71.149  0.00  0.00    -0.283 OA
ATOM     17  C   UNL     1     -10.807  10.058  69.999  0.00  0.00    +0.048 A 
ATOM     18  C   UNL     1     -11.553  11.198  69.724  0.00  0.00    +0.038 A 
ATOM     19  C   UNL     1     -12.509  11.518  70.681  0.00  0.00    +0.006 A 
ATOM     20  C   UNL     1     -12.973  10.583  71.599  0.00  0.00    +0.040 A 
BRANCH  14  22
ATOM     21  C   UNL     1     -14.590   8.186  71.863  0.00  0.00    +0.253 C 
ATOM     22  O   UNL     1     -13.171   8.178  71.912  0.00  0.00    -0.468 OA
ENDBRANCH  14  22
ENDBRANCH   1  18
TORSDOF 2
ENDMDL
MODEL 4
REMARK VINA RESULT:      -7.4      2.922      4.516
REMARK  Name = 
REMARK  2 active torsions:
REMARK  status: ('A' for Active; 'I' for Inactive)
REMARK    1  A    between atoms: O_2  and  C_3
REMARK    2  A    between atoms: C_6  and  C_7
REMARK                            x       y       z     vdW  Elec       q    Type
REMARK                         _______ _______ _______ _____ _____    ______ ____
ROOT
ATOM      1  C   UNL     1     -10.830  10.431  68.692  0.00  0.00    +0.149 A 
ATOM      2  O   UNL     1     -11.269  11.421  67.942  0.00  0.00    -0.453 OA
ATOM      3  C   UNL     1     -11.108  11.448  66.637  0.00  0.00    +0.155 A 
ATOM      4  C   UNL     1     -10.354  10.465  66.018  0.00  0.00    +0.113 A 
ATOM      5  C   UNL     1     -10.194  10.500  64.640  0.00  0.00    +0.205 A 
ATOM      6  C   UNL     1     -10.941  11.404  63.895  0.00  0.00    +0.084 A 
ATOM      7  C   UNL     1     -11.906  12.191  64.494  0.00  0.00    +0.202 A 
ATOM      8  O   UNL     1     -13.045  12.496  63.744  0.00  0.00    -0.286 OA
ATOM      9  O   UNL     1      -9.383   9.544  64.055  0.00  0.00    -0.286 OA
ATOM     10  C   UNL     1     -10.031   9.328  66.749  0.00  0.00    +0.205 A 
ATOM     11  O   UNL     1      -9.687   8.266  66.149  0.00  0.00    -0.286 OA
ATOM     12  C   UNL     1     -11.836  12.335  65.855  0.00  0.00    +0.080 A 
ATOM     13  C   UNL     1     -10.539   9.246  68.030  0.00  0.00    +0.080 A 
ENDROOT
BRANCH   1  18
ATOM     14  C   UNL     1     -12.946   9.496  72.087  0.00  0.00    +0.177 A 
ATOM     15  C   UNL     1     -11.663   8.970  71.981  0.00  0.00    +0.229 A 
ATOM     16  O   UNL     1     -11.453   7.723  72.566  0.00  0.00    -0.283 OA
ATOM     17  C   UNL     1     -10.867   9.317  70.895  0.00  0.00    +0.048 A 
ATOM     18  C   UNL     1     -11.163  10.435  70.124  0.00  0.00    +0.038 A 
ATOM     19  C   UNL     1     -12.178  11.241  70.626  0.00  0.00    +0.006 A 
ATOM     20  C   UNL     1     -13.094  10.775  71.561  0.00  0.00    +0.040 A 
BRANCH  14  22
ATOM     21  C   UNL     1     -14.642   7.819  71.453  0.00  0.00    +0.253 C 
ATOM     22  O   UNL     1     -14.052   8.700  72.397  0.00  0.00    -0.468 OA
ENDBRANCH  14  22
ENDBRANCH   1  18
TORSDOF 2
ENDMDL
MODEL 5
REMARK VINA RESULT:      -7.2      4.042      6.971
REMARK  Name = 
REMARK  2 active torsions:
REMARK  status: ('A' for Active; 'I' for Inactive)
REMARK    1  A    between atoms: O_2  and  C_3
REMARK    2  A    between atoms: C_6  and  C_7
REMARK                            x       y       z     vdW  Elec       q    Type
REMARK                         _______ _______ _______ _____ _____    ______ ____
ROOT
ATOM      1  C   UNL     1     -10.790  16.435  67.854  0.00  0.00    +0.149 A 
ATOM      2  O   UNL     1     -11.612  16.560  68.874  0.00  0.00    -0.453 OA
ATOM      3  C   UNL     1     -11.994  15.537  69.609  0.00  0.00    +0.155 A 
ATOM      4  C   UNL     1     -11.617  14.254  69.245  0.00  0.00    +0.113 A 
ATOM      5  C   UNL     1     -12.020  13.183  70.029  0.00  0.00    +0.205 A 
ATOM      6  C   UNL     1     -12.629  13.430  71.253  0.00  0.00    +0.084 A 
ATOM      7  C   UNL     1     -12.745  14.718  71.741  0.00  0.00    +0.202 A 
ATOM      8  O   UNL     1     -12.659  14.893  73.124  0.00  0.00    -0.286 OA
ATOM      9  O   UNL     1     -11.686  11.907  69.608  0.00  0.00    -0.286 OA
ATOM     10  C   UNL     1     -10.619  14.109  68.289  0.00  0.00    +0.205 A 
ATOM     11  O   UNL     1      -9.986  13.015  68.196  0.00  0.00    -0.286 OA
ATOM     12  C   UNL     1     -12.604  15.740  70.839  0.00  0.00    +0.080 A 
ATOM     13  C   UNL     1     -10.040  15.268  67.813  0.00  0.00    +0.080 A 
ENDROOT
BRANCH   1  18
ATOM     14  C   UNL     1      -8.420  19.718  67.157  0.00  0.00    +0.177 A 
ATOM     15  C   UNL     1      -8.367  18.694  66.218  0.00  0.00    +0.229 A 
ATOM     16  O   UNL     1      -7.144  18.501  65.579  0.00  0.00    -0.283 OA
ATOM     17  C   UNL     1      -9.207  17.594  66.355  0.00  0.00    +0.048 A 
ATOM     18  C   UNL     1     -10.331  17.653  67.170  0.00  0.00    +0.038 A 
ATOM     19  C   UNL     1     -10.625  18.916  67.672  0.00  0.00    +0.006 A 
ATOM     20  C   UNL     1      -9.677  19.930  67.714  0.00  0.00    +0.040 A 
BRANCH  14  22
ATOM     21  C   UNL     1      -6.700  19.766  68.927  0.00  0.00    +0.253 C 
ATOM     22  O   UNL     1      -7.266  20.265  67.725  0.00  0.00    -0.468 OA
ENDBRANCH  14  22
ENDBRANCH   1  18
TORSDOF 2
ENDMDL
MODEL 6
REMARK VINA RESULT:      -7.1      4.178      5.893
REMARK  Name = 
REMARK  2 active torsions:
REMARK  status: ('A' for Active; 'I' for Inactive)
REMARK    1  A    between atoms: O_2  and  C_3
REMARK    2  A    between atoms: C_6  and  C_7
REMARK                            x       y       z     vdW  Elec       q    Type
REMARK                         _______ _______ _______ _____ _____    ______ ____
ROOT
ATOM      1  C   UNL     1     -10.435  16.472  67.280  0.00  0.00    +0.149 A 
ATOM      2  O   UNL     1     -10.385  15.866  66.112  0.00  0.00    -0.453 OA
ATOM      3  C   UNL     1     -10.819  14.638  65.929  0.00  0.00    +0.155 A 
ATOM      4  C   UNL     1     -11.246  13.893  67.016  0.00  0.00    +0.113 A 
ATOM      5  C   UNL     1     -11.707  12.600  66.813  0.00  0.00    +0.205 A 
ATOM      6  C   UNL     1     -11.905  12.149  65.514  0.00  0.00    +0.084 A 
ATOM      7  C   UNL     1     -11.747  12.998  64.436  0.00  0.00    +0.202 A 
ATOM      8  O   UNL     1     -12.584  12.803  63.334  0.00  0.00    -0.286 OA
ATOM      9  O   UNL     1     -12.066  11.855  67.923  0.00  0.00    -0.286 OA
ATOM     10  C   UNL     1     -11.473  14.555  68.217  0.00  0.00    +0.205 A 
ATOM     11  O   UNL     1     -12.201  14.021  69.106  0.00  0.00    -0.286 OA
ATOM     12  C   UNL     1     -11.033  14.148  64.647  0.00  0.00    +0.080 A 
ATOM     13  C   UNL     1     -11.303  15.925  68.215  0.00  0.00    +0.080 A 
ENDROOT
BRANCH   1  18
ATOM     14  C   UNL     1      -7.892  19.664  67.750  0.00  0.00    +0.177 A 
ATOM     15  C   UNL     1      -8.434  19.473  66.484  0.00  0.00    +0.229 A 
ATOM     16  O   UNL     1      -7.634  19.844  65.405  0.00  0.00    -0.283 OA
ATOM     17  C   UNL     1      -9.365  18.460  66.282  0.00  0.00    +0.048 A 
ATOM     18  C   UNL     1     -10.035  17.884  67.355  0.00  0.00    +0.038 A 
ATOM     19  C   UNL     1      -9.831  18.512  68.578  0.00  0.00    +0.006 A 
ATOM     20  C   UNL     1      -8.750  19.357  68.801  0.00  0.00    +0.040 A 
BRANCH  14  22
ATOM     21  C   UNL     1      -5.992  20.389  69.149  0.00  0.00    +0.253 C 
ATOM     22  O   UNL     1      -6.520  19.837  67.953  0.00  0.00    -0.468 OA
ENDBRANCH  14  22
ENDBRANCH   1  18
TORSDOF 2
ENDMDL
MODEL 7
REMARK VINA RESULT:      -7.1      3.114      5.261
REMARK  Name = 
REMARK  2 active torsions:
REMARK  status: ('A' for Active; 'I' for Inactive)
REMARK    1  A    between atoms: O_2  and  C_3
REMARK    2  A    between atoms: C_6  and  C_7
REMARK                            x       y       z     vdW  Elec       q    Type
REMARK                         _______ _______ _______ _____ _____    ______ ____
ROOT
ATOM      1  C   UNL     1     -11.235  12.666  66.784  0.00  0.00    +0.149 A 
ATOM      2  O   UNL     1     -10.581  13.607  67.431  0.00  0.00    -0.453 OA
ATOM      3  C   UNL     1     -10.484  14.841  66.983  0.00  0.00    +0.155 A 
ATOM      4  C   UNL     1     -10.987  15.157  65.732  0.00  0.00    +0.113 A 
ATOM      5  C   UNL     1     -10.884  16.462  65.271  0.00  0.00    +0.205 A 
ATOM      6  C   UNL     1     -10.452  17.455  66.141  0.00  0.00    +0.084 A 
ATOM      7  C   UNL     1     -10.223  17.180  67.475  0.00  0.00    +0.202 A 
ATOM      8  O   UNL     1     -10.505  18.189  68.400  0.00  0.00    -0.286 OA
ATOM      9  O   UNL     1     -11.336  16.737  63.992  0.00  0.00    -0.286 OA
ATOM     10  C   UNL     1     -11.827  14.240  65.111  0.00  0.00    +0.205 A 
ATOM     11  O   UNL     1     -12.595  14.618  64.177  0.00  0.00    -0.286 OA
ATOM     12  C   UNL     1     -10.058  15.864  67.820  0.00  0.00    +0.080 A 
ATOM     13  C   UNL     1     -12.137  13.099  65.823  0.00  0.00    +0.080 A 
ENDROOT
BRANCH   1  18
ATOM     14  C   UNL     1     -10.253   9.513  69.228  0.00  0.00    +0.177 A 
ATOM     15  C   UNL     1     -11.375  10.254  69.580  0.00  0.00    +0.229 A 
ATOM     16  O   UNL     1     -11.642  10.369  70.942  0.00  0.00    -0.283 OA
ATOM     17  C   UNL     1     -11.806  11.282  68.747  0.00  0.00    +0.048 A 
ATOM     18  C   UNL     1     -11.386  11.351  67.424  0.00  0.00    +0.038 A 
ATOM     19  C   UNL     1     -10.671  10.246  66.979  0.00  0.00    +0.006 A 
ATOM     20  C   UNL     1     -10.066   9.356  67.859  0.00  0.00    +0.040 A 
BRANCH  14  22
ATOM     21  C   UNL     1      -7.922   9.747  70.005  0.00  0.00    +0.253 C 
ATOM     22  O   UNL     1      -9.236   9.227  70.143  0.00  0.00    -0.468 OA
ENDBRANCH  14  22
ENDBRANCH   1  18
TORSDOF 2
ENDMDL
MODEL 8
REMARK VINA RESULT:      -7.1      2.861      7.016
REMARK  Name = 
REMARK  2 active torsions:
REMARK  status: ('A' for Active; 'I' for Inactive)
REMARK    1  A    between atoms: O_2  and  C_3
REMARK    2  A    between atoms: C_6  and  C_7
REMARK                            x       y       z     vdW  Elec       q    Type
REMARK                         _______ _______ _______ _____ _____    ______ ____
ROOT
ATOM      1  C   UNL     1     -10.593  13.535  65.270  0.00  0.00    +0.149 A 
ATOM      2  O   UNL     1     -10.329  13.789  66.535  0.00  0.00    -0.453 OA
ATOM      3  C   UNL     1     -10.289  15.011  67.022  0.00  0.00    +0.155 A 
ATOM      4  C   UNL     1     -10.415  16.093  66.167  0.00  0.00    +0.113 A 
ATOM      5  C   UNL     1     -10.376  17.377  66.689  0.00  0.00    +0.205 A 
ATOM      6  C   UNL     1     -10.399  17.548  68.068  0.00  0.00    +0.084 A 
ATOM      7  C   UNL     1     -10.562  16.468  68.914  0.00  0.00    +0.202 A 
ATOM      8  O   UNL     1     -11.274  16.678  70.098  0.00  0.00    -0.286 OA
ATOM      9  O   UNL     1     -10.439  18.442  65.807  0.00  0.00    -0.286 OA
ATOM     10  C   UNL     1     -10.864  15.858  64.872  0.00  0.00    +0.205 A 
ATOM     11  O   UNL     1     -11.347  16.809  64.188  0.00  0.00    -0.286 OA
ATOM     12  C   UNL     1     -10.312  15.226  68.394  0.00  0.00    +0.080 A 
ATOM     13  C   UNL     1     -11.202  14.558  64.557  0.00  0.00    +0.080 A 
ENDROOT
BRANCH   1  18
ATOM     14  C   UNL     1      -9.357   9.798  64.093  0.00  0.00    +0.177 A 
ATOM     15  C   UNL     1      -9.954   9.897  65.344  0.00  0.00    +0.229 A 
ATOM     16  O   UNL     1      -9.497   9.016  66.322  0.00  0.00    -0.283 OA
ATOM     17  C   UNL     1     -10.468  11.120  65.765  0.00  0.00    +0.048 A 
ATOM     18  C   UNL     1     -10.732  12.133  64.851  0.00  0.00    +0.038 A 
ATOM     19  C   UNL     1     -10.611  11.765  63.516  0.00  0.00    +0.006 A 
ATOM     20  C   UNL     1      -9.895  10.640  63.124  0.00  0.00    +0.040 A 
BRANCH  14  22
ATOM     21  C   UNL     1      -6.955   9.859  63.527  0.00  0.00    +0.253 C 
ATOM     22  O   UNL     1      -8.130   9.157  63.904  0.00  0.00    -0.468 OA
ENDBRANCH  14  22
ENDBRANCH   1  18
TORSDOF 2
ENDMDL
MODEL 9
REMARK VINA RESULT:      -7.1      5.295      6.861
REMARK  Name = 
REMARK  2 active torsions:
REMARK  status: ('A' for Active; 'I' for Inactive)
REMARK    1  A    between atoms: O_2  and  C_3
REMARK    2  A    between atoms: C_6  and  C_7
REMARK                            x       y       z     vdW  Elec       q    Type
REMARK                         _______ _______ _______ _____ _____    ______ ____
ROOT
ATOM      1  C   UNL     1      -9.272  17.548  66.715  0.00  0.00    +0.149 A 
ATOM      2  O   UNL     1      -9.467  16.679  65.745  0.00  0.00    -0.453 OA
ATOM      3  C   UNL     1     -10.296  15.664  65.857  0.00  0.00    +0.155 A 
ATOM      4  C   UNL     1     -10.913  15.414  67.072  0.00  0.00    +0.113 A 
ATOM      5  C   UNL     1     -11.789  14.343  67.179  0.00  0.00    +0.205 A 
ATOM      6  C   UNL     1     -12.170  13.662  66.029  0.00  0.00    +0.084 A 
ATOM      7  C   UNL     1     -11.770  14.099  64.780  0.00  0.00    +0.202 A 
ATOM      8  O   UNL     1     -12.660  13.916  63.718  0.00  0.00    -0.286 OA
ATOM      9  O   UNL     1     -12.342  14.076  68.419  0.00  0.00    -0.286 OA
ATOM     10  C   UNL     1     -10.864  16.401  68.048  0.00  0.00    +0.205 A 
ATOM     11  O   UNL     1     -11.699  16.391  69.000  0.00  0.00    -0.286 OA
ATOM     12  C   UNL     1     -10.704  14.958  64.733  0.00  0.00    +0.080 A 
ATOM     13  C   UNL     1     -10.242  17.585  67.706  0.00  0.00    +0.080 A 
ENDROOT
BRANCH   1  18
ATOM     14  C   UNL     1      -6.509  20.478  67.530  0.00  0.00    +0.177 A 
ATOM     15  C   UNL     1      -6.135  19.498  66.618  0.00  0.00    +0.229 A 
ATOM     16  O   UNL     1      -4.785  19.155  66.594  0.00  0.00    -0.283 OA
ATOM     17  C   UNL     1      -7.056  18.526  66.239  0.00  0.00    +0.048 A 
ATOM     18  C   UNL     1      -8.417  18.714  66.450  0.00  0.00    +0.038 A 
ATOM     19  C   UNL     1      -8.772  19.984  66.890  0.00  0.00    +0.006 A 
ATOM     20  C   UNL     1      -7.849  20.847  67.469  0.00  0.00    +0.040 A 
BRANCH  14  22
ATOM     21  C   UNL     1      -5.879  20.260  69.907  0.00  0.00    +0.253 C 
ATOM     22  O   UNL     1      -5.704  20.827  68.617  0.00  0.00    -0.468 OA
ENDBRANCH  14  22
ENDBRANCH   1  18
TORSDOF 2
ENDMDL
