MODEL 1
REMARK VINA RESULT:      -5.4      0.000      0.000
REMARK  Name = 
REMARK  5 active torsions:
REMARK  status: ('A' for Active; 'I' for Inactive)
REMARK    1  A    between atoms: C_2  and  C_3
REMARK    2  A    between atoms: C_3  and  C_4
REMARK    3  A    between atoms: C_4  and  C_5
REMARK    4  A    between atoms: C_5  and  C_6
REMARK    5  A    between atoms: C_6  and  C_7
REMARK                            x       y       z     vdW  Elec       q    Type
REMARK                         _______ _______ _______ _____ _____    ______ ____
ROOT
ATOM      1  C   UNL     1     -10.187  15.173  65.597  0.00  0.00    +0.017 A 
ATOM      2  C   UNL     1     -11.144  15.553  64.688  0.00  0.00    +0.195 A 
ATOM      3  O   UNL     1     -11.321  16.857  64.263  0.00  0.00    -0.287 OA
ATOM      4  C   UNL     1     -12.136  14.633  64.403  0.00  0.00    +0.084 A 
ATOM      5  C   UNL     1     -12.145  13.356  64.941  0.00  0.00    +0.199 A 
ATOM      6  O   UNL     1     -13.245  12.520  64.725  0.00  0.00    -0.286 OA
ATOM      7  C   UNL     1     -11.373  13.180  66.078  0.00  0.00    +0.042 A 
ATOM      8  C   UNL     1     -10.204  13.924  66.197  0.00  0.00    +0.002 A 
ENDROOT
BRANCH   1   9
ATOM      9  C   UNL     1      -9.234  16.172  66.110  0.00  0.00    +0.030 C 
BRANCH   9  10
ATOM     10  C   UNL     1      -9.428  16.490  67.567  0.00  0.00    +0.005 C 
BRANCH  10  11
ATOM     11  C   UNL     1     -10.359  17.693  67.657  0.00  0.00    +0.000 C 
BRANCH  11  12
ATOM     12  C   UNL     1      -9.690  18.849  68.358  0.00  0.00    +0.000 C 
BRANCH  12  14
ATOM     13  C   UNL     1     -10.377  19.774  66.132  0.00  0.00    +0.000 C 
ATOM     14  C   UNL     1     -10.024  20.112  67.573  0.00  0.00    +0.000 C 
ENDBRANCH  12  14
ENDBRANCH  11  12
ENDBRANCH  10  11
ENDBRANCH   9  10
ENDBRANCH   1   9
TORSDOF 5
ENDMDL
MODEL 2
REMARK VINA RESULT:      -5.2      1.370      2.304
REMARK  Name = 
REMARK  5 active torsions:
REMARK  status: ('A' for Active; 'I' for Inactive)
REMARK    1  A    between atoms: C_2  and  C_3
REMARK    2  A    between atoms: C_3  and  C_4
REMARK    3  A    between atoms: C_4  and  C_5
REMARK    4  A    between atoms: C_5  and  C_6
REMARK    5  A    between atoms: C_6  and  C_7
REMARK                            x       y       z     vdW  Elec       q    Type
REMARK                         _______ _______ _______ _____ _____    ______ ____
ROOT
ATOM      1  C   UNL     1     -10.137  15.182  65.537  0.00  0.00    +0.017 A 
ATOM      2  C   UNL     1     -11.134  15.581  64.680  0.00  0.00    +0.195 A 
ATOM      3  O   UNL     1     -11.330  16.894  64.294  0.00  0.00    -0.287 OA
ATOM      4  C   UNL     1     -12.136  14.665  64.417  0.00  0.00    +0.084 A 
ATOM      5  C   UNL     1     -12.120  13.376  64.925  0.00  0.00    +0.199 A 
ATOM      6  O   UNL     1     -13.226  12.542  64.738  0.00  0.00    -0.286 OA
ATOM      7  C   UNL     1     -11.299  13.175  66.023  0.00  0.00    +0.042 A 
ATOM      8  C   UNL     1     -10.126  13.919  66.108  0.00  0.00    +0.002 A 
ENDROOT
BRANCH   1   9
ATOM      9  C   UNL     1      -9.164  16.170  66.031  0.00  0.00    +0.030 C 
BRANCH   9  10
ATOM     10  C   UNL     1      -8.965  16.121  67.521  0.00  0.00    +0.005 C 
BRANCH  10  11
ATOM     11  C   UNL     1      -9.895  17.155  68.145  0.00  0.00    +0.000 C 
BRANCH  11  12
ATOM     12  C   UNL     1     -10.584  16.602  69.368  0.00  0.00    +0.000 C 
BRANCH  12  14
ATOM     13  C   UNL     1     -11.748  14.391  69.564  0.00  0.00    +0.000 C 
ATOM     14  C   UNL     1     -11.755  15.754  68.886  0.00  0.00    +0.000 C 
ENDBRANCH  12  14
ENDBRANCH  11  12
ENDBRANCH  10  11
ENDBRANCH   9  10
ENDBRANCH   1   9
TORSDOF 5
ENDMDL
MODEL 3
REMARK VINA RESULT:      -4.9      4.891      6.572
REMARK  Name = 
REMARK  5 active torsions:
REMARK  status: ('A' for Active; 'I' for Inactive)
REMARK    1  A    between atoms: C_2  and  C_3
REMARK    2  A    between atoms: C_3  and  C_4
REMARK    3  A    between atoms: C_4  and  C_5
REMARK    4  A    between atoms: C_5  and  C_6
REMARK    5  A    between atoms: C_6  and  C_7
REMARK                            x       y       z     vdW  Elec       q    Type
REMARK                         _______ _______ _______ _____ _____    ______ ____
ROOT
ATOM      1  C   UNL     1     -12.271  13.234  70.592  0.00  0.00    +0.017 A 
ATOM      2  C   UNL     1     -12.993  12.838  71.692  0.00  0.00    +0.195 A 
ATOM      3  O   UNL     1     -13.348  11.525  71.942  0.00  0.00    -0.287 OA
ATOM      4  C   UNL     1     -13.613  13.832  72.425  0.00  0.00    +0.084 A 
ATOM      5  C   UNL     1     -13.469  15.178  72.126  0.00  0.00    +0.199 A 
ATOM      6  O   UNL     1     -14.229  16.128  72.816  0.00  0.00    -0.286 OA
ATOM      7  C   UNL     1     -13.033  15.463  70.842  0.00  0.00    +0.042 A 
ATOM      8  C   UNL     1     -12.159  14.568  70.234  0.00  0.00    +0.002 A 
ENDROOT
BRANCH   1   9
ATOM      9  C   UNL     1     -11.771  12.222  69.648  0.00  0.00    +0.030 C 
BRANCH   9  10
ATOM     10  C   UNL     1     -10.946  12.801  68.532  0.00  0.00    +0.005 C 
BRANCH  10  11
ATOM     11  C   UNL     1     -11.660  12.492  67.221  0.00  0.00    +0.000 C 
BRANCH  11  12
ATOM     12  C   UNL     1     -12.067  13.758  66.510  0.00  0.00    +0.000 C 
BRANCH  12  14
ATOM     13  C   UNL     1     -10.685  15.435  65.262  0.00  0.00    +0.000 C 
ATOM     14  C   UNL     1     -10.891  14.723  66.591  0.00  0.00    +0.000 C 
ENDBRANCH  12  14
ENDBRANCH  11  12
ENDBRANCH  10  11
ENDBRANCH   9  10
ENDBRANCH   1   9
TORSDOF 5
ENDMDL
MODEL 4
REMARK VINA RESULT:      -4.8      5.707      7.755
REMARK  Name = 
REMARK  5 active torsions:
REMARK  status: ('A' for Active; 'I' for Inactive)
REMARK    1  A    between atoms: C_2  and  C_3
REMARK    2  A    between atoms: C_3  and  C_4
REMARK    3  A    between atoms: C_4  and  C_5
REMARK    4  A    between atoms: C_5  and  C_6
REMARK    5  A    between atoms: C_6  and  C_7
REMARK                            x       y       z     vdW  Elec       q    Type
REMARK                         _______ _______ _______ _____ _____    ______ ____
ROOT
ATOM      1  C   UNL     1     -12.528  14.607  70.637  0.00  0.00    +0.017 A 
ATOM      2  C   UNL     1     -11.879  15.782  70.929  0.00  0.00    +0.195 A 
ATOM      3  O   UNL     1     -10.941  16.364  70.097  0.00  0.00    -0.287 OA
ATOM      4  C   UNL     1     -11.976  16.244  72.228  0.00  0.00    +0.084 A 
ATOM      5  C   UNL     1     -12.745  15.608  73.190  0.00  0.00    +0.199 A 
ATOM      6  O   UNL     1     -12.695  16.043  74.518  0.00  0.00    -0.286 OA
ATOM      7  C   UNL     1     -13.069  14.288  72.922  0.00  0.00    +0.042 A 
ATOM      8  C   UNL     1     -13.256  13.917  71.594  0.00  0.00    +0.002 A 
ENDROOT
BRANCH   1   9
ATOM      9  C   UNL     1     -12.290  13.946  69.344  0.00  0.00    +0.030 C 
BRANCH   9  10
ATOM     10  C   UNL     1     -11.234  12.876  69.404  0.00  0.00    +0.005 C 
BRANCH  10  11
ATOM     11  C   UNL     1     -11.914  11.542  69.120  0.00  0.00    +0.000 C 
BRANCH  11  12
ATOM     12  C   UNL     1     -11.074  10.387  69.604  0.00  0.00    +0.000 C 
BRANCH  12  14
ATOM     13  C   UNL     1     -13.064  10.193  71.115  0.00  0.00    +0.000 C 
ATOM     14  C   UNL     1     -11.555  10.030  71.005  0.00  0.00    +0.000 C 
ENDBRANCH  12  14
ENDBRANCH  11  12
ENDBRANCH  10  11
ENDBRANCH   9  10
ENDBRANCH   1   9
TORSDOF 5
ENDMDL
MODEL 5
REMARK VINA RESULT:      -4.8      2.623      5.629
REMARK  Name = 
REMARK  5 active torsions:
REMARK  status: ('A' for Active; 'I' for Inactive)
REMARK    1  A    between atoms: C_2  and  C_3
REMARK    2  A    between atoms: C_3  and  C_4
REMARK    3  A    between atoms: C_4  and  C_5
REMARK    4  A    between atoms: C_5  and  C_6
REMARK    5  A    between atoms: C_6  and  C_7
REMARK                            x       y       z     vdW  Elec       q    Type
REMARK                         _______ _______ _______ _____ _____    ______ ____
ROOT
ATOM      1  C   UNL     1     -11.303  13.036  65.965  0.00  0.00    +0.017 A 
ATOM      2  C   UNL     1     -12.332  13.356  65.113  0.00  0.00    +0.195 A 
ATOM      3  O   UNL     1     -13.224  12.427  64.609  0.00  0.00    -0.287 OA
ATOM      4  C   UNL     1     -12.298  14.610  64.534  0.00  0.00    +0.084 A 
ATOM      5  C   UNL     1     -11.320  15.545  64.837  0.00  0.00    +0.199 A 
ATOM      6  O   UNL     1     -11.257  16.743  64.118  0.00  0.00    -0.286 OA
ATOM      7  C   UNL     1     -10.165  15.039  65.411  0.00  0.00    +0.042 A 
ATOM      8  C   UNL     1     -10.279  13.929  66.241  0.00  0.00    +0.002 A 
ENDROOT
BRANCH   1   9
ATOM      9  C   UNL     1     -11.158  11.651  66.443  0.00  0.00    +0.030 C 
BRANCH   9  10
ATOM     10  C   UNL     1     -10.051  11.477  67.446  0.00  0.00    +0.005 C 
BRANCH  10  11
ATOM     11  C   UNL     1     -10.650  10.820  68.684  0.00  0.00    +0.000 C 
BRANCH  11  12
ATOM     12  C   UNL     1     -11.790  11.638  69.238  0.00  0.00    +0.000 C 
BRANCH  12  14
ATOM     13  C   UNL     1     -11.356   9.779  70.862  0.00  0.00    +0.000 C 
ATOM     14  C   UNL     1     -12.180  11.025  70.578  0.00  0.00    +0.000 C 
ENDBRANCH  12  14
ENDBRANCH  11  12
ENDBRANCH  10  11
ENDBRANCH   9  10
ENDBRANCH   1   9
TORSDOF 5
ENDMDL
MODEL 6
REMARK VINA RESULT:      -4.8      3.222      4.190
REMARK  Name = 
REMARK  5 active torsions:
REMARK  status: ('A' for Active; 'I' for Inactive)
REMARK    1  A    between atoms: C_2  and  C_3
REMARK    2  A    between atoms: C_3  and  C_4
REMARK    3  A    between atoms: C_4  and  C_5
REMARK    4  A    between atoms: C_5  and  C_6
REMARK    5  A    between atoms: C_6  and  C_7
REMARK                            x       y       z     vdW  Elec       q    Type
REMARK                         _______ _______ _______ _____ _____    ______ ____
ROOT
ATOM      1  C   UNL     1     -11.291  14.478  67.294  0.00  0.00    +0.017 A 
ATOM      2  C   UNL     1     -11.982  13.328  66.997  0.00  0.00    +0.195 A 
ATOM      3  O   UNL     1     -12.043  12.234  67.841  0.00  0.00    -0.287 OA
ATOM      4  C   UNL     1     -12.399  13.169  65.689  0.00  0.00    +0.084 A 
ATOM      5  C   UNL     1     -12.203  14.142  64.721  0.00  0.00    +0.199 A 
ATOM      6  O   UNL     1     -12.523  13.868  63.388  0.00  0.00    -0.286 OA
ATOM      7  C   UNL     1     -11.225  15.081  65.004  0.00  0.00    +0.042 A 
ATOM      8  C   UNL     1     -11.029  15.442  66.333  0.00  0.00    +0.002 A 
ENDROOT
BRANCH   1   9
ATOM      9  C   UNL     1     -10.631  14.612  68.603  0.00  0.00    +0.030 C 
BRANCH   9  10
ATOM     10  C   UNL     1     -11.050  15.842  69.361  0.00  0.00    +0.005 C 
BRANCH  10  11
ATOM     11  C   UNL     1     -12.232  15.460  70.244  0.00  0.00    +0.000 C 
BRANCH  11  12
ATOM     12  C   UNL     1     -12.036  15.946  71.658  0.00  0.00    +0.000 C 
BRANCH  12  14
ATOM     13  C   UNL     1     -14.380  15.070  71.516  0.00  0.00    +0.000 C 
ATOM     14  C   UNL     1     -13.284  15.566  72.447  0.00  0.00    +0.000 C 
ENDBRANCH  12  14
ENDBRANCH  11  12
ENDBRANCH  10  11
ENDBRANCH   9  10
ENDBRANCH   1   9
TORSDOF 5
ENDMDL
MODEL 7
REMARK VINA RESULT:      -4.7      3.072      3.768
REMARK  Name = 
REMARK  5 active torsions:
REMARK  status: ('A' for Active; 'I' for Inactive)
REMARK    1  A    between atoms: C_2  and  C_3
REMARK    2  A    between atoms: C_3  and  C_4
REMARK    3  A    between atoms: C_4  and  C_5
REMARK    4  A    between atoms: C_5  and  C_6
REMARK    5  A    between atoms: C_6  and  C_7
REMARK                            x       y       z     vdW  Elec       q    Type
REMARK                         _______ _______ _______ _____ _____    ______ ____
ROOT
ATOM      1  C   UNL     1     -10.794  15.140  67.034  0.00  0.00    +0.017 A 
ATOM      2  C   UNL     1     -10.470  15.808  65.878  0.00  0.00    +0.195 A 
ATOM      3  O   UNL     1      -9.795  17.015  65.856  0.00  0.00    -0.287 OA
ATOM      4  C   UNL     1     -11.087  15.383  64.716  0.00  0.00    +0.084 A 
ATOM      5  C   UNL     1     -11.941  14.291  64.682  0.00  0.00    +0.199 A 
ATOM      6  O   UNL     1     -12.640  13.995  63.508  0.00  0.00    -0.286 OA
ATOM      7  C   UNL     1     -12.471  13.907  65.902  0.00  0.00    +0.042 A 
ATOM      8  C   UNL     1     -11.690  14.082  67.040  0.00  0.00    +0.002 A 
ENDROOT
BRANCH   1   9
ATOM      9  C   UNL     1     -10.348  15.673  68.332  0.00  0.00    +0.030 C 
BRANCH   9  10
ATOM     10  C   UNL     1     -11.026  15.028  69.509  0.00  0.00    +0.005 C 
BRANCH  10  11
ATOM     11  C   UNL     1     -11.486  16.140  70.443  0.00  0.00    +0.000 C 
BRANCH  11  12
ATOM     12  C   UNL     1     -12.181  15.580  71.659  0.00  0.00    +0.000 C 
BRANCH  12  14
ATOM     13  C   UNL     1     -14.630  15.050  71.604  0.00  0.00    +0.000 C 
ATOM     14  C   UNL     1     -13.242  14.604  71.167  0.00  0.00    +0.000 C 
ENDBRANCH  12  14
ENDBRANCH  11  12
ENDBRANCH  10  11
ENDBRANCH   9  10
ENDBRANCH   1   9
TORSDOF 5
ENDMDL
MODEL 8
REMARK VINA RESULT:      -4.7      1.584      2.492
REMARK  Name = 
REMARK  5 active torsions:
REMARK  status: ('A' for Active; 'I' for Inactive)
REMARK    1  A    between atoms: C_2  and  C_3
REMARK    2  A    between atoms: C_3  and  C_4
REMARK    3  A    between atoms: C_4  and  C_5
REMARK    4  A    between atoms: C_5  and  C_6
REMARK    5  A    between atoms: C_6  and  C_7
REMARK                            x       y       z     vdW  Elec       q    Type
REMARK                         _______ _______ _______ _____ _____    ______ ____
ROOT
ATOM      1  C   UNL     1     -10.299  16.862  66.032  0.00  0.00    +0.017 A 
ATOM      2  C   UNL     1     -10.795  16.108  64.997  0.00  0.00    +0.195 A 
ATOM      3  O   UNL     1     -11.531  16.634  63.952  0.00  0.00    -0.287 OA
ATOM      4  C   UNL     1     -10.784  14.735  65.162  0.00  0.00    +0.084 A 
ATOM      5  C   UNL     1     -10.237  14.123  66.279  0.00  0.00    +0.199 A 
ATOM      6  O   UNL     1     -10.377  12.743  66.453  0.00  0.00    -0.286 OA
ATOM      7  C   UNL     1     -10.084  14.934  67.392  0.00  0.00    +0.042 A 
ATOM      8  C   UNL     1      -9.800  16.280  67.187  0.00  0.00    +0.002 A 
ENDROOT
BRANCH   1   9
ATOM      9  C   UNL     1     -10.480  18.323  66.019  0.00  0.00    +0.030 C 
BRANCH   9  10
ATOM     10  C   UNL     1     -10.503  18.936  67.393  0.00  0.00    +0.005 C 
BRANCH  10  11
ATOM     11  C   UNL     1      -9.802  20.286  67.307  0.00  0.00    +0.000 C 
BRANCH  11  12
ATOM     12  C   UNL     1      -8.308  20.135  67.442  0.00  0.00    +0.000 C 
BRANCH  12  14
ATOM     13  C   UNL     1      -6.885  18.317  68.418  0.00  0.00    +0.000 C 
ATOM     14  C   UNL     1      -8.046  19.268  68.668  0.00  0.00    +0.000 C 
ENDBRANCH  12  14
ENDBRANCH  11  12
ENDBRANCH  10  11
ENDBRANCH   9  10
ENDBRANCH   1   9
TORSDOF 5
ENDMDL
MODEL 9
REMARK VINA RESULT:      -4.7      6.057      8.564
REMARK  Name = 
REMARK  5 active torsions:
REMARK  status: ('A' for Active; 'I' for Inactive)
REMARK    1  A    between atoms: C_2  and  C_3
REMARK    2  A    between atoms: C_3  and  C_4
REMARK    3  A    between atoms: C_4  and  C_5
REMARK    4  A    between atoms: C_5  and  C_6
REMARK    5  A    between atoms: C_6  and  C_7
REMARK                            x       y       z     vdW  Elec       q    Type
REMARK                         _______ _______ _______ _____ _____    ______ ____
ROOT
ATOM      1  C   UNL     1     -12.577  13.230  71.013  0.00  0.00    +0.017 A 
ATOM      2  C   UNL     1     -12.939  14.457  71.513  0.00  0.00    +0.195 A 
ATOM      3  O   UNL     1     -13.821  14.624  72.566  0.00  0.00    -0.287 OA
ATOM      4  C   UNL     1     -12.615  15.564  70.751  0.00  0.00    +0.084 A 
ATOM      5  C   UNL     1     -11.896  15.470  69.570  0.00  0.00    +0.199 A 
ATOM      6  O   UNL     1     -11.718  16.606  68.774  0.00  0.00    -0.286 OA
ATOM      7  C   UNL     1     -11.877  14.218  68.977  0.00  0.00    +0.042 A 
ATOM      8  C   UNL     1     -11.909  13.101  69.805  0.00  0.00    +0.002 A 
ENDROOT
BRANCH   1   9
ATOM      9  C   UNL     1     -13.079  12.005  71.657  0.00  0.00    +0.030 C 
BRANCH   9  10
ATOM     10  C   UNL     1     -12.548  10.742  71.037  0.00  0.00    +0.005 C 
BRANCH  10  11
ATOM     11  C   UNL     1     -13.023   9.573  71.892  0.00  0.00    +0.000 C 
BRANCH  11  12
ATOM     12  C   UNL     1     -12.502   8.261  71.361  0.00  0.00    +0.000 C 
BRANCH  12  14
ATOM     13  C   UNL     1     -14.935   7.876  71.823  0.00  0.00    +0.000 C 
ATOM     14  C   UNL     1     -13.585   7.214  71.592  0.00  0.00    +0.000 C 
ENDBRANCH  12  14
ENDBRANCH  11  12
ENDBRANCH  10  11
ENDBRANCH   9  10
ENDBRANCH   1   9
TORSDOF 5
ENDMDL
