MODEL 1
REMARK VINA RESULT:      -7.2      0.000      0.000
REMARK  Name = 
REMARK  3 active torsions:
REMARK  status: ('A' for Active; 'I' for Inactive)
REMARK    1  A    between atoms: C_17  and  O_18
REMARK    2  A    between atoms: O_18  and  C_19
REMARK    3  A    between atoms: C_32  and  C_33
REMARK                            x       y       z     vdW  Elec       q    Type
REMARK                         _______ _______ _______ _____ _____    ______ ____
ROOT
ATOM      1  C   UNL     1      -8.474  -0.689  71.326  0.00  0.00    +0.007 C 
ATOM      2  C   UNL     1      -8.351   0.666  70.437  0.00  0.00    +0.053 C 
ATOM      3  C   UNL     1      -8.932  -0.128  69.030  0.00  0.00    +0.159 C 
ATOM      4  O   UNL     1      -8.967   1.201  68.328  0.00  0.00    -0.223 OA
ATOM      5  C   UNL     1      -7.370  -0.543  68.506  0.00  0.00    +0.071 C 
ATOM      6  C   UNL     1      -7.849  -2.052  68.248  0.00  0.00    +0.006 C 
ATOM      7  C   UNL     1      -7.577  -0.025  66.894  0.00  0.00    +0.171 C 
ATOM      8  C   UNL     1      -6.159   0.805  66.968  0.00  0.00    +0.047 C 
ATOM      9  O   UNL     1      -6.872  -1.227  66.242  0.00  0.00    -0.452 OA
ATOM     10  C   UNL     1      -6.830  -1.031  64.864  0.00  0.00    +0.319 C 
ATOM     11  O   UNL     1      -6.695  -2.062  64.157  0.00  0.00    -0.250 OA
ATOM     12  C   UNL     1      -6.717   0.315  64.229  0.00  0.00    +0.142 C 
ATOM     13  C   UNL     1      -7.562   0.113  62.820  0.00  0.00    +0.166 C 
ATOM     14  O   UNL     1      -8.595   1.160  63.221  0.00  0.00    -0.222 OA
ATOM     15  C   UNL     1      -6.639   1.205  61.991  0.00  0.00    +0.066 C 
ATOM     16  C   UNL     1      -6.586   2.473  63.043  0.00  0.00    +0.157 C 
ATOM     17  O   UNL     1      -5.197   2.855  62.541  0.00  0.00    -0.223 OA
ATOM     18  C   UNL     1      -7.324   3.465  61.943  0.00  0.00    +0.066 C 
ATOM     19  C   UNL     1      -6.544   4.881  62.290  0.00  0.00    +0.155 C 
ATOM     20  O   UNL     1      -6.008   4.960  60.861  0.00  0.00    -0.223 OA
ATOM     21  C   UNL     1      -7.917   5.747  61.985  0.00  0.00    +0.036 C 
ATOM     22  C   UNL     1      -7.820   6.435  60.733  0.00  0.00    +0.038 C 
ATOM     23  C   UNL     1      -6.739   7.632  61.030  0.00  0.00    +0.183 C 
ATOM     24  O   UNL     1      -7.191   8.397  59.805  0.00  0.00    -0.220 OA
ATOM     25  C   UNL     1      -7.898   8.437  62.028  0.00  0.00    +0.189 C 
ATOM     26  O   UNL     1      -7.019   8.258  63.246  0.00  0.00    -0.220 OA
ATOM     27  C   UNL     1      -7.195   9.881  61.671  0.00  0.00    +0.100 C 
ATOM     28  C   UNL     1      -8.224  10.738  62.335  0.00  0.00    +0.156 C 
ATOM     29  O   UNL     1      -9.137  11.051  61.631  0.00  0.00    -0.296 OA
ATOM     30  C   UNL     1      -8.211  10.495  63.787  0.00  0.00    +0.098 C 
ATOM     31  C   UNL     1      -9.025  11.827  64.272  0.00  0.00    +0.172 C 
ATOM     32  O   UNL     1     -10.292  11.373  63.571  0.00  0.00    -0.222 OA
ATOM     33  C   UNL     1      -9.476  11.090  65.761  0.00  0.00    +0.164 C 
ATOM     34  C   UNL     1     -10.865  12.098  65.712  0.00  0.00    +0.168 C 
ATOM     35  O   UNL     1     -11.739  10.864  65.463  0.00  0.00    -0.222 OA
ATOM     36  C   UNL     1     -11.287  12.089  67.258  0.00  0.00    +0.068 C 
ATOM     37  C   UNL     1     -10.292  11.331  68.265  0.00  0.00    +0.142 C 
ATOM     38  C   UNL     1     -11.561  10.637  69.047  0.00  0.00    +0.003 C 
ATOM     39  C   UNL     1     -11.273   9.431  69.406  0.00  0.00    -0.002 C 
ATOM     40  C   UNL     1     -10.817   9.422  70.797  0.00  0.00    -0.000 C 
ATOM     41  C   UNL     1     -11.857   9.516  71.633  0.00  0.00    -0.000 C 
ATOM     42  C   UNL     1     -11.996   8.323  72.478  0.00  0.00    -0.000 C 
ATOM     43  C   UNL     1     -12.139   7.180  71.822  0.00  0.00    -0.000 C 
ATOM     44  C   UNL     1     -11.713   5.966  72.491  0.00  0.00    -0.005 C 
ATOM     45  C   UNL     1     -10.555   5.950  73.117  0.00  0.00    -0.026 C 
ATOM     46  C   UNL     1     -10.100   4.711  73.813  0.00  0.00    +0.031 C 
ATOM     47  C   UNL     1     -10.744   3.478  73.241  0.00  0.00    +0.031 C 
ATOM     48  C   UNL     1      -9.782   2.352  73.357  0.00  0.00    -0.026 C 
ATOM     49  C   UNL     1     -10.191   1.103  73.141  0.00  0.00    -0.005 C 
ATOM     50  C   UNL     1     -10.502   0.804  71.741  0.00  0.00    -0.005 C 
ATOM     51  C   UNL     1      -9.816   1.203  70.751  0.00  0.00    -0.024 C 
ENDROOT
BRANCH  33  52
ATOM     52  C   UNL     1      -8.440  12.037  66.426  0.00  0.00    +0.369 C 
ATOM     53  O   UNL     1      -7.545  11.289  67.119  0.00  0.00    -0.245 OA
ATOM     54  O   UNL     1      -8.008  12.891  66.860  0.00  0.00    -0.245 OA
ENDBRANCH  33  52
BRANCH  37  55
ATOM     55  O   UNL     1     -10.177  12.555  69.191  0.00  0.00    -0.327 OA
BRANCH  55  56
ATOM     56  C   UNL     1     -10.790  13.667  68.358  0.00  0.00    +0.268 C 
ATOM     57  C   UNL     1     -11.586  14.233  69.795  0.00  0.00    +0.228 C 
ATOM     58  O   UNL     1     -10.391  14.788  70.499  0.00  0.00    -0.216 OA
ATOM     59  C   UNL     1     -12.127  15.660  69.065  0.00  0.00    +0.160 C 
ATOM     60  N   UNL     1     -12.384  16.315  70.449  0.00  0.00    -0.127 NA
ATOM     61  C   UNL     1     -10.661  16.487  68.936  0.00  0.00    +0.199 C 
ATOM     62  O   UNL     1     -11.285  17.540  68.077  0.00  0.00    -0.219 OA
ATOM     63  C   UNL     1     -10.233  15.602  67.538  0.00  0.00    +0.150 C 
ATOM     64  C   UNL     1      -8.846  16.465  67.383  0.00  0.00    +0.035 C 
ATOM     65  O   UNL     1      -9.581  14.607  68.471  0.00  0.00    -0.328 OA
ENDBRANCH  55  56
ENDBRANCH  37  55
TORSDOF 3
ENDMDL
MODEL 2
REMARK VINA RESULT:      -6.9      3.631      8.410
REMARK  Name = 
REMARK  3 active torsions:
REMARK  status: ('A' for Active; 'I' for Inactive)
REMARK    1  A    between atoms: C_17  and  O_18
REMARK    2  A    between atoms: O_18  and  C_19
REMARK    3  A    between atoms: C_32  and  C_33
REMARK                            x       y       z     vdW  Elec       q    Type
REMARK                         _______ _______ _______ _____ _____    ______ ____
ROOT
ATOM      1  C   UNL     1      -3.159  -0.195  63.904  0.00  0.00    +0.007 C 
ATOM      2  C   UNL     1      -3.921   1.060  64.602  0.00  0.00    +0.053 C 
ATOM      3  C   UNL     1      -4.871   1.345  63.202  0.00  0.00    +0.159 C 
ATOM      4  O   UNL     1      -5.657   2.368  63.976  0.00  0.00    -0.223 OA
ATOM      5  C   UNL     1      -3.757   2.456  62.558  0.00  0.00    +0.071 C 
ATOM      6  C   UNL     1      -3.824   1.711  61.139  0.00  0.00    +0.006 C 
ATOM      7  C   UNL     1      -4.905   3.657  62.170  0.00  0.00    +0.171 C 
ATOM      8  C   UNL     1      -3.973   4.798  62.903  0.00  0.00    +0.047 C 
ATOM      9  O   UNL     1      -4.311   4.015  60.796  0.00  0.00    -0.452 OA
ATOM     10  C   UNL     1      -5.041   5.067  60.251  0.00  0.00    +0.319 C 
ATOM     11  O   UNL     1      -4.985   5.197  59.001  0.00  0.00    -0.250 OA
ATOM     12  C   UNL     1      -5.678   6.138  61.073  0.00  0.00    +0.142 C 
ATOM     13  C   UNL     1      -7.019   6.518  60.181  0.00  0.00    +0.166 C 
ATOM     14  O   UNL     1      -7.959   6.073  61.295  0.00  0.00    -0.222 OA
ATOM     15  C   UNL     1      -7.027   8.095  60.676  0.00  0.00    +0.066 C 
ATOM     16  C   UNL     1      -6.826   7.940  62.305  0.00  0.00    +0.157 C 
ATOM     17  O   UNL     1      -6.079   9.269  62.357  0.00  0.00    -0.223 OA
ATOM     18  C   UNL     1      -8.280   8.675  62.592  0.00  0.00    +0.066 C 
ATOM     19  C   UNL     1      -7.898   9.498  63.975  0.00  0.00    +0.155 C 
ATOM     20  O   UNL     1      -8.222  10.829  63.298  0.00  0.00    -0.223 OA
ATOM     21  C   UNL     1      -9.419   9.259  64.573  0.00  0.00    +0.036 C 
ATOM     22  C   UNL     1     -10.188  10.465  64.513  0.00  0.00    +0.038 C 
ATOM     23  C   UNL     1      -9.523  11.407  65.679  0.00  0.00    +0.183 C 
ATOM     24  O   UNL     1     -10.744  12.303  65.705  0.00  0.00    -0.220 OA
ATOM     25  C   UNL     1     -10.187  10.376  66.897  0.00  0.00    +0.189 C 
ATOM     26  O   UNL     1      -8.802   9.987  67.364  0.00  0.00    -0.220 OA
ATOM     27  C   UNL     1     -10.235  11.647  67.940  0.00  0.00    +0.100 C 
ATOM     28  C   UNL     1     -10.981  10.943  69.028  0.00  0.00    +0.156 C 
ATOM     29  O   UNL     1     -12.170  11.017  68.942  0.00  0.00    -0.296 OA
ATOM     30  C   UNL     1     -10.154   9.853  69.571  0.00  0.00    +0.098 C 
ATOM     31  C   UNL     1     -10.960   9.600  70.971  0.00  0.00    +0.172 C 
ATOM     32  O   UNL     1     -12.203   9.138  70.233  0.00  0.00    -0.222 OA
ATOM     33  C   UNL     1     -10.341   8.000  71.116  0.00  0.00    +0.164 C 
ATOM     34  C   UNL     1     -11.785   7.636  71.968  0.00  0.00    +0.168 C 
ATOM     35  O   UNL     1     -12.248   6.767  70.792  0.00  0.00    -0.222 OA
ATOM     36  C   UNL     1     -11.332   6.321  72.764  0.00  0.00    +0.068 C 
ATOM     37  C   UNL     1      -9.788   5.901  72.626  0.00  0.00    +0.142 C 
ATOM     38  C   UNL     1     -10.202   4.320  72.450  0.00  0.00    +0.003 C 
ATOM     39  C   UNL     1      -9.425   3.735  71.602  0.00  0.00    -0.002 C 
ATOM     40  C   UNL     1      -8.343   3.047  72.308  0.00  0.00    -0.000 C 
ATOM     41  C   UNL     1      -8.781   1.898  72.833  0.00  0.00    -0.000 C 
ATOM     42  C   UNL     1      -8.103   0.731  72.250  0.00  0.00    -0.000 C 
ATOM     43  C   UNL     1      -8.212   0.614  70.934  0.00  0.00    -0.000 C 
ATOM     44  C   UNL     1      -7.162  -0.105  70.237  0.00  0.00    -0.005 C 
ATOM     45  C   UNL     1      -5.906   0.146  70.535  0.00  0.00    -0.026 C 
ATOM     46  C   UNL     1      -4.812  -0.585  69.830  0.00  0.00    +0.031 C 
ATOM     47  C   UNL     1      -5.254  -1.095  68.485  0.00  0.00    +0.031 C 
ATOM     48  C   UNL     1      -4.083  -1.079  67.572  0.00  0.00    -0.026 C 
ATOM     49  C   UNL     1      -4.149  -1.700  66.396  0.00  0.00    -0.005 C 
ATOM     50  C   UNL     1      -5.027  -1.051  65.418  0.00  0.00    -0.005 C 
ATOM     51  C   UNL     1      -5.101   0.203  65.240  0.00  0.00    -0.024 C 
ENDROOT
BRANCH  33  52
ATOM     52  C   UNL     1      -9.449   8.557  72.259  0.00  0.00    +0.369 C 
ATOM     53  O   UNL     1      -8.167   8.629  71.819  0.00  0.00    -0.245 OA
ATOM     54  O   UNL     1      -9.095   8.790  73.221  0.00  0.00    -0.245 OA
ENDBRANCH  33  52
BRANCH  37  55
ATOM     55  O   UNL     1      -9.587   5.851  74.151  0.00  0.00    -0.327 OA
BRANCH  55  56
ATOM     56  C   UNL     1      -8.093   5.615  74.287  0.00  0.00    +0.268 C 
ATOM     57  C   UNL     1      -8.018   7.012  75.316  0.00  0.00    +0.228 C 
ATOM     58  O   UNL     1      -8.689   6.430  76.518  0.00  0.00    -0.216 OA
ATOM     59  C   UNL     1      -6.413   6.730  75.769  0.00  0.00    +0.160 C 
ATOM     60  N   UNL     1      -6.556   7.664  77.000  0.00  0.00    -0.127 NA
ATOM     61  C   UNL     1      -6.630   5.379  76.758  0.00  0.00    +0.199 C 
ATOM     62  O   UNL     1      -5.155   5.146  76.831  0.00  0.00    -0.219 OA
ATOM     63  C   UNL     1      -6.726   4.344  75.402  0.00  0.00    +0.150 C 
ATOM     64  C   UNL     1      -6.862   3.032  76.378  0.00  0.00    +0.035 C 
ATOM     65  O   UNL     1      -8.217   4.591  75.424  0.00  0.00    -0.328 OA
ENDBRANCH  55  56
ENDBRANCH  37  55
TORSDOF 3
ENDMDL
MODEL 3
REMARK VINA RESULT:      -6.5      3.631      8.460
REMARK  Name = 
REMARK  3 active torsions:
REMARK  status: ('A' for Active; 'I' for Inactive)
REMARK    1  A    between atoms: C_17  and  O_18
REMARK    2  A    between atoms: O_18  and  C_19
REMARK    3  A    between atoms: C_32  and  C_33
REMARK                            x       y       z     vdW  Elec       q    Type
REMARK                         _______ _______ _______ _____ _____    ______ ____
ROOT
ATOM      1  C   UNL     1     -10.942   7.687  72.722  0.00  0.00    +0.007 C 
ATOM      2  C   UNL     1     -10.237   7.228  71.331  0.00  0.00    +0.053 C 
ATOM      3  C   UNL     1     -11.094   5.742  71.312  0.00  0.00    +0.159 C 
ATOM      4  O   UNL     1     -10.544   5.473  69.939  0.00  0.00    -0.223 OA
ATOM      5  C   UNL     1      -9.862   4.914  72.141  0.00  0.00    +0.071 C 
ATOM      6  C   UNL     1     -10.947   4.290  73.145  0.00  0.00    +0.006 C 
ATOM      7  C   UNL     1      -9.813   3.569  71.092  0.00  0.00    +0.171 C 
ATOM      8  C   UNL     1      -8.175   3.694  70.995  0.00  0.00    +0.047 C 
ATOM      9  O   UNL     1      -9.692   2.504  72.196  0.00  0.00    -0.452 OA
ATOM     10  C   UNL     1      -9.559   1.252  71.601  0.00  0.00    +0.319 C 
ATOM     11  O   UNL     1      -9.879   0.261  72.306  0.00  0.00    -0.250 OA
ATOM     12  C   UNL     1      -8.870   1.033  70.296  0.00  0.00    +0.142 C 
ATOM     13  C   UNL     1      -9.707  -0.247  69.663  0.00  0.00    +0.166 C 
ATOM     14  O   UNL     1     -10.187   0.579  68.475  0.00  0.00    -0.222 OA
ATOM     15  C   UNL     1      -8.396  -0.833  68.846  0.00  0.00    +0.066 C 
ATOM     16  C   UNL     1      -7.807   0.530  68.128  0.00  0.00    +0.157 C 
ATOM     17  O   UNL     1      -6.385  -0.019  68.213  0.00  0.00    -0.223 OA
ATOM     18  C   UNL     1      -8.034  -0.120  66.623  0.00  0.00    +0.066 C 
ATOM     19  C   UNL     1      -6.719   0.520  65.851  0.00  0.00    +0.155 C 
ATOM     20  O   UNL     1      -6.191  -0.880  65.542  0.00  0.00    -0.223 OA
ATOM     21  C   UNL     1      -7.579   0.670  64.449  0.00  0.00    +0.036 C 
ATOM     22  C   UNL     1      -7.184  -0.324  63.498  0.00  0.00    +0.038 C 
ATOM     23  C   UNL     1      -5.693   0.165  63.021  0.00  0.00    +0.183 C 
ATOM     24  O   UNL     1      -5.759  -0.708  61.786  0.00  0.00    -0.220 OA
ATOM     25  C   UNL     1      -6.396   1.501  62.180  0.00  0.00    +0.189 C 
ATOM     26  O   UNL     1      -5.690   2.483  63.089  0.00  0.00    -0.220 OA
ATOM     27  C   UNL     1      -5.134   1.495  61.125  0.00  0.00    +0.100 C 
ATOM     28  C   UNL     1      -5.695   2.514  60.185  0.00  0.00    +0.156 C 
ATOM     29  O   UNL     1      -6.377   2.062  59.314  0.00  0.00    -0.296 OA
ATOM     30  C   UNL     1      -5.800   3.814  60.867  0.00  0.00    +0.098 C 
ATOM     31  C   UNL     1      -5.959   4.775  59.554  0.00  0.00    +0.172 C 
ATOM     32  O   UNL     1      -7.293   4.146  59.191  0.00  0.00    -0.222 OA
ATOM     33  C   UNL     1      -6.697   6.026  60.477  0.00  0.00    +0.164 C 
ATOM     34  C   UNL     1      -7.511   6.463  59.030  0.00  0.00    +0.168 C 
ATOM     35  O   UNL     1      -8.832   5.980  59.640  0.00  0.00    -0.222 OA
ATOM     36  C   UNL     1      -7.907   7.979  59.364  0.00  0.00    +0.068 C 
ATOM     37  C   UNL     1      -7.346   8.576  60.745  0.00  0.00    +0.142 C 
ATOM     38  C   UNL     1      -8.797   9.281  61.066  0.00  0.00    +0.003 C 
ATOM     39  C   UNL     1      -9.062   9.227  62.328  0.00  0.00    -0.002 C 
ATOM     40  C   UNL     1      -8.667  10.479  62.974  0.00  0.00    -0.000 C 
ATOM     41  C   UNL     1      -9.569  11.437  62.735  0.00  0.00    -0.000 C 
ATOM     42  C   UNL     1     -10.218  11.904  63.968  0.00  0.00    -0.000 C 
ATOM     43  C   UNL     1     -10.838  10.965  64.670  0.00  0.00    -0.000 C 
ATOM     44  C   UNL     1     -10.985  11.184  66.096  0.00  0.00    -0.005 C 
ATOM     45  C   UNL     1      -9.953  11.616  66.789  0.00  0.00    -0.026 C 
ATOM     46  C   UNL     1     -10.086  11.849  68.257  0.00  0.00    +0.031 C 
ATOM     47  C   UNL     1     -11.196  11.030  68.857  0.00  0.00    +0.031 C 
ATOM     48  C   UNL     1     -10.818  10.680  70.250  0.00  0.00    -0.026 C 
ATOM     49  C   UNL     1     -11.726  10.162  71.075  0.00  0.00    -0.005 C 
ATOM     50  C   UNL     1     -12.126   8.791  70.749  0.00  0.00    -0.005 C 
ATOM     51  C   UNL     1     -11.327   7.880  70.371  0.00  0.00    -0.024 C 
ENDROOT
BRANCH  33  52
ATOM     52  C   UNL     1      -5.358   6.796  60.313  0.00  0.00    +0.369 C 
ATOM     53  O   UNL     1      -4.773   6.922  61.531  0.00  0.00    -0.245 OA
ATOM     54  O   UNL     1      -4.624   7.445  59.933  0.00  0.00    -0.245 OA
ENDBRANCH  33  52
BRANCH  37  55
ATOM     55  O   UNL     1      -6.719   9.797  60.050  0.00  0.00    -0.327 OA
BRANCH  55  56
ATOM     56  C   UNL     1      -5.321   9.842  60.643  0.00  0.00    +0.268 C 
ATOM     57  C   UNL     1      -5.081  11.358  59.832  0.00  0.00    +0.228 C 
ATOM     58  O   UNL     1      -5.972  12.202  60.684  0.00  0.00    -0.216 OA
ATOM     59  C   UNL     1      -3.617  11.673  60.617  0.00  0.00    +0.160 C 
ATOM     60  N   UNL     1      -3.699  13.179  60.250  0.00  0.00    -0.127 NA
ATOM     61  C   UNL     1      -4.192  12.010  62.168  0.00  0.00    +0.199 C 
ATOM     62  O   UNL     1      -2.806  11.998  62.728  0.00  0.00    -0.219 OA
ATOM     63  C   UNL     1      -4.349  10.345  62.521  0.00  0.00    +0.150 C 
ATOM     64  C   UNL     1      -4.837  10.687  64.050  0.00  0.00    +0.035 C 
ATOM     65  O   UNL     1      -5.758  10.450  61.983  0.00  0.00    -0.328 OA
ENDBRANCH  55  56
ENDBRANCH  37  55
TORSDOF 3
ENDMDL
MODEL 4
REMARK VINA RESULT:      -6.5      3.650     11.136
REMARK  Name = 
REMARK  3 active torsions:
REMARK  status: ('A' for Active; 'I' for Inactive)
REMARK    1  A    between atoms: C_17  and  O_18
REMARK    2  A    between atoms: O_18  and  C_19
REMARK    3  A    between atoms: C_32  and  C_33
REMARK                            x       y       z     vdW  Elec       q    Type
REMARK                         _______ _______ _______ _____ _____    ______ ____
ROOT
ATOM      1  C   UNL     1     -11.931  12.470  66.817  0.00  0.00    +0.007 C 
ATOM      2  C   UNL     1     -11.079  11.085  66.844  0.00  0.00    +0.053 C 
ATOM      3  C   UNL     1      -9.719  11.832  66.112  0.00  0.00    +0.159 C 
ATOM      4  O   UNL     1      -8.936  10.569  66.342  0.00  0.00    -0.223 OA
ATOM      5  C   UNL     1     -10.222  11.424  64.541  0.00  0.00    +0.071 C 
ATOM      6  C   UNL     1      -9.958  12.930  64.057  0.00  0.00    +0.006 C 
ATOM      7  C   UNL     1      -8.714  10.816  64.022  0.00  0.00    +0.171 C 
ATOM      8  C   UNL     1      -9.449   9.463  63.443  0.00  0.00    +0.047 C 
ATOM      9  O   UNL     1      -8.747  11.464  62.627  0.00  0.00    -0.452 OA
ATOM     10  C   UNL     1      -7.617  11.065  61.919  0.00  0.00    +0.319 C 
ATOM     11  O   UNL     1      -7.261  11.808  60.969  0.00  0.00    -0.250 OA
ATOM     12  C   UNL     1      -6.969   9.731  62.091  0.00  0.00    +0.142 C 
ATOM     13  C   UNL     1      -5.374  10.073  61.808  0.00  0.00    +0.166 C 
ATOM     14  O   UNL     1      -4.976   9.670  63.222  0.00  0.00    -0.222 OA
ATOM     15  C   UNL     1      -5.057   8.573  61.190  0.00  0.00    +0.066 C 
ATOM     16  C   UNL     1      -5.765   7.589  62.307  0.00  0.00    +0.157 C 
ATOM     17  O   UNL     1      -6.076   6.557  61.227  0.00  0.00    -0.223 OA
ATOM     18  C   UNL     1      -4.314   6.877  62.656  0.00  0.00    +0.066 C 
ATOM     19  C   UNL     1      -4.831   5.332  62.938  0.00  0.00    +0.155 C 
ATOM     20  O   UNL     1      -3.951   4.808  61.804  0.00  0.00    -0.223 OA
ATOM     21  C   UNL     1      -3.691   5.133  64.117  0.00  0.00    +0.036 C 
ATOM     22  C   UNL     1      -2.625   4.295  63.662  0.00  0.00    +0.038 C 
ATOM     23  C   UNL     1      -3.301   2.802  63.607  0.00  0.00    +0.183 C 
ATOM     24  O   UNL     1      -1.938   2.143  63.585  0.00  0.00    -0.220 OA
ATOM     25  C   UNL     1      -3.355   2.758  65.334  0.00  0.00    +0.189 C 
ATOM     26  O   UNL     1      -4.866   2.707  65.316  0.00  0.00    -0.220 OA
ATOM     27  C   UNL     1      -3.250   1.116  65.291  0.00  0.00    +0.100 C 
ATOM     28  C   UNL     1      -3.096   0.919  66.765  0.00  0.00    +0.156 C 
ATOM     29  O   UNL     1      -1.966   0.943  67.153  0.00  0.00    -0.296 OA
ATOM     30  C   UNL     1      -4.325   1.346  67.454  0.00  0.00    +0.098 C 
ATOM     31  C   UNL     1      -4.077   0.607  68.891  0.00  0.00    +0.172 C 
ATOM     32  O   UNL     1      -2.861   1.466  69.183  0.00  0.00    -0.222 OA
ATOM     33  C   UNL     1      -5.146   1.682  69.704  0.00  0.00    +0.164 C 
ATOM     34  C   UNL     1      -4.188   1.404  71.101  0.00  0.00    +0.168 C 
ATOM     35  O   UNL     1      -3.672   2.846  71.020  0.00  0.00    -0.222 OA
ATOM     36  C   UNL     1      -5.217   1.834  72.252  0.00  0.00    +0.068 C 
ATOM     37  C   UNL     1      -6.703   2.211  71.775  0.00  0.00    +0.142 C 
ATOM     38  C   UNL     1      -6.732   3.507  72.787  0.00  0.00    +0.003 C 
ATOM     39  C   UNL     1      -7.359   4.497  72.245  0.00  0.00    -0.002 C 
ATOM     40  C   UNL     1      -8.751   4.512  72.695  0.00  0.00    -0.000 C 
ATOM     41  C   UNL     1      -8.840   5.017  73.930  0.00  0.00    -0.000 C 
ATOM     42  C   UNL     1      -9.623   6.260  73.963  0.00  0.00    -0.000 C 
ATOM     43  C   UNL     1      -9.170   7.234  73.185  0.00  0.00    -0.000 C 
ATOM     44  C   UNL     1     -10.127   8.216  72.715  0.00  0.00    -0.005 C 
ATOM     45  C   UNL     1     -11.287   7.808  72.246  0.00  0.00    -0.026 C 
ATOM     46  C   UNL     1     -12.287   8.804  71.759  0.00  0.00    +0.031 C 
ATOM     47  C   UNL     1     -11.635  10.093  71.339  0.00  0.00    +0.031 C 
ATOM     48  C   UNL     1     -12.427  10.675  70.225  0.00  0.00    -0.026 C 
ATOM     49  C   UNL     1     -12.200  11.927  69.831  0.00  0.00    -0.005 C 
ATOM     50  C   UNL     1     -10.925  12.119  69.136  0.00  0.00    -0.005 C 
ATOM     51  C   UNL     1     -10.441  11.312  68.284  0.00  0.00    -0.024 C 
ENDROOT
BRANCH  33  52
ATOM     52  C   UNL     1      -6.134   0.486  69.774  0.00  0.00    +0.369 C 
ATOM     53  O   UNL     1      -7.267   0.813  69.102  0.00  0.00    -0.245 OA
ATOM     54  O   UNL     1      -6.627  -0.379  70.111  0.00  0.00    -0.245 OA
ENDBRANCH  33  52
BRANCH  37  55
ATOM     55  O   UNL     1      -7.350   1.219  72.759  0.00  0.00    -0.327 OA
BRANCH  55  56
ATOM     56  C   UNL     1      -8.725   0.994  72.154  0.00  0.00    +0.268 C 
ATOM     57  C   UNL     1      -8.712  -0.599  72.847  0.00  0.00    +0.228 C 
ATOM     58  O   UNL     1      -8.894  -0.213  74.278  0.00  0.00    -0.216 OA
ATOM     59  C   UNL     1     -10.332  -0.899  72.464  0.00  0.00    +0.160 C 
ATOM     60  N   UNL     1     -10.399  -2.062  73.489  0.00  0.00    -0.127 NA
ATOM     61  C   UNL     1     -11.082   0.131  73.571  0.00  0.00    +0.199 C 
ATOM     62  O   UNL     1     -12.413  -0.074  72.921  0.00  0.00    -0.219 OA
ATOM     63  C   UNL     1     -10.802   1.487  72.568  0.00  0.00    +0.150 C 
ATOM     64  C   UNL     1     -11.598   2.464  73.619  0.00  0.00    +0.035 C 
ATOM     65  O   UNL     1      -9.494   1.657  73.306  0.00  0.00    -0.328 OA
ENDBRANCH  55  56
ENDBRANCH  37  55
TORSDOF 3
ENDMDL
MODEL 5
REMARK VINA RESULT:      -6.2      3.125     11.378
REMARK  Name = 
REMARK  3 active torsions:
REMARK  status: ('A' for Active; 'I' for Inactive)
REMARK    1  A    between atoms: C_17  and  O_18
REMARK    2  A    between atoms: O_18  and  C_19
REMARK    3  A    between atoms: C_32  and  C_33
REMARK                            x       y       z     vdW  Elec       q    Type
REMARK                         _______ _______ _______ _____ _____    ______ ____
ROOT
ATOM      1  C   UNL     1     -11.846  12.796  67.205  0.00  0.00    +0.007 C 
ATOM      2  C   UNL     1     -11.308  11.268  67.063  0.00  0.00    +0.053 C 
ATOM      3  C   UNL     1      -9.817  11.787  66.391  0.00  0.00    +0.159 C 
ATOM      4  O   UNL     1      -9.321  10.369  66.466  0.00  0.00    -0.223 OA
ATOM      5  C   UNL     1     -10.388  11.671  64.795  0.00  0.00    +0.071 C 
ATOM      6  C   UNL     1      -9.809  13.132  64.473  0.00  0.00    +0.006 C 
ATOM      7  C   UNL     1      -9.042  10.820  64.183  0.00  0.00    +0.171 C 
ATOM      8  C   UNL     1     -10.045   9.725  63.474  0.00  0.00    +0.047 C 
ATOM      9  O   UNL     1      -8.931  11.610  62.868  0.00  0.00    -0.452 OA
ATOM     10  C   UNL     1      -7.908  11.063  62.099  0.00  0.00    +0.319 C 
ATOM     11  O   UNL     1      -7.399  11.814  61.229  0.00  0.00    -0.250 OA
ATOM     12  C   UNL     1      -7.559   9.611  62.111  0.00  0.00    +0.142 C 
ATOM     13  C   UNL     1      -5.927   9.637  61.836  0.00  0.00    +0.166 C 
ATOM     14  O   UNL     1      -5.629   9.005  63.190  0.00  0.00    -0.222 OA
ATOM     15  C   UNL     1      -5.933   8.183  61.052  0.00  0.00    +0.066 C 
ATOM     16  C   UNL     1      -6.839   7.253  62.069  0.00  0.00    +0.157 C 
ATOM     17  O   UNL     1      -7.357   6.436  60.888  0.00  0.00    -0.223 OA
ATOM     18  C   UNL     1      -5.573   6.216  62.309  0.00  0.00    +0.066 C 
ATOM     19  C   UNL     1      -6.407   4.794  62.430  0.00  0.00    +0.155 C 
ATOM     20  O   UNL     1      -5.654   4.224  61.229  0.00  0.00    -0.223 OA
ATOM     21  C   UNL     1      -5.341   4.229  63.558  0.00  0.00    +0.036 C 
ATOM     22  C   UNL     1      -4.475   3.239  62.994  0.00  0.00    +0.038 C 
ATOM     23  C   UNL     1      -5.452   1.939  62.789  0.00  0.00    +0.183 C 
ATOM     24  O   UNL     1      -4.260   1.013  62.668  0.00  0.00    -0.220 OA
ATOM     25  C   UNL     1      -5.521   1.716  64.501  0.00  0.00    +0.189 C 
ATOM     26  O   UNL     1      -7.009   1.989  64.508  0.00  0.00    -0.220 OA
ATOM     27  C   UNL     1      -5.767   0.105  64.277  0.00  0.00    +0.100 C 
ATOM     28  C   UNL     1      -5.665  -0.283  65.718  0.00  0.00    +0.156 C 
ATOM     29  O   UNL     1      -4.557  -0.542  66.084  0.00  0.00    -0.296 OA
ATOM     30  C   UNL     1      -6.777   0.315  66.474  0.00  0.00    +0.098 C 
ATOM     31  C   UNL     1      -6.698  -0.615  67.816  0.00  0.00    +0.172 C 
ATOM     32  O   UNL     1      -5.328  -0.070  68.177  0.00  0.00    -0.222 OA
ATOM     33  C   UNL     1      -7.518   0.566  68.762  0.00  0.00    +0.164 C 
ATOM     34  C   UNL     1      -6.646  -0.062  70.101  0.00  0.00    +0.168 C 
ATOM     35  O   UNL     1      -5.835   1.237  70.168  0.00  0.00    -0.222 OA
ATOM     36  C   UNL     1      -7.565   0.445  71.312  0.00  0.00    +0.068 C 
ATOM     37  C   UNL     1      -8.936   1.178  70.909  0.00  0.00    +0.142 C 
ATOM     38  C   UNL     1      -8.693   2.330  72.057  0.00  0.00    +0.003 C 
ATOM     39  C   UNL     1      -9.093   3.484  71.638  0.00  0.00    -0.002 C 
ATOM     40  C   UNL     1     -10.452   3.744  72.115  0.00  0.00    -0.000 C 
ATOM     41  C   UNL     1     -10.437   4.116  73.399  0.00  0.00    -0.000 C 
ATOM     42  C   UNL     1     -10.938   5.485  73.582  0.00  0.00    -0.000 C 
ATOM     43  C   UNL     1     -10.285   6.421  72.908  0.00  0.00    -0.000 C 
ATOM     44  C   UNL     1     -11.011   7.629  72.566  0.00  0.00    -0.005 C 
ATOM     45  C   UNL     1     -12.229   7.530  72.078  0.00  0.00    -0.026 C 
ATOM     46  C   UNL     1     -12.992   8.763  71.723  0.00  0.00    +0.031 C 
ATOM     47  C   UNL     1     -12.080   9.924  71.433  0.00  0.00    +0.031 C 
ATOM     48  C   UNL     1     -12.726  10.780  70.405  0.00  0.00    -0.026 C 
ATOM     49  C   UNL     1     -12.236  11.991  70.146  0.00  0.00    -0.005 C 
ATOM     50  C   UNL     1     -10.947  11.985  69.451  0.00  0.00    -0.005 C 
ATOM     51  C   UNL     1     -10.642  11.193  68.507  0.00  0.00    -0.024 C 
ENDROOT
BRANCH  33  52
ATOM     52  C   UNL     1      -8.737  -0.395  68.720  0.00  0.00    +0.369 C 
ATOM     53  O   UNL     1      -9.787   0.253  68.153  0.00  0.00    -0.245 OA
ATOM     54  O   UNL     1      -9.397  -1.176  68.963  0.00  0.00    -0.245 OA
ENDBRANCH  33  52
BRANCH  37  55
ATOM     55  O   UNL     1      -9.783   0.243  71.791  0.00  0.00    -0.327 OA
BRANCH  55  56
ATOM     56  C   UNL     1      -9.231   0.501  73.182  0.00  0.00    +0.268 C 
ATOM     57  C   UNL     1     -10.853   0.379  73.792  0.00  0.00    +0.228 C 
ATOM     58  O   UNL     1     -11.033  -1.095  73.632  0.00  0.00    -0.216 OA
ATOM     59  C   UNL     1     -10.364   0.394  75.411  0.00  0.00    +0.160 C 
ATOM     60  N   UNL     1     -11.728  -0.188  75.868  0.00  0.00    -0.127 NA
ATOM     61  C   UNL     1      -9.666  -1.140  75.511  0.00  0.00    +0.199 C 
ATOM     62  O   UNL     1      -9.095  -0.836  76.859  0.00  0.00    -0.219 OA
ATOM     63  C   UNL     1      -8.226  -0.583  74.777  0.00  0.00    +0.150 C 
ATOM     64  C   UNL     1      -7.534  -2.061  74.948  0.00  0.00    +0.035 C 
ATOM     65  O   UNL     1      -8.853  -0.962  73.454  0.00  0.00    -0.328 OA
ENDBRANCH  55  56
ENDBRANCH  37  55
TORSDOF 3
ENDMDL
MODEL 6
REMARK VINA RESULT:      -5.9      3.876     11.027
REMARK  Name = 
REMARK  3 active torsions:
REMARK  status: ('A' for Active; 'I' for Inactive)
REMARK    1  A    between atoms: C_17  and  O_18
REMARK    2  A    between atoms: O_18  and  C_19
REMARK    3  A    between atoms: C_32  and  C_33
REMARK                            x       y       z     vdW  Elec       q    Type
REMARK                         _______ _______ _______ _____ _____    ______ ____
ROOT
ATOM      1  C   UNL     1     -10.533  11.525  64.556  0.00  0.00    +0.007 C 
ATOM      2  C   UNL     1      -9.855  10.102  64.953  0.00  0.00    +0.053 C 
ATOM      3  C   UNL     1      -8.431  10.460  64.065  0.00  0.00    +0.159 C 
ATOM      4  O   UNL     1      -7.802   9.214  64.625  0.00  0.00    -0.223 OA
ATOM      5  C   UNL     1      -9.014   9.721  62.650  0.00  0.00    +0.071 C 
ATOM      6  C   UNL     1      -8.581  11.005  61.792  0.00  0.00    +0.006 C 
ATOM      7  C   UNL     1      -7.603   8.819  62.324  0.00  0.00    +0.171 C 
ATOM      8  C   UNL     1      -8.509   7.462  62.110  0.00  0.00    +0.047 C 
ATOM      9  O   UNL     1      -7.588   9.080  60.807  0.00  0.00    -0.452 OA
ATOM     10  C   UNL     1      -6.530   8.375  60.240  0.00  0.00    +0.319 C 
ATOM     11  O   UNL     1      -6.108   8.795  59.133  0.00  0.00    -0.250 OA
ATOM     12  C   UNL     1      -6.045   7.063  60.761  0.00  0.00    +0.142 C 
ATOM     13  C   UNL     1      -4.427   7.120  60.415  0.00  0.00    +0.166 C 
ATOM     14  O   UNL     1      -4.050   7.054  61.890  0.00  0.00    -0.222 OA
ATOM     15  C   UNL     1      -4.307   5.485  60.214  0.00  0.00    +0.066 C 
ATOM     16  C   UNL     1      -5.105   4.920  61.542  0.00  0.00    +0.157 C 
ATOM     17  O   UNL     1      -5.563   3.689  60.765  0.00  0.00    -0.223 OA
ATOM     18  C   UNL     1      -3.743   4.151  62.080  0.00  0.00    +0.066 C 
ATOM     19  C   UNL     1      -4.437   2.808  62.749  0.00  0.00    +0.155 C 
ATOM     20  O   UNL     1      -3.653   1.903  61.801  0.00  0.00    -0.223 OA
ATOM     21  C   UNL     1      -3.304   2.785  63.951  0.00  0.00    +0.036 C 
ATOM     22  C   UNL     1      -2.358   1.733  63.742  0.00  0.00    +0.038 C 
ATOM     23  C   UNL     1      -3.210   0.371  64.072  0.00  0.00    +0.183 C 
ATOM     24  O   UNL     1      -1.938  -0.432  64.237  0.00  0.00    -0.220 OA
ATOM     25  C   UNL     1      -3.231   0.786  65.750  0.00  0.00    +0.189 C 
ATOM     26  O   UNL     1      -4.738   0.918  65.730  0.00  0.00    -0.220 OA
ATOM     27  C   UNL     1      -3.327  -0.810  66.138  0.00  0.00    +0.100 C 
ATOM     28  C   UNL     1      -3.165  -0.634  67.614  0.00  0.00    +0.156 C 
ATOM     29  O   UNL     1      -2.032  -0.648  67.994  0.00  0.00    -0.296 OA
ATOM     30  C   UNL     1      -4.317   0.106  68.155  0.00  0.00    +0.098 C 
ATOM     31  C   UNL     1      -4.129  -0.259  69.738  0.00  0.00    +0.172 C 
ATOM     32  O   UNL     1      -2.812   0.491  69.808  0.00  0.00    -0.222 OA
ATOM     33  C   UNL     1      -5.042   1.114  70.231  0.00  0.00    +0.164 C 
ATOM     34  C   UNL     1      -4.094   1.094  71.661  0.00  0.00    +0.168 C 
ATOM     35  O   UNL     1      -3.409   2.390  71.212  0.00  0.00    -0.222 OA
ATOM     36  C   UNL     1      -5.037   1.931  72.649  0.00  0.00    +0.068 C 
ATOM     37  C   UNL     1      -6.478   2.350  72.076  0.00  0.00    +0.142 C 
ATOM     38  C   UNL     1      -6.327   3.859  72.713  0.00  0.00    +0.003 C 
ATOM     39  C   UNL     1      -6.841   4.742  71.925  0.00  0.00    -0.002 C 
ATOM     40  C   UNL     1      -8.211   5.045  72.342  0.00  0.00    -0.000 C 
ATOM     41  C   UNL     1      -8.211   5.862  73.400  0.00  0.00    -0.000 C 
ATOM     42  C   UNL     1      -8.836   7.156  73.099  0.00  0.00    -0.000 C 
ATOM     43  C   UNL     1      -8.286   7.831  72.099  0.00  0.00    -0.000 C 
ATOM     44  C   UNL     1      -9.128   8.766  71.379  0.00  0.00    -0.005 C 
ATOM     45  C   UNL     1     -10.339   8.395  71.021  0.00  0.00    -0.026 C 
ATOM     46  C   UNL     1     -11.221   9.345  70.281  0.00  0.00    +0.031 C 
ATOM     47  C   UNL     1     -10.427  10.390  69.544  0.00  0.00    +0.031 C 
ATOM     48  C   UNL     1     -11.168  10.755  68.310  0.00  0.00    -0.026 C 
ATOM     49  C   UNL     1     -10.799  11.823  67.605  0.00  0.00    -0.005 C 
ATOM     50  C   UNL     1      -9.526  11.669  66.897  0.00  0.00    -0.005 C 
ATOM     51  C   UNL     1      -9.163  10.615  66.291  0.00  0.00    -0.024 C 
ENDROOT
BRANCH  33  52
ATOM     52  C   UNL     1      -6.166   0.108  70.600  0.00  0.00    +0.369 C 
ATOM     53  O   UNL     1      -7.260   0.375  69.844  0.00  0.00    -0.245 OA
ATOM     54  O   UNL     1      -6.754  -0.570  71.148  0.00  0.00    -0.245 OA
ENDBRANCH  33  52
BRANCH  37  55
ATOM     55  O   UNL     1      -7.218   1.737  73.277  0.00  0.00    -0.327 OA
BRANCH  55  56
ATOM     56  C   UNL     1      -8.608   1.481  72.722  0.00  0.00    +0.268 C 
ATOM     57  C   UNL     1      -8.759   0.164  73.843  0.00  0.00    +0.228 C 
ATOM     58  O   UNL     1      -8.901   0.963  75.097  0.00  0.00    -0.216 OA
ATOM     59  C   UNL     1     -10.400  -0.075  73.514  0.00  0.00    +0.160 C 
ATOM     60  N   UNL     1     -10.586  -0.879  74.828  0.00  0.00    -0.127 NA
ATOM     61  C   UNL     1     -11.042   1.300  74.255  0.00  0.00    +0.199 C 
ATOM     62  O   UNL     1     -12.386   1.047  73.652  0.00  0.00    -0.219 OA
ATOM     63  C   UNL     1     -10.624   2.273  72.913  0.00  0.00    +0.150 C 
ATOM     64  C   UNL     1     -11.317   3.585  73.614  0.00  0.00    +0.035 C 
ATOM     65  O   UNL     1      -9.306   2.521  73.610  0.00  0.00    -0.328 OA
ENDBRANCH  55  56
ENDBRANCH  37  55
TORSDOF 3
ENDMDL
MODEL 7
REMARK VINA RESULT:      -5.6      4.302     10.762
REMARK  Name = 
REMARK  3 active torsions:
REMARK  status: ('A' for Active; 'I' for Inactive)
REMARK    1  A    between atoms: C_17  and  O_18
REMARK    2  A    between atoms: O_18  and  C_19
REMARK    3  A    between atoms: C_32  and  C_33
REMARK                            x       y       z     vdW  Elec       q    Type
REMARK                         _______ _______ _______ _____ _____    ______ ____
ROOT
ATOM      1  C   UNL     1     -10.937   2.037  74.204  0.00  0.00    +0.007 C 
ATOM      2  C   UNL     1     -10.589   2.643  72.736  0.00  0.00    +0.053 C 
ATOM      3  C   UNL     1      -9.159   3.394  73.315  0.00  0.00    +0.159 C 
ATOM      4  O   UNL     1      -8.811   3.761  71.899  0.00  0.00    -0.223 OA
ATOM      5  C   UNL     1      -9.955   4.855  73.665  0.00  0.00    +0.071 C 
ATOM      6  C   UNL     1      -9.274   4.887  75.117  0.00  0.00    +0.006 C 
ATOM      7  C   UNL     1      -8.805   5.870  72.919  0.00  0.00    +0.171 C 
ATOM      8  C   UNL     1     -10.006   6.661  72.121  0.00  0.00    +0.047 C 
ATOM      9  O   UNL     1      -8.793   6.944  74.021  0.00  0.00    -0.452 OA
ATOM     10  C   UNL     1      -7.951   7.980  73.630  0.00  0.00    +0.319 C 
ATOM     11  O   UNL     1      -7.490   8.703  74.551  0.00  0.00    -0.250 OA
ATOM     12  C   UNL     1      -7.759   8.391  72.208  0.00  0.00    +0.142 C 
ATOM     13  C   UNL     1      -6.187   8.910  72.198  0.00  0.00    +0.166 C 
ATOM     14  O   UNL     1      -5.774   7.826  71.210  0.00  0.00    -0.222 OA
ATOM     15  C   UNL     1      -6.456  10.024  71.007  0.00  0.00    +0.066 C 
ATOM     16  C   UNL     1      -7.306   9.142  69.903  0.00  0.00    +0.157 C 
ATOM     17  O   UNL     1      -8.067  10.391  69.465  0.00  0.00    -0.223 OA
ATOM     18  C   UNL     1      -6.136   9.378  68.758  0.00  0.00    +0.066 C 
ATOM     19  C   UNL     1      -7.092   9.487  67.413  0.00  0.00    +0.155 C 
ATOM     20  O   UNL     1      -6.577  10.898  67.134  0.00  0.00    -0.223 OA
ATOM     21  C   UNL     1      -5.946   8.725  66.500  0.00  0.00    +0.036 C 
ATOM     22  C   UNL     1      -5.276   9.653  65.641  0.00  0.00    +0.038 C 
ATOM     23  C   UNL     1      -6.405  10.018  64.508  0.00  0.00    +0.183 C 
ATOM     24  O   UNL     1      -5.346  10.559  63.571  0.00  0.00    -0.220 OA
ATOM     25  C   UNL     1      -6.259   8.430  63.844  0.00  0.00    +0.189 C 
ATOM     26  O   UNL     1      -7.694   8.115  64.204  0.00  0.00    -0.220 OA
ATOM     27  C   UNL     1      -6.703   9.010  62.370  0.00  0.00    +0.100 C 
ATOM     28  C   UNL     1      -6.444   7.750  61.609  0.00  0.00    +0.156 C 
ATOM     29  O   UNL     1      -5.330   7.644  61.189  0.00  0.00    -0.296 OA
ATOM     30  C   UNL     1      -7.371   6.698  62.057  0.00  0.00    +0.098 C 
ATOM     31  C   UNL     1      -7.207   5.665  60.801  0.00  0.00    +0.172 C 
ATOM     32  O   UNL     1      -5.750   5.404  61.139  0.00  0.00    -0.222 OA
ATOM     33  C   UNL     1      -7.758   4.332  61.739  0.00  0.00    +0.164 C 
ATOM     34  C   UNL     1      -6.781   3.353  60.723  0.00  0.00    +0.168 C 
ATOM     35  O   UNL     1      -5.835   3.092  61.901  0.00  0.00    -0.222 OA
ATOM     36  C   UNL     1      -7.464   1.922  60.950  0.00  0.00    +0.068 C 
ATOM     37  C   UNL     1      -8.792   1.901  61.853  0.00  0.00    +0.142 C 
ATOM     38  C   UNL     1      -8.272   0.554  62.641  0.00  0.00    +0.003 C 
ATOM     39  C   UNL     1      -8.601   0.598  63.888  0.00  0.00    -0.002 C 
ATOM     40  C   UNL     1      -9.846  -0.141  64.101  0.00  0.00    -0.000 C 
ATOM     41  C   UNL     1      -9.613  -1.458  64.118  0.00  0.00    -0.000 C 
ATOM     42  C   UNL     1      -9.936  -2.059  65.419  0.00  0.00    -0.000 C 
ATOM     43  C   UNL     1      -9.288  -1.546  66.455  0.00  0.00    -0.000 C 
ATOM     44  C   UNL     1      -9.921  -1.642  67.756  0.00  0.00    -0.005 C 
ATOM     45  C   UNL     1     -11.199  -1.348  67.871  0.00  0.00    -0.026 C 
ATOM     46  C   UNL     1     -11.868  -1.443  69.202  0.00  0.00    +0.031 C 
ATOM     47  C   UNL     1     -10.887  -1.311  70.335  0.00  0.00    +0.031 C 
ATOM     48  C   UNL     1     -11.575  -0.651  71.474  0.00  0.00    -0.026 C 
ATOM     49  C   UNL     1     -11.000  -0.630  72.675  0.00  0.00    -0.005 C 
ATOM     50  C   UNL     1      -9.827   0.242  72.768  0.00  0.00    -0.005 C 
ATOM     51  C   UNL     1      -9.742   1.392  72.237  0.00  0.00    -0.024 C 
ENDROOT
BRANCH  33  52
ATOM     52  C   UNL     1      -9.066   4.418  60.908  0.00  0.00    +0.369 C 
ATOM     53  O   UNL     1     -10.113   4.592  61.754  0.00  0.00    -0.245 OA
ATOM     54  O   UNL     1      -9.762   4.284  60.131  0.00  0.00    -0.245 OA
ENDBRANCH  33  52
BRANCH  37  55
ATOM     55  O   UNL     1      -9.603   1.158  60.776  0.00  0.00    -0.327 OA
BRANCH  55  56
ATOM     56  C   UNL     1     -10.979   1.045  61.409  0.00  0.00    +0.268 C 
ATOM     57  C   UNL     1     -11.635   1.817  59.998  0.00  0.00    +0.228 C 
ATOM     58  O   UNL     1     -11.473   0.684  59.037  0.00  0.00    -0.216 OA
ATOM     59  C   UNL     1     -13.239   1.530  60.450  0.00  0.00    +0.160 C 
ATOM     60  N   UNL     1     -13.733   1.778  59.000  0.00  0.00    -0.127 NA
ATOM     61  C   UNL     1     -13.311  -0.138  60.198  0.00  0.00    +0.199 C 
ATOM     62  O   UNL     1     -14.644  -0.222  60.871  0.00  0.00    -0.219 OA
ATOM     63  C   UNL     1     -12.538  -0.443  61.692  0.00  0.00    +0.150 C 
ATOM     64  C   UNL     1     -12.682  -2.062  61.467  0.00  0.00    +0.035 C 
ATOM     65  O   UNL     1     -11.233  -0.392  60.931  0.00  0.00    -0.328 OA
ENDBRANCH  55  56
ENDBRANCH  37  55
TORSDOF 3
ENDMDL
MODEL 8
REMARK VINA RESULT:      -5.5      4.438      9.656
REMARK  Name = 
REMARK  3 active torsions:
REMARK  status: ('A' for Active; 'I' for Inactive)
REMARK    1  A    between atoms: C_17  and  O_18
REMARK    2  A    between atoms: O_18  and  C_19
REMARK    3  A    between atoms: C_32  and  C_33
REMARK                            x       y       z     vdW  Elec       q    Type
REMARK                         _______ _______ _______ _____ _____    ______ ____
ROOT
ATOM      1  C   UNL     1      -9.146   4.857  59.569  0.00  0.00    +0.007 C 
ATOM      2  C   UNL     1      -9.035   4.882  61.191  0.00  0.00    +0.053 C 
ATOM      3  C   UNL     1      -8.362   3.304  61.233  0.00  0.00    +0.159 C 
ATOM      4  O   UNL     1      -8.121   3.475  62.707  0.00  0.00    -0.223 OA
ATOM      5  C   UNL     1      -9.880   2.559  61.407  0.00  0.00    +0.071 C 
ATOM      6  C   UNL     1      -9.512   1.520  60.241  0.00  0.00    +0.006 C 
ATOM      7  C   UNL     1      -9.431   1.533  62.693  0.00  0.00    +0.171 C 
ATOM      8  C   UNL     1     -10.767   1.991  63.537  0.00  0.00    +0.047 C 
ATOM      9  O   UNL     1     -10.159   0.283  62.168  0.00  0.00    -0.452 OA
ATOM     10  C   UNL     1     -10.015  -0.744  63.096  0.00  0.00    +0.319 C 
ATOM     11  O   UNL     1     -10.156  -1.916  62.660  0.00  0.00    -0.250 OA
ATOM     12  C   UNL     1      -9.926  -0.515  64.569  0.00  0.00    +0.142 C 
ATOM     13  C   UNL     1      -8.938  -1.748  65.061  0.00  0.00    +0.166 C 
ATOM     14  O   UNL     1      -7.870  -0.777  65.550  0.00  0.00    -0.222 OA
ATOM     15  C   UNL     1      -9.649  -1.862  66.548  0.00  0.00    +0.066 C 
ATOM     16  C   UNL     1      -9.714  -0.282  67.015  0.00  0.00    +0.157 C 
ATOM     17  O   UNL     1     -10.991  -0.549  67.806  0.00  0.00    -0.223 OA
ATOM     18  C   UNL     1      -8.760  -0.593  68.330  0.00  0.00    +0.066 C 
ATOM     19  C   UNL     1      -9.444   0.452  69.414  0.00  0.00    +0.155 C 
ATOM     20  O   UNL     1      -9.793  -0.707  70.346  0.00  0.00    -0.223 OA
ATOM     21  C   UNL     1      -7.971   0.757  70.096  0.00  0.00    +0.036 C 
ATOM     22  C   UNL     1      -7.852   0.109  71.366  0.00  0.00    +0.038 C 
ATOM     23  C   UNL     1      -8.847   0.975  72.340  0.00  0.00    +0.183 C 
ATOM     24  O   UNL     1      -8.181   0.418  73.580  0.00  0.00    -0.220 OA
ATOM     25  C   UNL     1      -7.750   2.309  72.282  0.00  0.00    +0.189 C 
ATOM     26  O   UNL     1      -8.784   3.168  71.589  0.00  0.00    -0.220 OA
ATOM     27  C   UNL     1      -8.270   2.794  73.766  0.00  0.00    +0.100 C 
ATOM     28  C   UNL     1      -7.255   3.876  73.954  0.00  0.00    +0.156 C 
ATOM     29  O   UNL     1      -6.238   3.517  74.469  0.00  0.00    -0.296 OA
ATOM     30  C   UNL     1      -7.467   4.935  72.954  0.00  0.00    +0.098 C 
ATOM     31  C   UNL     1      -6.600   6.126  73.663  0.00  0.00    +0.172 C 
ATOM     32  O   UNL     1      -5.304   5.355  73.495  0.00  0.00    -0.222 OA
ATOM     33  C   UNL     1      -6.402   6.960  72.170  0.00  0.00    +0.164 C 
ATOM     34  C   UNL     1      -4.933   7.558  72.824  0.00  0.00    +0.168 C 
ATOM     35  O   UNL     1      -4.151   6.699  71.823  0.00  0.00    -0.222 OA
ATOM     36  C   UNL     1      -4.704   8.847  71.901  0.00  0.00    +0.068 C 
ATOM     37  C   UNL     1      -5.880   9.201  70.866  0.00  0.00    +0.142 C 
ATOM     38  C   UNL     1      -4.784   9.517  69.682  0.00  0.00    +0.003 C 
ATOM     39  C   UNL     1      -5.223   9.119  68.535  0.00  0.00    -0.002 C 
ATOM     40  C   UNL     1      -5.843  10.238  67.823  0.00  0.00    -0.000 C 
ATOM     41  C   UNL     1      -4.909  11.032  67.290  0.00  0.00    -0.000 C 
ATOM     42  C   UNL     1      -4.983  11.062  65.822  0.00  0.00    -0.000 C 
ATOM     43  C   UNL     1      -4.866   9.884  65.226  0.00  0.00    -0.000 C 
ATOM     44  C   UNL     1      -5.480   9.731  63.921  0.00  0.00    -0.005 C 
ATOM     45  C   UNL     1      -6.701  10.180  63.730  0.00  0.00    -0.026 C 
ATOM     46  C   UNL     1      -7.349  10.033  62.393  0.00  0.00    +0.031 C 
ATOM     47  C   UNL     1      -6.755   8.897  61.604  0.00  0.00    +0.031 C 
ATOM     48  C   UNL     1      -7.823   8.311  60.754  0.00  0.00    -0.026 C 
ATOM     49  C   UNL     1      -7.506   7.449  59.790  0.00  0.00    -0.005 C 
ATOM     50  C   UNL     1      -7.055   6.141  60.273  0.00  0.00    -0.005 C 
ATOM     51  C   UNL     1      -7.576   5.516  61.247  0.00  0.00    -0.024 C 
ENDROOT
BRANCH  33  52
ATOM     52  C   UNL     1      -7.421   7.991  72.728  0.00  0.00    +0.369 C 
ATOM     53  O   UNL     1      -8.470   8.080  71.871  0.00  0.00    -0.245 OA
ATOM     54  O   UNL     1      -7.822   8.812  73.247  0.00  0.00    -0.245 OA
ENDBRANCH  33  52
BRANCH  37  55
ATOM     55  O   UNL     1      -5.995  10.649  71.375  0.00  0.00    -0.327 OA
BRANCH  55  56
ATOM     56  C   UNL     1      -4.570  10.976  71.787  0.00  0.00    +0.268 C 
ATOM     57  C   UNL     1      -4.765  12.531  71.039  0.00  0.00    +0.228 C 
ATOM     58  O   UNL     1      -5.687  13.139  72.044  0.00  0.00    -0.216 OA
ATOM     59  C   UNL     1      -3.306  13.130  71.649  0.00  0.00    +0.160 C 
ATOM     60  N   UNL     1      -3.750  14.593  71.381  0.00  0.00    -0.127 NA
ATOM     61  C   UNL     1      -3.723  13.292  73.276  0.00  0.00    +0.199 C 
ATOM     62  O   UNL     1      -2.302  13.562  73.655  0.00  0.00    -0.219 OA
ATOM     63  C   UNL     1      -3.478  11.623  73.552  0.00  0.00    +0.150 C 
ATOM     64  C   UNL     1      -3.815  11.809  75.147  0.00  0.00    +0.035 C 
ATOM     65  O   UNL     1      -4.938  11.438  73.204  0.00  0.00    -0.328 OA
ENDBRANCH  55  56
ENDBRANCH  37  55
TORSDOF 3
ENDMDL
MODEL 9
REMARK VINA RESULT:      -5.4      3.635      5.010
REMARK  Name = 
REMARK  3 active torsions:
REMARK  status: ('A' for Active; 'I' for Inactive)
REMARK    1  A    between atoms: C_17  and  O_18
REMARK    2  A    between atoms: O_18  and  C_19
REMARK    3  A    between atoms: C_32  and  C_33
REMARK                            x       y       z     vdW  Elec       q    Type
REMARK                         _______ _______ _______ _____ _____    ______ ____
ROOT
ATOM      1  C   UNL     1      -2.748  -1.318  67.542  0.00  0.00    +0.007 C 
ATOM      2  C   UNL     1      -3.363   0.125  67.112  0.00  0.00    +0.053 C 
ATOM      3  C   UNL     1      -4.538  -0.607  66.097  0.00  0.00    +0.159 C 
ATOM      4  O   UNL     1      -5.166   0.745  65.896  0.00  0.00    -0.223 OA
ATOM      5  C   UNL     1      -3.540  -0.524  64.724  0.00  0.00    +0.071 C 
ATOM      6  C   UNL     1      -3.859  -2.060  64.390  0.00  0.00    +0.006 C 
ATOM      7  C   UNL     1      -4.723   0.124  63.680  0.00  0.00    +0.171 C 
ATOM      8  C   UNL     1      -3.665   1.282  63.184  0.00  0.00    +0.047 C 
ATOM      9  O   UNL     1      -4.371  -0.755  62.467  0.00  0.00    -0.452 OA
ATOM     10  C   UNL     1      -5.172  -0.380  61.392  0.00  0.00    +0.319 C 
ATOM     11  O   UNL     1      -5.333  -1.239  60.488  0.00  0.00    -0.250 OA
ATOM     12  C   UNL     1      -5.645   1.019  61.170  0.00  0.00    +0.142 C 
ATOM     13  C   UNL     1      -7.116   0.784  60.447  0.00  0.00    +0.166 C 
ATOM     14  O   UNL     1      -7.854   1.460  61.597  0.00  0.00    -0.222 OA
ATOM     15  C   UNL     1      -7.020   2.177  59.565  0.00  0.00    +0.066 C 
ATOM     16  C   UNL     1      -6.542   3.269  60.705  0.00  0.00    +0.157 C 
ATOM     17  O   UNL     1      -5.781   4.065  59.649  0.00  0.00    -0.223 OA
ATOM     18  C   UNL     1      -7.915   4.163  60.480  0.00  0.00    +0.066 C 
ATOM     19  C   UNL     1      -7.291   5.678  60.698  0.00  0.00    +0.155 C 
ATOM     20  O   UNL     1      -7.711   6.079  59.285  0.00  0.00    -0.223 OA
ATOM     21  C   UNL     1      -8.688   6.183  61.421  0.00  0.00    +0.036 C 
ATOM     22  C   UNL     1      -9.441   7.026  60.544  0.00  0.00    +0.038 C 
ATOM     23  C   UNL     1      -8.574   8.418  60.504  0.00  0.00    +0.183 C 
ATOM     24  O   UNL     1      -9.761   9.187  59.965  0.00  0.00    -0.220 OA
ATOM     25  C   UNL     1      -9.029   8.753  62.137  0.00  0.00    +0.189 C 
ATOM     26  O   UNL     1      -7.588   8.658  62.590  0.00  0.00    -0.220 OA
ATOM     27  C   UNL     1      -8.881  10.365  61.842  0.00  0.00    +0.100 C 
ATOM     28  C   UNL     1      -9.435  10.826  63.152  0.00  0.00    +0.156 C 
ATOM     29  O   UNL     1     -10.621  10.976  63.164  0.00  0.00    -0.296 OA
ATOM     30  C   UNL     1      -8.540  10.411  64.244  0.00  0.00    +0.098 C 
ATOM     31  C   UNL     1      -9.095  11.407  65.416  0.00  0.00    +0.172 C 
ATOM     32  O   UNL     1     -10.452  10.729  65.424  0.00  0.00    -0.222 OA
ATOM     33  C   UNL     1      -8.479  10.393  66.662  0.00  0.00    +0.164 C 
ATOM     34  C   UNL     1      -9.758  10.995  67.635  0.00  0.00    +0.168 C 
ATOM     35  O   UNL     1     -10.426   9.616  67.591  0.00  0.00    -0.222 OA
ATOM     36  C   UNL     1      -9.188  10.676  69.098  0.00  0.00    +0.068 C 
ATOM     37  C   UNL     1      -7.697  10.086  69.170  0.00  0.00    +0.142 C 
ATOM     38  C   UNL     1      -8.153   8.986  70.304  0.00  0.00    +0.003 C 
ATOM     39  C   UNL     1      -7.541   7.863  70.126  0.00  0.00    -0.002 C 
ATOM     40  C   UNL     1      -6.362   7.796  70.989  0.00  0.00    -0.000 C 
ATOM     41  C   UNL     1      -6.715   7.504  72.246  0.00  0.00    -0.000 C 
ATOM     42  C   UNL     1      -6.162   6.218  72.691  0.00  0.00    -0.000 C 
ATOM     43  C   UNL     1      -6.499   5.172  71.949  0.00  0.00    -0.000 C 
ATOM     44  C   UNL     1      -5.594   4.038  71.941  0.00  0.00    -0.005 C 
ATOM     45  C   UNL     1      -4.302   4.249  71.811  0.00  0.00    -0.026 C 
ATOM     46  C   UNL     1      -3.355   3.095  71.803  0.00  0.00    +0.031 C 
ATOM     47  C   UNL     1      -4.029   1.820  71.376  0.00  0.00    +0.031 C 
ATOM     48  C   UNL     1      -3.034   0.983  70.658  0.00  0.00    -0.026 C 
ATOM     49  C   UNL     1      -3.310  -0.291  70.386  0.00  0.00    -0.005 C 
ATOM     50  C   UNL     1      -4.335  -0.480  69.357  0.00  0.00    -0.005 C 
ATOM     51  C   UNL     1      -4.425   0.210  68.295  0.00  0.00    -0.024 C 
ENDROOT
BRANCH  33  52
ATOM     52  C   UNL     1      -7.396  11.485  66.877  0.00  0.00    +0.369 C 
ATOM     53  O   UNL     1      -6.171  10.931  66.694  0.00  0.00    -0.245 OA
ATOM     54  O   UNL     1      -6.913  12.352  67.223  0.00  0.00    -0.245 OA
ENDBRANCH  33  52
BRANCH  37  55
ATOM     55  O   UNL     1      -7.236  11.166  70.164  0.00  0.00    -0.327 OA
BRANCH  55  56
ATOM     56  C   UNL     1      -5.729  10.978  70.192  0.00  0.00    +0.268 C 
ATOM     57  C   UNL     1      -5.562  12.701  70.051  0.00  0.00    +0.228 C 
ATOM     58  O   UNL     1      -6.008  13.074  71.428  0.00  0.00    -0.216 OA
ATOM     59  C   UNL     1      -3.895  12.674  70.330  0.00  0.00    +0.160 C 
ATOM     60  N   UNL     1      -3.888  14.188  70.671  0.00  0.00    -0.127 NA
ATOM     61  C   UNL     1      -3.887  12.295  71.975  0.00  0.00    +0.199 C 
ATOM     62  O   UNL     1      -2.409  12.069  71.957  0.00  0.00    -0.219 OA
ATOM     63  C   UNL     1      -4.144  10.638  71.640  0.00  0.00    +0.150 C 
ATOM     64  C   UNL     1      -4.061  10.274  73.238  0.00  0.00    +0.035 C 
ATOM     65  O   UNL     1      -5.623  10.937  71.723  0.00  0.00    -0.328 OA
ENDBRANCH  55  56
ENDBRANCH  37  55
TORSDOF 3
ENDMDL
