MODEL 1
REMARK VINA RESULT:      -5.6      0.000      0.000
REMARK  Name = 
REMARK  7 active torsions:
REMARK  status: ('A' for Active; 'I' for Inactive)
REMARK    1  A    between atoms: O_2  and  C_3
REMARK    2  A    between atoms: C_8  and  O_9
REMARK    3  A    between atoms: O_9  and  C_10
REMARK    4  A    between atoms: C_10  and  C_11
REMARK    5  A    between atoms: C_11  and  C_13
REMARK    6  A    between atoms: C_13  and  O_14
REMARK    7  A    between atoms: O_14  and  C_15
REMARK                            x       y       z     vdW  Elec       q    Type
REMARK                         _______ _______ _______ _____ _____    ______ ____
ROOT
ATOM      1  O   UNL     1     -11.695  13.440  69.147  0.00  0.00    -0.470 OA
ENDROOT
BRANCH   1   3
ATOM      2  C   UNL     1     -12.736  12.975  71.206  0.00  0.00    +0.172 A 
ATOM      3  C   UNL     1     -12.400  13.908  70.231  0.00  0.00    +0.172 A 
ATOM      4  C   UNL     1     -12.582  15.231  70.528  0.00  0.00    +0.040 A 
ATOM      5  C   UNL     1     -13.306  15.615  71.648  0.00  0.00    +0.003 A 
ATOM      6  C   UNL     1     -13.923  14.656  72.439  0.00  0.00    +0.003 A 
ATOM      7  C   UNL     1     -13.465  13.367  72.296  0.00  0.00    +0.040 A 
BRANCH   2   9
ATOM      8  C   UNL     1     -13.076  10.740  71.631  0.00  0.00    +0.253 C 
ATOM      9  O   UNL     1     -12.598  11.624  70.984  0.00  0.00    -0.468 OA
ENDBRANCH   2   9
ENDBRANCH   1   3
BRANCH   1  10
ATOM     10  C   UNL     1     -11.161  14.235  68.116  0.00  0.00    +0.242 C 
BRANCH  10  11
ATOM     11  C   UNL     1     -12.109  13.829  66.786  0.00  0.00    +0.239 C 
ATOM     12  O   UNL     1     -11.997  12.323  67.122  0.00  0.00    -0.215 OA
BRANCH  11  13
ATOM     13  C   UNL     1     -10.750  13.746  65.797  0.00  0.00    +0.247 C 
BRANCH  13  14
ATOM     14  O   UNL     1     -11.118  14.527  64.680  0.00  0.00    -0.430 OA
BRANCH  14  15
ATOM     15  C   UNL     1     -10.968  15.903  64.705  0.00  0.00    +0.441 C 
ATOM     16  O   UNL     1     -11.679  16.611  63.966  0.00  0.00    -0.223 OA
ATOM     17  N   UNL     1     -10.008  16.514  65.536  0.00  0.00    -0.048 NA
ENDBRANCH  14  15
ENDBRANCH  13  14
ENDBRANCH  11  13
ENDBRANCH  10  11
ENDBRANCH   1  10
TORSDOF 7
ENDMDL
MODEL 2
REMARK VINA RESULT:      -5.5      1.485      2.615
REMARK  Name = 
REMARK  7 active torsions:
REMARK  status: ('A' for Active; 'I' for Inactive)
REMARK    1  A    between atoms: O_2  and  C_3
REMARK    2  A    between atoms: C_8  and  O_9
REMARK    3  A    between atoms: O_9  and  C_10
REMARK    4  A    between atoms: C_10  and  C_11
REMARK    5  A    between atoms: C_11  and  C_13
REMARK    6  A    between atoms: C_13  and  O_14
REMARK    7  A    between atoms: O_14  and  C_15
REMARK                            x       y       z     vdW  Elec       q    Type
REMARK                         _______ _______ _______ _____ _____    ______ ____
ROOT
ATOM      1  O   UNL     1     -12.249  13.665  68.964  0.00  0.00    -0.470 OA
ENDROOT
BRANCH   1   3
ATOM      2  C   UNL     1     -12.369  15.466  70.475  0.00  0.00    +0.172 A 
ATOM      3  C   UNL     1     -12.460  14.096  70.253  0.00  0.00    +0.172 A 
ATOM      4  C   UNL     1     -12.975  13.323  71.257  0.00  0.00    +0.040 A 
ATOM      5  C   UNL     1     -13.158  13.841  72.531  0.00  0.00    +0.003 A 
ATOM      6  C   UNL     1     -12.746  15.134  72.820  0.00  0.00    +0.003 A 
ATOM      7  C   UNL     1     -12.535  15.960  71.741  0.00  0.00    +0.040 A 
BRANCH   2   9
ATOM      8  C   UNL     1     -10.700  16.609  69.380  0.00  0.00    +0.253 C 
ATOM      9  O   UNL     1     -11.849  16.314  69.523  0.00  0.00    -0.468 OA
ENDBRANCH   2   9
ENDBRANCH   1   3
BRANCH   1  10
ATOM     10  C   UNL     1     -11.234  12.781  68.554  0.00  0.00    +0.242 C 
BRANCH  10  11
ATOM     11  C   UNL     1     -11.579  12.525  66.927  0.00  0.00    +0.239 C 
ATOM     12  O   UNL     1     -10.133  12.901  66.524  0.00  0.00    -0.215 OA
BRANCH  11  13
ATOM     13  C   UNL     1     -12.082  14.121  66.746  0.00  0.00    +0.247 C 
BRANCH  13  14
ATOM     14  O   UNL     1     -11.225  14.614  65.738  0.00  0.00    -0.430 OA
BRANCH  14  15
ATOM     15  C   UNL     1     -11.744  15.273  64.637  0.00  0.00    +0.441 C 
ATOM     16  O   UNL     1     -12.617  14.715  63.944  0.00  0.00    -0.223 OA
ATOM     17  N   UNL     1     -11.285  16.554  64.273  0.00  0.00    -0.048 NA
ENDBRANCH  14  15
ENDBRANCH  13  14
ENDBRANCH  11  13
ENDBRANCH  10  11
ENDBRANCH   1  10
TORSDOF 7
ENDMDL
MODEL 3
REMARK VINA RESULT:      -5.3      1.741      1.997
REMARK  Name = 
REMARK  7 active torsions:
REMARK  status: ('A' for Active; 'I' for Inactive)
REMARK    1  A    between atoms: O_2  and  C_3
REMARK    2  A    between atoms: C_8  and  O_9
REMARK    3  A    between atoms: O_9  and  C_10
REMARK    4  A    between atoms: C_10  and  C_11
REMARK    5  A    between atoms: C_11  and  C_13
REMARK    6  A    between atoms: C_13  and  O_14
REMARK    7  A    between atoms: O_14  and  C_15
REMARK                            x       y       z     vdW  Elec       q    Type
REMARK                         _______ _______ _______ _____ _____    ______ ____
ROOT
ATOM      1  O   UNL     1     -11.395  14.340  69.011  0.00  0.00    -0.470 OA
ENDROOT
BRANCH   1   3
ATOM      2  C   UNL     1     -12.403  13.112  70.748  0.00  0.00    +0.172 A 
ATOM      3  C   UNL     1     -12.253  14.325  70.086  0.00  0.00    +0.172 A 
ATOM      4  C   UNL     1     -12.772  15.443  70.683  0.00  0.00    +0.040 A 
ATOM      5  C   UNL     1     -13.629  15.336  71.768  0.00  0.00    +0.003 A 
ATOM      6  C   UNL     1     -14.034  14.085  72.213  0.00  0.00    +0.003 A 
ATOM      7  C   UNL     1     -13.266  13.019  71.807  0.00  0.00    +0.040 A 
BRANCH   2   9
ATOM      8  C   UNL     1     -12.172  10.829  70.581  0.00  0.00    +0.253 C 
ATOM      9  O   UNL     1     -11.924  11.938  70.211  0.00  0.00    -0.468 OA
ENDBRANCH   2   9
ENDBRANCH   1   3
BRANCH   1  10
ATOM     10  C   UNL     1     -11.666  14.921  67.758  0.00  0.00    +0.242 C 
BRANCH  10  11
ATOM     11  C   UNL     1     -11.933  13.588  66.766  0.00  0.00    +0.239 C 
ATOM     12  O   UNL     1     -10.570  12.974  67.164  0.00  0.00    -0.215 OA
BRANCH  11  13
ATOM     13  C   UNL     1     -11.233  14.379  65.456  0.00  0.00    +0.247 C 
BRANCH  13  14
ATOM     14  O   UNL     1     -12.094  14.049  64.386  0.00  0.00    -0.430 OA
BRANCH  14  15
ATOM     15  C   UNL     1     -12.021  12.805  63.783  0.00  0.00    +0.441 C 
ATOM     16  O   UNL     1     -13.069  12.165  63.569  0.00  0.00    -0.223 OA
ATOM     17  N   UNL     1     -10.780  12.241  63.429  0.00  0.00    -0.048 NA
ENDBRANCH  14  15
ENDBRANCH  13  14
ENDBRANCH  11  13
ENDBRANCH  10  11
ENDBRANCH   1  10
TORSDOF 7
ENDMDL
MODEL 4
REMARK VINA RESULT:      -5.3      2.038      2.993
REMARK  Name = 
REMARK  7 active torsions:
REMARK  status: ('A' for Active; 'I' for Inactive)
REMARK    1  A    between atoms: O_2  and  C_3
REMARK    2  A    between atoms: C_8  and  O_9
REMARK    3  A    between atoms: O_9  and  C_10
REMARK    4  A    between atoms: C_10  and  C_11
REMARK    5  A    between atoms: C_11  and  C_13
REMARK    6  A    between atoms: C_13  and  O_14
REMARK    7  A    between atoms: O_14  and  C_15
REMARK                            x       y       z     vdW  Elec       q    Type
REMARK                         _______ _______ _______ _____ _____    ______ ____
ROOT
ATOM      1  O   UNL     1     -12.022  13.538  69.418  0.00  0.00    -0.470 OA
ENDROOT
BRANCH   1   3
ATOM      2  C   UNL     1     -11.611  15.271  70.957  0.00  0.00    +0.172 A 
ATOM      3  C   UNL     1     -12.241  14.065  70.669  0.00  0.00    +0.172 A 
ATOM      4  C   UNL     1     -13.198  13.624  71.542  0.00  0.00    +0.040 A 
ATOM      5  C   UNL     1     -13.353  14.218  72.786  0.00  0.00    +0.003 A 
ATOM      6  C   UNL     1     -12.483  15.219  73.191  0.00  0.00    +0.003 A 
ATOM      7  C   UNL     1     -11.760  15.834  72.196  0.00  0.00    +0.040 A 
BRANCH   2   9
ATOM      8  C   UNL     1     -10.742  16.664  69.347  0.00  0.00    +0.253 C 
ATOM      9  O   UNL     1     -10.626  15.778  70.140  0.00  0.00    -0.468 OA
ENDBRANCH   2   9
ENDBRANCH   1   3
BRANCH   1  10
ATOM     10  C   UNL     1     -11.641  12.211  69.147  0.00  0.00    +0.242 C 
BRANCH  10  11
ATOM     11  C   UNL     1     -11.020  12.300  67.585  0.00  0.00    +0.239 C 
ATOM     12  O   UNL     1      -9.909  13.276  68.044  0.00  0.00    -0.215 OA
BRANCH  11  13
ATOM     13  C   UNL     1     -12.042  13.584  67.213  0.00  0.00    +0.247 C 
BRANCH  13  14
ATOM     14  O   UNL     1     -11.604  13.983  65.932  0.00  0.00    -0.430 OA
BRANCH  14  15
ATOM     15  C   UNL     1     -12.402  13.774  64.820  0.00  0.00    +0.441 C 
ATOM     16  O   UNL     1     -12.550  14.693  63.991  0.00  0.00    -0.223 OA
ATOM     17  N   UNL     1     -13.067  12.549  64.622  0.00  0.00    -0.048 NA
ENDBRANCH  14  15
ENDBRANCH  13  14
ENDBRANCH  11  13
ENDBRANCH  10  11
ENDBRANCH   1  10
TORSDOF 7
ENDMDL
MODEL 5
REMARK VINA RESULT:      -5.3      1.974      2.472
REMARK  Name = 
REMARK  7 active torsions:
REMARK  status: ('A' for Active; 'I' for Inactive)
REMARK    1  A    between atoms: O_2  and  C_3
REMARK    2  A    between atoms: C_8  and  O_9
REMARK    3  A    between atoms: O_9  and  C_10
REMARK    4  A    between atoms: C_10  and  C_11
REMARK    5  A    between atoms: C_11  and  C_13
REMARK    6  A    between atoms: C_13  and  O_14
REMARK    7  A    between atoms: O_14  and  C_15
REMARK                            x       y       z     vdW  Elec       q    Type
REMARK                         _______ _______ _______ _____ _____    ______ ____
ROOT
ATOM      1  O   UNL     1     -11.235  15.862  69.505  0.00  0.00    -0.470 OA
ENDROOT
BRANCH   1   3
ATOM      2  C   UNL     1     -12.278  13.982  70.464  0.00  0.00    +0.172 A 
ATOM      3  C   UNL     1     -11.941  15.328  70.558  0.00  0.00    +0.172 A 
ATOM      4  C   UNL     1     -12.124  15.946  71.765  0.00  0.00    +0.040 A 
ATOM      5  C   UNL     1     -12.849  15.331  72.775  0.00  0.00    +0.003 A 
ATOM      6  C   UNL     1     -13.466  14.110  72.543  0.00  0.00    +0.003 A 
ATOM      7  C   UNL     1     -13.009  13.395  71.461  0.00  0.00    +0.040 A 
BRANCH   2   9
ATOM      8  C   UNL     1     -11.536  12.271  69.117  0.00  0.00    +0.253 C 
ATOM      9  O   UNL     1     -12.140  13.289  69.282  0.00  0.00    -0.468 OA
ENDBRANCH   2   9
ENDBRANCH   1   3
BRANCH   1  10
ATOM     10  C   UNL     1      -9.832  15.940  69.421  0.00  0.00    +0.242 C 
BRANCH  10  11
ATOM     11  C   UNL     1      -9.583  16.931  68.083  0.00  0.00    +0.239 C 
ATOM     12  O   UNL     1     -11.006  17.524  68.212  0.00  0.00    -0.215 OA
BRANCH  11  13
ATOM     13  C   UNL     1     -10.140  15.729  67.045  0.00  0.00    +0.247 C 
BRANCH  13  14
ATOM     14  O   UNL     1     -10.308  16.415  65.822  0.00  0.00    -0.430 OA
BRANCH  14  15
ATOM     15  C   UNL     1     -11.143  15.906  64.841  0.00  0.00    +0.441 C 
ATOM     16  O   UNL     1     -11.525  16.649  63.916  0.00  0.00    -0.223 OA
ATOM     17  N   UNL     1     -11.586  14.570  64.884  0.00  0.00    -0.048 NA
ENDBRANCH  14  15
ENDBRANCH  13  14
ENDBRANCH  11  13
ENDBRANCH  10  11
ENDBRANCH   1  10
TORSDOF 7
ENDMDL
MODEL 6
REMARK VINA RESULT:      -5.2      2.483      3.934
REMARK  Name = 
REMARK  7 active torsions:
REMARK  status: ('A' for Active; 'I' for Inactive)
REMARK    1  A    between atoms: O_2  and  C_3
REMARK    2  A    between atoms: C_8  and  O_9
REMARK    3  A    between atoms: O_9  and  C_10
REMARK    4  A    between atoms: C_10  and  C_11
REMARK    5  A    between atoms: C_11  and  C_13
REMARK    6  A    between atoms: C_13  and  O_14
REMARK    7  A    between atoms: O_14  and  C_15
REMARK                            x       y       z     vdW  Elec       q    Type
REMARK                         _______ _______ _______ _____ _____    ______ ____
ROOT
ATOM      1  O   UNL     1     -11.295  14.803  67.111  0.00  0.00    -0.470 OA
ENDROOT
BRANCH   1   3
ATOM      2  C   UNL     1     -11.597  15.952  69.144  0.00  0.00    +0.172 A 
ATOM      3  C   UNL     1     -11.533  14.740  68.465  0.00  0.00    +0.172 A 
ATOM      4  C   UNL     1     -11.937  13.615  69.131  0.00  0.00    +0.040 A 
ATOM      5  C   UNL     1     -12.157  13.642  70.501  0.00  0.00    +0.003 A 
ATOM      6  C   UNL     1     -11.893  14.795  71.225  0.00  0.00    +0.003 A 
ATOM      7  C   UNL     1     -11.799  15.959  70.498  0.00  0.00    +0.040 A 
BRANCH   2   9
ATOM      8  C   UNL     1     -10.145  17.678  68.695  0.00  0.00    +0.253 C 
ATOM      9  O   UNL     1     -11.196  17.128  68.552  0.00  0.00    -0.468 OA
ENDBRANCH   2   9
ENDBRANCH   1   3
BRANCH   1  10
ATOM     10  C   UNL     1     -10.057  14.564  66.488  0.00  0.00    +0.242 C 
BRANCH  10  11
ATOM     11  C   UNL     1     -10.369  14.902  64.869  0.00  0.00    +0.239 C 
ATOM     12  O   UNL     1     -10.428  16.421  65.160  0.00  0.00    -0.215 OA
BRANCH  11  13
ATOM     13  C   UNL     1     -12.027  14.754  65.121  0.00  0.00    +0.247 C 
BRANCH  13  14
ATOM     14  O   UNL     1     -12.433  13.890  64.081  0.00  0.00    -0.430 OA
BRANCH  14  15
ATOM     15  C   UNL     1     -12.375  12.517  64.246  0.00  0.00    +0.441 C 
ATOM     16  O   UNL     1     -12.457  11.775  63.248  0.00  0.00    -0.223 OA
ATOM     17  N   UNL     1     -12.247  11.943  65.526  0.00  0.00    -0.048 NA
ENDBRANCH  14  15
ENDBRANCH  13  14
ENDBRANCH  11  13
ENDBRANCH  10  11
ENDBRANCH   1  10
TORSDOF 7
ENDMDL
MODEL 7
REMARK VINA RESULT:      -5.2      4.891      6.645
REMARK  Name = 
REMARK  7 active torsions:
REMARK  status: ('A' for Active; 'I' for Inactive)
REMARK    1  A    between atoms: O_2  and  C_3
REMARK    2  A    between atoms: C_8  and  O_9
REMARK    3  A    between atoms: O_9  and  C_10
REMARK    4  A    between atoms: C_10  and  C_11
REMARK    5  A    between atoms: C_11  and  C_13
REMARK    6  A    between atoms: C_13  and  O_14
REMARK    7  A    between atoms: O_14  and  C_15
REMARK                            x       y       z     vdW  Elec       q    Type
REMARK                         _______ _______ _______ _____ _____    ______ ____
ROOT
ATOM      1  O   UNL     1      -9.705  16.887  65.663  0.00  0.00    -0.470 OA
ENDROOT
BRANCH   1   3
ATOM      2  C   UNL     1      -8.261  18.687  66.129  0.00  0.00    +0.172 A 
ATOM      3  C   UNL     1      -9.492  18.071  66.330  0.00  0.00    +0.172 A 
ATOM      4  C   UNL     1     -10.465  18.790  66.970  0.00  0.00    +0.040 A 
ATOM      5  C   UNL     1     -10.161  19.979  67.616  0.00  0.00    +0.003 A 
ATOM      6  C   UNL     1      -8.845  20.415  67.686  0.00  0.00    +0.003 A 
ATOM      7  C   UNL     1      -7.971  19.851  66.787  0.00  0.00    +0.040 A 
BRANCH   2   9
ATOM      8  C   UNL     1      -6.143  17.803  65.967  0.00  0.00    +0.253 C 
ATOM      9  O   UNL     1      -7.223  18.029  65.508  0.00  0.00    -0.468 OA
ENDBRANCH   2   9
ENDBRANCH   1   3
BRANCH   1  10
ATOM     10  C   UNL     1     -10.649  15.907  66.022  0.00  0.00    +0.242 C 
BRANCH  10  11
ATOM     11  C   UNL     1     -11.004  15.160  64.557  0.00  0.00    +0.239 C 
ATOM     12  O   UNL     1     -11.581  16.477  63.984  0.00  0.00    -0.215 OA
BRANCH  11  13
ATOM     13  C   UNL     1     -12.522  14.699  65.119  0.00  0.00    +0.247 C 
BRANCH  13  14
ATOM     14  O   UNL     1     -12.750  13.472  64.458  0.00  0.00    -0.430 OA
BRANCH  14  15
ATOM     15  C   UNL     1     -12.040  12.339  64.816  0.00  0.00    +0.441 C 
ATOM     16  O   UNL     1     -11.571  11.602  63.926  0.00  0.00    -0.223 OA
ATOM     17  N   UNL     1     -11.858  11.993  66.169  0.00  0.00    -0.048 NA
ENDBRANCH  14  15
ENDBRANCH  13  14
ENDBRANCH  11  13
ENDBRANCH  10  11
ENDBRANCH   1  10
TORSDOF 7
ENDMDL
MODEL 8
REMARK VINA RESULT:      -5.0      1.978      2.874
REMARK  Name = 
REMARK  7 active torsions:
REMARK  status: ('A' for Active; 'I' for Inactive)
REMARK    1  A    between atoms: O_2  and  C_3
REMARK    2  A    between atoms: C_8  and  O_9
REMARK    3  A    between atoms: O_9  and  C_10
REMARK    4  A    between atoms: C_10  and  C_11
REMARK    5  A    between atoms: C_11  and  C_13
REMARK    6  A    between atoms: C_13  and  O_14
REMARK    7  A    between atoms: O_14  and  C_15
REMARK                            x       y       z     vdW  Elec       q    Type
REMARK                         _______ _______ _______ _____ _____    ______ ____
ROOT
ATOM      1  O   UNL     1     -11.545  14.560  69.339  0.00  0.00    -0.470 OA
ENDROOT
BRANCH   1   3
ATOM      2  C   UNL     1     -12.936  13.915  71.125  0.00  0.00    +0.172 A 
ATOM      3  C   UNL     1     -12.040  13.547  70.127  0.00  0.00    +0.172 A 
ATOM      4  C   UNL     1     -11.905  12.213  69.855  0.00  0.00    +0.040 A 
ATOM      5  C   UNL     1     -12.440  11.256  70.705  0.00  0.00    +0.003 A 
ATOM      6  C   UNL     1     -13.055  11.643  71.887  0.00  0.00    +0.003 A 
ATOM      7  C   UNL     1     -13.442  12.961  71.966  0.00  0.00    +0.040 A 
BRANCH   2   9
ATOM      8  C   UNL     1     -13.702  15.646  72.432  0.00  0.00    +0.253 C 
ATOM      9  O   UNL     1     -13.121  15.234  71.472  0.00  0.00    -0.468 OA
ENDBRANCH   2   9
ENDBRANCH   1   3
BRANCH   1  10
ATOM     10  C   UNL     1     -11.716  14.668  67.946  0.00  0.00    +0.242 C 
BRANCH  10  11
ATOM     11  C   UNL     1     -10.189  14.304  67.341  0.00  0.00    +0.239 C 
ATOM     12  O   UNL     1      -9.626  15.652  67.853  0.00  0.00    -0.215 OA
BRANCH  11  13
ATOM     13  C   UNL     1     -10.575  14.990  65.854  0.00  0.00    +0.247 C 
BRANCH  13  14
ATOM     14  O   UNL     1     -10.937  13.873  65.070  0.00  0.00    -0.430 OA
BRANCH  14  15
ATOM     15  C   UNL     1     -12.127  13.867  64.364  0.00  0.00    +0.441 C 
ATOM     16  O   UNL     1     -12.634  14.949  64.007  0.00  0.00    -0.223 OA
ATOM     17  N   UNL     1     -12.787  12.660  64.062  0.00  0.00    -0.048 NA
ENDBRANCH  14  15
ENDBRANCH  13  14
ENDBRANCH  11  13
ENDBRANCH  10  11
ENDBRANCH   1  10
TORSDOF 7
ENDMDL
MODEL 9
REMARK VINA RESULT:      -5.0      4.570      5.706
REMARK  Name = 
REMARK  7 active torsions:
REMARK  status: ('A' for Active; 'I' for Inactive)
REMARK    1  A    between atoms: O_2  and  C_3
REMARK    2  A    between atoms: C_8  and  O_9
REMARK    3  A    between atoms: O_9  and  C_10
REMARK    4  A    between atoms: C_10  and  C_11
REMARK    5  A    between atoms: C_11  and  C_13
REMARK    6  A    between atoms: C_13  and  O_14
REMARK    7  A    between atoms: O_14  and  C_15
REMARK                            x       y       z     vdW  Elec       q    Type
REMARK                         _______ _______ _______ _____ _____    ______ ____
ROOT
ATOM      1  O   UNL     1      -9.813  16.513  66.196  0.00  0.00    -0.470 OA
ENDROOT
BRANCH   1   3
ATOM      2  C   UNL     1      -9.199  17.861  68.026  0.00  0.00    +0.172 A 
ATOM      3  C   UNL     1      -9.837  17.751  66.795  0.00  0.00    +0.172 A 
ATOM      4  C   UNL     1     -10.225  18.908  66.175  0.00  0.00    +0.040 A 
ATOM      5  C   UNL     1     -10.215  20.117  66.856  0.00  0.00    +0.003 A 
ATOM      6  C   UNL     1      -9.884  20.152  68.203  0.00  0.00    +0.003 A 
ATOM      7  C   UNL     1      -9.214  19.056  68.692  0.00  0.00    +0.040 A 
BRANCH   2   9
ATOM      8  C   UNL     1      -7.664  16.415  68.945  0.00  0.00    +0.253 C 
ATOM      9  O   UNL     1      -8.791  16.747  68.724  0.00  0.00    -0.468 OA
ENDBRANCH   2   9
ENDBRANCH   1   3
BRANCH   1  10
ATOM     10  C   UNL     1     -10.888  15.606  66.153  0.00  0.00    +0.242 C 
BRANCH  10  11
ATOM     11  C   UNL     1     -10.940  15.148  64.534  0.00  0.00    +0.239 C 
ATOM     12  O   UNL     1     -11.443  16.550  64.116  0.00  0.00    -0.215 OA
BRANCH  11  13
ATOM     13  C   UNL     1     -12.519  14.593  64.705  0.00  0.00    +0.247 C 
BRANCH  13  14
ATOM     14  O   UNL     1     -12.488  13.335  64.066  0.00  0.00    -0.430 OA
BRANCH  14  15
ATOM     15  C   UNL     1     -11.900  12.246  64.687  0.00  0.00    +0.441 C 
ATOM     16  O   UNL     1     -12.100  12.052  65.902  0.00  0.00    -0.223 OA
ATOM     17  N   UNL     1     -11.061  11.368  63.974  0.00  0.00    -0.048 NA
ENDBRANCH  14  15
ENDBRANCH  13  14
ENDBRANCH  11  13
ENDBRANCH  10  11
ENDBRANCH   1  10
TORSDOF 7
ENDMDL
