MODEL 1
REMARK VINA RESULT:      -8.2      0.000      0.000
REMARK  Name = 
REMARK  6 active torsions:
REMARK  status: ('A' for Active; 'I' for Inactive)
REMARK    1  A    between atoms: O_2  and  C_3
REMARK    2  A    between atoms: C_5  and  C_6
REMARK    3  A    between atoms: C_13  and  O_14
REMARK    4  A    between atoms: O_14  and  C_15
REMARK    5  A    between atoms: C_20  and  C_21
REMARK    6  A    between atoms: C_42  and  O_43
REMARK                            x       y       z     vdW  Elec       q    Type
REMARK                         _______ _______ _______ _____ _____    ______ ____
ROOT
ATOM      1  C   UNL     1     -10.284  11.251  68.354  0.00  0.00    +0.055 C 
ATOM      2  C   UNL     1      -8.691  11.830  68.747  0.00  0.00    +0.113 C 
ATOM      3  C   UNL     1      -9.002  13.492  68.472  0.00  0.00    +0.086 C 
ATOM      4  C   UNL     1     -10.390  12.986  68.183  0.00  0.00    +0.212 C 
ATOM      5  O   UNL     1      -9.326  12.341  67.597  0.00  0.00    -0.448 OA
ATOM      6  C   UNL     1      -8.871  13.655  66.753  0.00  0.00    +0.144 C 
ATOM      7  C   UNL     1     -10.099  12.700  66.208  0.00  0.00    +0.004 A 
ATOM      8  C   UNL     1     -10.228  12.771  64.866  0.00  0.00    +0.038 A 
ATOM      9  C   UNL     1     -10.213  11.642  64.046  0.00  0.00    +0.176 A 
ATOM     10  O   UNL     1      -9.801  11.393  62.734  0.00  0.00    -0.435 OA
ATOM     11  C   UNL     1      -9.064  10.197  62.677  0.00  0.00    +0.429 C 
ATOM     12  O   UNL     1      -9.277   9.563  63.903  0.00  0.00    -0.435 OA
ATOM     13  C   UNL     1     -10.116  10.393  64.649  0.00  0.00    +0.176 A 
ATOM     14  C   UNL     1     -10.497  10.360  65.954  0.00  0.00    +0.036 A 
ATOM     15  C   UNL     1      -8.297  11.735  67.312  0.00  0.00    +0.317 C 
ATOM     16  O   UNL     1      -7.218  11.836  66.766  0.00  0.00    -0.250 OA
ATOM     17  C   UNL     1     -10.251  11.382  66.725  0.00  0.00    -0.016 A 
ENDROOT
BRANCH   1  23
ATOM     18  C   UNL     1     -10.379   8.410  70.526  0.00  0.00    +0.180 A 
ATOM     19  C   UNL     1     -10.777   7.326  69.751  0.00  0.00    +0.263 A 
ATOM     20  O   UNL     1     -11.915   6.665  70.246  0.00  0.00    -0.280 OA
ATOM     21  C   UNL     1     -10.687   7.505  68.373  0.00  0.00    +0.180 A 
ATOM     22  C   UNL     1     -10.482   8.748  67.778  0.00  0.00    +0.036 A 
ATOM     23  C   UNL     1      -9.986   9.719  68.505  0.00  0.00    -0.012 A 
ATOM     24  C   UNL     1      -9.985   9.588  69.903  0.00  0.00    +0.036 A 
BRANCH  21  25
ATOM     25  O   UNL     1     -11.249   6.470  67.641  0.00  0.00    -0.468 OA
ATOM     26  C   UNL     1     -10.563   5.534  66.881  0.00  0.00    +0.253 C 
ENDBRANCH  21  25
BRANCH  18  28
ATOM     27  C   UNL     1      -9.469   8.059  72.760  0.00  0.00    +0.253 C 
ATOM     28  O   UNL     1     -10.562   8.335  71.912  0.00  0.00    -0.468 OA
ENDBRANCH  18  28
ENDBRANCH   1  23
BRANCH   6  29
ATOM     29  O   UNL     1      -9.836  14.811  66.799  0.00  0.00    -0.326 OA
BRANCH  29  30
ATOM     30  C   UNL     1      -9.065  15.930  66.120  0.00  0.00    +0.270 C 
ATOM     31  C   UNL     1     -10.224  17.065  66.727  0.00  0.00    +0.240 C 
ATOM     32  O   UNL     1     -10.937  17.076  65.415  0.00  0.00    -0.215 OA
ATOM     33  C   UNL     1      -9.293  18.417  66.243  0.00  0.00    +0.217 C 
ATOM     34  O   UNL     1     -10.307  19.345  66.855  0.00  0.00    -0.218 OA
ATOM     35  C   UNL     1      -8.442  18.312  67.721  0.00  0.00    +0.181 C 
ATOM     36  C   UNL     1      -7.347  17.240  66.948  0.00  0.00    +0.177 C 
ATOM     37  C   UNL     1      -6.430  17.177  68.307  0.00  0.00    +0.177 C 
ATOM     38  O   UNL     1      -5.775  18.424  68.252  0.00  0.00    -0.324 OA
ATOM     39  C   UNL     1      -6.920  19.264  68.841  0.00  0.00    +0.266 C 
ATOM     40  O   UNL     1      -7.520  19.458  67.433  0.00  0.00    -0.324 OA
ATOM     41  O   UNL     1      -8.210  16.081  67.380  0.00  0.00    -0.326 OA
BRANCH  39  42
ATOM     42  C   UNL     1      -6.044  20.649  68.731  0.00  0.00    +0.063 A 
ATOM     43  S   UNL     1      -4.346  20.423  68.851  0.00  0.00    -0.086 S 
ATOM     44  C   UNL     1      -3.834  21.292  67.462  0.00  0.00    +0.035 A 
ATOM     45  C   UNL     1      -5.021  21.562  66.875  0.00  0.00    +0.007 A 
ATOM     46  C   UNL     1      -6.133  21.132  67.443  0.00  0.00    +0.008 A 
ENDBRANCH  39  42
ENDBRANCH  29  30
ENDBRANCH   6  29
TORSDOF 6
ENDMDL
MODEL 2
REMARK VINA RESULT:      -7.9      3.442     11.363
REMARK  Name = 
REMARK  6 active torsions:
REMARK  status: ('A' for Active; 'I' for Inactive)
REMARK    1  A    between atoms: O_2  and  C_3
REMARK    2  A    between atoms: C_5  and  C_6
REMARK    3  A    between atoms: C_13  and  O_14
REMARK    4  A    between atoms: O_14  and  C_15
REMARK    5  A    between atoms: C_20  and  C_21
REMARK    6  A    between atoms: C_42  and  O_43
REMARK                            x       y       z     vdW  Elec       q    Type
REMARK                         _______ _______ _______ _____ _____    ______ ____
ROOT
ATOM      1  C   UNL     1      -5.872  19.782  65.513  0.00  0.00    +0.055 C 
ATOM      2  C   UNL     1      -5.357  18.121  65.476  0.00  0.00    +0.113 C 
ATOM      3  C   UNL     1      -6.847  17.431  65.968  0.00  0.00    +0.086 C 
ATOM      4  C   UNL     1      -7.296  18.868  65.948  0.00  0.00    +0.212 C 
ATOM      5  O   UNL     1      -6.113  18.564  66.580  0.00  0.00    -0.448 OA
ATOM      6  C   UNL     1      -6.838  17.621  67.689  0.00  0.00    +0.144 C 
ATOM      7  C   UNL     1      -6.827  19.259  67.870  0.00  0.00    +0.004 A 
ATOM      8  C   UNL     1      -6.919  19.618  69.168  0.00  0.00    +0.038 A 
ATOM      9  C   UNL     1      -5.996  20.464  69.784  0.00  0.00    +0.176 A 
ATOM     10  O   UNL     1      -5.504  20.590  71.085  0.00  0.00    -0.435 OA
ATOM     11  C   UNL     1      -4.107  20.748  71.061  0.00  0.00    +0.429 C 
ATOM     12  O   UNL     1      -3.779  21.014  69.730  0.00  0.00    -0.435 OA
ATOM     13  C   UNL     1      -4.974  20.998  69.007  0.00  0.00    +0.176 A 
ATOM     14  C   UNL     1      -5.225  21.018  67.671  0.00  0.00    +0.036 A 
ATOM     15  C   UNL     1      -4.993  18.196  66.920  0.00  0.00    +0.317 C 
ATOM     16  O   UNL     1      -4.388  17.428  67.639  0.00  0.00    -0.250 OA
ATOM     17  C   UNL     1      -5.902  20.045  67.126  0.00  0.00    -0.016 A 
ENDROOT
BRANCH   1  23
ATOM     18  C   UNL     1      -3.747  21.009  62.911  0.00  0.00    +0.180 A 
ATOM     19  C   UNL     1      -3.127  22.153  63.404  0.00  0.00    +0.263 A 
ATOM     20  O   UNL     1      -3.325  23.292  62.605  0.00  0.00    -0.280 OA
ATOM     21  C   UNL     1      -3.185  22.320  64.785  0.00  0.00    +0.180 A 
ATOM     22  C   UNL     1      -4.021  21.571  65.610  0.00  0.00    +0.036 A 
ATOM     23  C   UNL     1      -4.489  20.432  65.162  0.00  0.00    -0.012 A 
ATOM     24  C   UNL     1      -4.414  20.161  63.786  0.00  0.00    +0.036 A 
BRANCH  21  25
ATOM     25  O   UNL     1      -2.707  23.549  65.216  0.00  0.00    -0.468 OA
ATOM     26  C   UNL     1      -1.938  23.781  66.347  0.00  0.00    +0.253 C 
ENDBRANCH  21  25
BRANCH  18  28
ATOM     27  C   UNL     1      -5.082  20.670  60.900  0.00  0.00    +0.253 C 
ATOM     28  O   UNL     1      -3.829  20.848  61.523  0.00  0.00    -0.468 OA
ENDBRANCH  18  28
ENDBRANCH   1  23
BRANCH   6  29
ATOM     29  O   UNL     1      -8.344  17.665  67.681  0.00  0.00    -0.326 OA
BRANCH  29  30
ATOM     30  C   UNL     1      -8.721  16.698  68.791  0.00  0.00    +0.270 C 
ATOM     31  C   UNL     1     -10.393  17.011  68.461  0.00  0.00    +0.240 C 
ATOM     32  O   UNL     1     -10.462  17.977  69.598  0.00  0.00    -0.215 OA
ATOM     33  C   UNL     1     -10.929  15.750  69.488  0.00  0.00    +0.217 C 
ATOM     34  O   UNL     1     -12.355  16.031  69.102  0.00  0.00    -0.218 OA
ATOM     35  C   UNL     1     -10.750  14.663  68.182  0.00  0.00    +0.181 C 
ATOM     36  C   UNL     1      -9.124  14.422  68.679  0.00  0.00    +0.177 C 
ATOM     37  C   UNL     1      -8.920  13.293  67.506  0.00  0.00    +0.177 C 
ATOM     38  O   UNL     1      -9.608  12.195  68.062  0.00  0.00    -0.324 OA
ATOM     39  C   UNL     1     -11.023  12.633  67.652  0.00  0.00    +0.266 C 
ATOM     40  O   UNL     1     -11.164  13.447  68.955  0.00  0.00    -0.324 OA
ATOM     41  O   UNL     1      -8.703  15.554  67.776  0.00  0.00    -0.326 OA
BRANCH  39  42
ATOM     42  C   UNL     1     -11.700  11.300  68.334  0.00  0.00    +0.063 A 
ATOM     43  S   UNL     1     -10.660   9.936  68.404  0.00  0.00    -0.086 S 
ATOM     44  C   UNL     1     -10.834   9.517  70.060  0.00  0.00    +0.035 A 
ATOM     45  C   UNL     1     -11.553  10.567  70.516  0.00  0.00    +0.007 A 
ATOM     46  C   UNL     1     -11.885  11.533  69.679  0.00  0.00    +0.008 A 
ENDBRANCH  39  42
ENDBRANCH  29  30
ENDBRANCH   6  29
TORSDOF 6
ENDMDL
MODEL 3
REMARK VINA RESULT:      -7.6      2.717      5.871
REMARK  Name = 
REMARK  6 active torsions:
REMARK  status: ('A' for Active; 'I' for Inactive)
REMARK    1  A    between atoms: O_2  and  C_3
REMARK    2  A    between atoms: C_5  and  C_6
REMARK    3  A    between atoms: C_13  and  O_14
REMARK    4  A    between atoms: O_14  and  C_15
REMARK    5  A    between atoms: C_20  and  C_21
REMARK    6  A    between atoms: C_42  and  O_43
REMARK                            x       y       z     vdW  Elec       q    Type
REMARK                         _______ _______ _______ _____ _____    ______ ____
ROOT
ATOM      1  C   UNL     1      -8.779   7.650  71.632  0.00  0.00    +0.055 C 
ATOM      2  C   UNL     1      -8.599   7.232  69.953  0.00  0.00    +0.113 C 
ATOM      3  C   UNL     1      -8.519   8.834  69.349  0.00  0.00    +0.086 C 
ATOM      4  C   UNL     1      -8.624   9.184  70.810  0.00  0.00    +0.212 C 
ATOM      5  O   UNL     1      -9.503   8.259  70.296  0.00  0.00    -0.448 OA
ATOM      6  C   UNL     1     -10.177   9.327  69.272  0.00  0.00    +0.144 C 
ATOM      7  C   UNL     1     -10.638   9.287  70.853  0.00  0.00    +0.004 A 
ATOM      8  C   UNL     1     -11.898   9.741  71.018  0.00  0.00    +0.038 A 
ATOM      9  C   UNL     1     -12.889   9.001  71.663  0.00  0.00    +0.176 A 
ATOM     10  O   UNL     1     -14.278   8.910  71.540  0.00  0.00    -0.435 OA
ATOM     11  C   UNL     1     -14.679   7.563  71.559  0.00  0.00    +0.429 C 
ATOM     12  O   UNL     1     -13.564   6.842  71.991  0.00  0.00    -0.435 OA
ATOM     13  C   UNL     1     -12.541   7.769  72.205  0.00  0.00    +0.176 A 
ATOM     14  C   UNL     1     -11.213   7.611  72.453  0.00  0.00    +0.036 A 
ATOM     15  C   UNL     1     -10.077   7.310  69.770  0.00  0.00    +0.317 C 
ATOM     16  O   UNL     1     -10.792   6.985  68.845  0.00  0.00    -0.250 OA
ATOM     17  C   UNL     1     -10.337   8.144  71.648  0.00  0.00    -0.016 A 
ENDROOT
BRANCH   1  23
ATOM     18  C   UNL     1      -8.427   5.491  74.462  0.00  0.00    +0.180 A 
ATOM     19  C   UNL     1      -9.529   4.643  74.460  0.00  0.00    +0.263 A 
ATOM     20  O   UNL     1     -10.268   4.674  75.656  0.00  0.00    -0.280 OA
ATOM     21  C   UNL     1     -10.244   4.588  73.266  0.00  0.00    +0.180 A 
ATOM     22  C   UNL     1     -10.063   5.498  72.227  0.00  0.00    +0.036 A 
ATOM     23  C   UNL     1      -8.954   6.194  72.187  0.00  0.00    -0.012 A 
ATOM     24  C   UNL     1      -8.146   6.251  73.334  0.00  0.00    +0.036 A 
BRANCH  21  25
ATOM     25  O   UNL     1     -11.425   3.867  73.360  0.00  0.00    -0.468 OA
ATOM     26  C   UNL     1     -11.542   2.484  73.405  0.00  0.00    +0.253 C 
ENDBRANCH  21  25
BRANCH  18  28
ATOM     27  C   UNL     1      -7.591   6.980  76.202  0.00  0.00    +0.253 C 
ATOM     28  O   UNL     1      -7.743   5.684  75.669  0.00  0.00    -0.468 OA
ENDBRANCH  18  28
ENDBRANCH   1  23
BRANCH   6  29
ATOM     29  O   UNL     1      -9.750  10.758  69.467  0.00  0.00    -0.326 OA
BRANCH  29  30
ATOM     30  C   UNL     1      -9.788  11.323  68.057  0.00  0.00    +0.270 C 
ATOM     31  C   UNL     1     -11.046  12.407  68.551  0.00  0.00    +0.240 C 
ATOM     32  O   UNL     1     -12.085  11.507  67.967  0.00  0.00    -0.215 OA
ATOM     33  C   UNL     1     -10.982  13.297  67.090  0.00  0.00    +0.217 C 
ATOM     34  O   UNL     1     -12.028  14.244  67.611  0.00  0.00    -0.218 OA
ATOM     35  C   UNL     1      -9.732  14.246  67.767  0.00  0.00    +0.181 C 
ATOM     36  C   UNL     1      -8.609  13.099  67.157  0.00  0.00    +0.177 C 
ATOM     37  C   UNL     1      -7.360  14.017  67.695  0.00  0.00    +0.177 C 
ATOM     38  O   UNL     1      -7.346  15.048  66.733  0.00  0.00    -0.324 OA
ATOM     39  C   UNL     1      -8.474  15.894  67.345  0.00  0.00    +0.266 C 
ATOM     40  O   UNL     1      -9.525  15.093  66.548  0.00  0.00    -0.324 OA
ATOM     41  O   UNL     1      -8.714  12.338  68.454  0.00  0.00    -0.326 OA
BRANCH  39  42
ATOM     42  C   UNL     1      -8.347  17.030  66.165  0.00  0.00    +0.063 A 
ATOM     43  S   UNL     1      -9.076  18.535  66.552  0.00  0.00    -0.086 S 
ATOM     44  C   UNL     1      -7.777  19.595  66.182  0.00  0.00    +0.035 A 
ATOM     45  C   UNL     1      -6.782  18.710  65.947  0.00  0.00    +0.007 A 
ATOM     46  C   UNL     1      -7.030  17.418  66.060  0.00  0.00    +0.008 A 
ENDBRANCH  39  42
ENDBRANCH  29  30
ENDBRANCH   6  29
TORSDOF 6
ENDMDL
MODEL 4
REMARK VINA RESULT:      -7.6      2.477      4.267
REMARK  Name = 
REMARK  6 active torsions:
REMARK  status: ('A' for Active; 'I' for Inactive)
REMARK    1  A    between atoms: O_2  and  C_3
REMARK    2  A    between atoms: C_5  and  C_6
REMARK    3  A    between atoms: C_13  and  O_14
REMARK    4  A    between atoms: O_14  and  C_15
REMARK    5  A    between atoms: C_20  and  C_21
REMARK    6  A    between atoms: C_42  and  O_43
REMARK                            x       y       z     vdW  Elec       q    Type
REMARK                         _______ _______ _______ _____ _____    ______ ____
ROOT
ATOM      1  C   UNL     1     -10.393   7.863  69.842  0.00  0.00    +0.055 C 
ATOM      2  C   UNL     1      -9.318   9.095  70.436  0.00  0.00    +0.113 C 
ATOM      3  C   UNL     1     -10.029  10.410  69.598  0.00  0.00    +0.086 C 
ATOM      4  C   UNL     1     -10.984   9.345  69.130  0.00  0.00    +0.212 C 
ATOM      5  O   UNL     1      -9.635   9.086  69.062  0.00  0.00    -0.448 OA
ATOM      6  C   UNL     1      -9.361  10.292  68.005  0.00  0.00    +0.144 C 
ATOM      7  C   UNL     1      -9.940   8.841  67.480  0.00  0.00    +0.004 A 
ATOM      8  C   UNL     1      -9.604   8.605  66.194  0.00  0.00    +0.038 A 
ATOM      9  C   UNL     1      -8.939   7.448  65.788  0.00  0.00    +0.176 A 
ATOM     10  O   UNL     1      -8.035   7.148  64.766  0.00  0.00    -0.435 OA
ATOM     11  C   UNL     1      -6.982   6.361  65.265  0.00  0.00    +0.429 C 
ATOM     12  O   UNL     1      -7.397   5.933  66.529  0.00  0.00    -0.435 OA
ATOM     13  C   UNL     1      -8.665   6.478  66.746  0.00  0.00    +0.176 A 
ATOM     14  C   UNL     1      -9.448   6.535  67.856  0.00  0.00    +0.036 A 
ATOM     15  C   UNL     1      -8.435   8.905  69.249  0.00  0.00    +0.317 C 
ATOM     16  O   UNL     1      -7.327   9.328  68.994  0.00  0.00    -0.250 OA
ATOM     17  C   UNL     1      -9.832   7.693  68.315  0.00  0.00    -0.016 A 
ENDROOT
BRANCH   1  23
ATOM     18  C   UNL     1     -10.145   5.844  72.784  0.00  0.00    +0.180 A 
ATOM     19  C   UNL     1      -9.997   4.528  72.357  0.00  0.00    +0.263 A 
ATOM     20  O   UNL     1     -10.966   3.654  72.878  0.00  0.00    -0.280 OA
ATOM     21  C   UNL     1      -9.637   4.366  71.022  0.00  0.00    +0.180 A 
ATOM     22  C   UNL     1      -9.680   5.400  70.089  0.00  0.00    +0.036 A 
ATOM     23  C   UNL     1      -9.692   6.636  70.522  0.00  0.00    -0.012 A 
ATOM     24  C   UNL     1      -9.988   6.881  71.873  0.00  0.00    +0.036 A 
BRANCH  21  25
ATOM     25  O   UNL     1      -9.666   3.046  70.596  0.00  0.00    -0.468 OA
ATOM     26  C   UNL     1      -9.360   2.586  69.323  0.00  0.00    +0.253 C 
ENDBRANCH  21  25
BRANCH  18  28
ATOM     27  C   UNL     1      -9.734   6.099  75.173  0.00  0.00    +0.253 C 
ATOM     28  O   UNL     1     -10.624   6.069  74.080  0.00  0.00    -0.468 OA
ENDBRANCH  18  28
ENDBRANCH   1  23
BRANCH   6  29
ATOM     29  O   UNL     1     -10.597  10.949  67.449  0.00  0.00    -0.326 OA
BRANCH  29  30
ATOM     30  C   UNL     1     -10.035  12.078  66.603  0.00  0.00    +0.270 C 
ATOM     31  C   UNL     1     -11.653  12.562  66.216  0.00  0.00    +0.240 C 
ATOM     32  O   UNL     1     -11.577  11.854  64.904  0.00  0.00    -0.215 OA
ATOM     33  C   UNL     1     -11.140  14.016  65.472  0.00  0.00    +0.217 C 
ATOM     34  O   UNL     1     -12.573  14.407  65.231  0.00  0.00    -0.218 OA
ATOM     35  C   UNL     1     -11.155  14.763  67.009  0.00  0.00    +0.181 C 
ATOM     36  C   UNL     1      -9.528  14.253  67.209  0.00  0.00    +0.177 C 
ATOM     37  C   UNL     1      -9.446  15.037  68.647  0.00  0.00    +0.177 C 
ATOM     38  O   UNL     1      -9.329  16.376  68.222  0.00  0.00    -0.324 OA
ATOM     39  C   UNL     1     -10.824  16.622  67.962  0.00  0.00    +0.266 C 
ATOM     40  O   UNL     1     -10.675  16.096  66.520  0.00  0.00    -0.324 OA
ATOM     41  O   UNL     1     -10.028  12.978  67.839  0.00  0.00    -0.326 OA
BRANCH  39  42
ATOM     42  C   UNL     1     -10.551  18.174  67.496  0.00  0.00    +0.063 A 
ATOM     43  S   UNL     1      -9.620  19.093  68.607  0.00  0.00    -0.086 S 
ATOM     44  C   UNL     1      -8.433  19.728  67.542  0.00  0.00    +0.035 A 
ATOM     45  C   UNL     1      -8.715  19.048  66.408  0.00  0.00    +0.007 A 
ATOM     46  C   UNL     1      -9.701  18.170  66.412  0.00  0.00    +0.008 A 
ENDBRANCH  39  42
ENDBRANCH  29  30
ENDBRANCH   6  29
TORSDOF 6
ENDMDL
MODEL 5
REMARK VINA RESULT:      -7.6      2.411      5.246
REMARK  Name = 
REMARK  6 active torsions:
REMARK  status: ('A' for Active; 'I' for Inactive)
REMARK    1  A    between atoms: O_2  and  C_3
REMARK    2  A    between atoms: C_5  and  C_6
REMARK    3  A    between atoms: C_13  and  O_14
REMARK    4  A    between atoms: O_14  and  C_15
REMARK    5  A    between atoms: C_20  and  C_21
REMARK    6  A    between atoms: C_42  and  O_43
REMARK                            x       y       z     vdW  Elec       q    Type
REMARK                         _______ _______ _______ _____ _____    ______ ____
ROOT
ATOM      1  C   UNL     1     -10.160   7.985  71.062  0.00  0.00    +0.055 C 
ATOM      2  C   UNL     1      -8.561   8.633  70.840  0.00  0.00    +0.113 C 
ATOM      3  C   UNL     1      -9.010   9.952  69.842  0.00  0.00    +0.086 C 
ATOM      4  C   UNL     1     -10.395   9.411  70.082  0.00  0.00    +0.212 C 
ATOM      5  O   UNL     1      -9.406   8.529  69.715  0.00  0.00    -0.448 OA
ATOM      6  C   UNL     1      -9.175   9.241  68.272  0.00  0.00    +0.144 C 
ATOM      7  C   UNL     1     -10.416   8.179  68.486  0.00  0.00    +0.004 A 
ATOM      8  C   UNL     1     -10.769   7.583  67.328  0.00  0.00    +0.038 A 
ATOM      9  C   UNL     1     -10.823   6.197  67.179  0.00  0.00    +0.176 A 
ATOM     10  O   UNL     1     -10.619   5.320  66.110  0.00  0.00    -0.435 OA
ATOM     11  C   UNL     1      -9.832   4.230  66.521  0.00  0.00    +0.429 C 
ATOM     12  O   UNL     1      -9.802   4.290  67.916  0.00  0.00    -0.435 OA
ATOM     13  C   UNL     1     -10.555   5.405  68.290  0.00  0.00    +0.176 A 
ATOM     14  C   UNL     1     -10.713   6.032  69.486  0.00  0.00    +0.036 A 
ATOM     15  C   UNL     1      -8.404   7.831  69.593  0.00  0.00    +0.317 C 
ATOM     16  O   UNL     1      -7.437   7.616  68.891  0.00  0.00    -0.250 OA
ATOM     17  C   UNL     1     -10.404   7.293  69.601  0.00  0.00    -0.016 A 
ENDROOT
BRANCH   1  23
ATOM     18  C   UNL     1      -8.899   6.758  74.177  0.00  0.00    +0.180 A 
ATOM     19  C   UNL     1      -9.602   5.593  74.464  0.00  0.00    +0.263 A 
ATOM     20  O   UNL     1     -10.244   5.615  75.715  0.00  0.00    -0.280 OA
ATOM     21  C   UNL     1     -10.297   5.031  73.397  0.00  0.00    +0.180 A 
ATOM     22  C   UNL     1     -10.517   5.697  72.194  0.00  0.00    +0.036 A 
ATOM     23  C   UNL     1      -9.752   6.718  71.892  0.00  0.00    -0.012 A 
ATOM     24  C   UNL     1      -8.974   7.305  72.903  0.00  0.00    +0.036 A 
BRANCH  21  25
ATOM     25  O   UNL     1     -11.116   3.973  73.763  0.00  0.00    -0.468 OA
ATOM     26  C   UNL     1     -10.992   2.655  73.348  0.00  0.00    +0.253 C 
ENDBRANCH  21  25
BRANCH  18  28
ATOM     27  C   UNL     1      -7.293   8.407  74.978  0.00  0.00    +0.253 C 
ATOM     28  O   UNL     1      -8.283   7.437  75.235  0.00  0.00    -0.468 OA
ENDBRANCH  18  28
ENDBRANCH   1  23
BRANCH   6  29
ATOM     29  O   UNL     1     -10.185  10.298  67.910  0.00  0.00    -0.326 OA
BRANCH  29  30
ATOM     30  C   UNL     1      -9.411  11.206  66.970  0.00  0.00    +0.270 C 
ATOM     31  C   UNL     1     -10.884  11.544  66.122  0.00  0.00    +0.240 C 
ATOM     32  O   UNL     1     -10.536  10.545  65.068  0.00  0.00    -0.215 OA
ATOM     33  C   UNL     1     -10.171  12.791  65.190  0.00  0.00    +0.217 C 
ATOM     34  O   UNL     1     -11.499  13.078  64.545  0.00  0.00    -0.218 OA
ATOM     35  C   UNL     1     -10.510  13.882  66.460  0.00  0.00    +0.181 C 
ATOM     36  C   UNL     1      -8.986  13.475  67.140  0.00  0.00    +0.177 C 
ATOM     37  C   UNL     1      -9.207  14.581  68.331  0.00  0.00    +0.177 C 
ATOM     38  O   UNL     1      -8.956  15.782  67.637  0.00  0.00    -0.324 OA
ATOM     39  C   UNL     1     -10.345  15.923  66.994  0.00  0.00    +0.266 C 
ATOM     40  O   UNL     1      -9.890  15.072  65.791  0.00  0.00    -0.324 OA
ATOM     41  O   UNL     1      -9.655  12.375  67.925  0.00  0.00    -0.326 OA
BRANCH  39  42
ATOM     42  C   UNL     1      -9.925  17.324  66.246  0.00  0.00    +0.063 A 
ATOM     43  S   UNL     1     -10.433  18.743  67.068  0.00  0.00    -0.086 S 
ATOM     44  C   UNL     1      -8.951  19.608  67.105  0.00  0.00    +0.035 A 
ATOM     45  C   UNL     1      -8.095  18.672  66.637  0.00  0.00    +0.007 A 
ATOM     46  C   UNL     1      -8.558  17.477  66.321  0.00  0.00    +0.008 A 
ENDBRANCH  39  42
ENDBRANCH  29  30
ENDBRANCH   6  29
TORSDOF 6
ENDMDL
MODEL 6
REMARK VINA RESULT:      -7.5      3.659      9.874
REMARK  Name = 
REMARK  6 active torsions:
REMARK  status: ('A' for Active; 'I' for Inactive)
REMARK    1  A    between atoms: O_2  and  C_3
REMARK    2  A    between atoms: C_5  and  C_6
REMARK    3  A    between atoms: C_13  and  O_14
REMARK    4  A    between atoms: O_14  and  C_15
REMARK    5  A    between atoms: C_20  and  C_21
REMARK    6  A    between atoms: C_42  and  O_43
REMARK                            x       y       z     vdW  Elec       q    Type
REMARK                         _______ _______ _______ _____ _____    ______ ____
ROOT
ATOM      1  C   UNL     1      -9.242  13.866  67.296  0.00  0.00    +0.055 C 
ATOM      2  C   UNL     1     -10.186  13.187  68.589  0.00  0.00    +0.113 C 
ATOM      3  C   UNL     1      -9.344  11.699  68.702  0.00  0.00    +0.086 C 
ATOM      4  C   UNL     1      -8.502  12.316  67.617  0.00  0.00    +0.212 C 
ATOM      5  O   UNL     1      -9.870  12.366  67.487  0.00  0.00    -0.448 OA
ATOM      6  C   UNL     1     -10.018  10.748  67.421  0.00  0.00    +0.144 C 
ATOM      7  C   UNL     1      -9.589  11.600  66.077  0.00  0.00    +0.004 A 
ATOM      8  C   UNL     1      -9.945  10.958  64.944  0.00  0.00    +0.038 A 
ATOM      9  C   UNL     1     -10.724  11.554  63.952  0.00  0.00    +0.176 A 
ATOM     10  O   UNL     1     -11.652  11.081  63.022  0.00  0.00    -0.435 OA
ATOM     11  C   UNL     1     -12.780  11.919  62.993  0.00  0.00    +0.429 C 
ATOM     12  O   UNL     1     -12.414  13.071  63.692  0.00  0.00    -0.435 OA
ATOM     13  C   UNL     1     -11.097  12.883  64.120  0.00  0.00    +0.176 A 
ATOM     14  C   UNL     1     -10.314  13.591  64.977  0.00  0.00    +0.036 A 
ATOM     15  C   UNL     1     -11.082  12.528  67.596  0.00  0.00    +0.317 C 
ATOM     16  O   UNL     1     -12.141  11.950  67.726  0.00  0.00    -0.250 OA
ATOM     17  C   UNL     1      -9.814  13.005  66.029  0.00  0.00    -0.016 A 
ENDROOT
BRANCH   1  23
ATOM     18  C   UNL     1     -10.731  16.680  68.925  0.00  0.00    +0.180 A 
ATOM     19  C   UNL     1     -10.515  17.781  68.103  0.00  0.00    +0.263 A 
ATOM     20  O   UNL     1      -9.857  18.845  68.744  0.00  0.00    -0.280 OA
ATOM     21  C   UNL     1     -10.139  17.490  66.794  0.00  0.00    +0.180 A 
ATOM     22  C   UNL     1      -9.736  16.222  66.380  0.00  0.00    +0.036 A 
ATOM     23  C   UNL     1     -10.065  15.188  67.114  0.00  0.00    -0.012 A 
ATOM     24  C   UNL     1     -10.511  15.402  68.428  0.00  0.00    +0.036 A 
BRANCH  21  25
ATOM     25  O   UNL     1      -9.771  18.608  66.061  0.00  0.00    -0.468 OA
ATOM     26  C   UNL     1     -10.597  19.666  65.705  0.00  0.00    +0.253 C 
ENDBRANCH  21  25
BRANCH  18  28
ATOM     27  C   UNL     1     -11.693  15.952  71.043  0.00  0.00    +0.253 C 
ATOM     28  O   UNL     1     -10.990  16.909  70.282  0.00  0.00    -0.468 OA
ENDBRANCH  18  28
ENDBRANCH   1  23
BRANCH   6  29
ATOM     29  O   UNL     1      -8.721   9.990  67.315  0.00  0.00    -0.326 OA
BRANCH  29  30
ATOM     30  C   UNL     1      -9.171   8.539  67.300  0.00  0.00    +0.270 C 
ATOM     31  C   UNL     1      -7.686   8.096  68.073  0.00  0.00    +0.240 C 
ATOM     32  O   UNL     1      -7.098   7.683  66.763  0.00  0.00    -0.215 OA
ATOM     33  C   UNL     1      -8.204   6.489  68.357  0.00  0.00    +0.217 C 
ATOM     34  O   UNL     1      -6.918   6.193  69.080  0.00  0.00    -0.218 OA
ATOM     35  C   UNL     1      -8.938   7.023  69.805  0.00  0.00    +0.181 C 
ATOM     36  C   UNL     1     -10.357   7.355  68.896  0.00  0.00    +0.177 C 
ATOM     37  C   UNL     1     -11.150   7.784  70.266  0.00  0.00    +0.177 C 
ATOM     38  O   UNL     1     -11.405   6.522  70.840  0.00  0.00    -0.324 OA
ATOM     39  C   UNL     1     -10.023   6.323  71.481  0.00  0.00    +0.266 C 
ATOM     40  O   UNL     1      -9.496   5.683  70.181  0.00  0.00    -0.324 OA
ATOM     41  O   UNL     1      -9.848   8.754  68.655  0.00  0.00    -0.326 OA
BRANCH  39  42
ATOM     42  C   UNL     1     -10.452   4.865  72.103  0.00  0.00    +0.063 A 
ATOM     43  S   UNL     1      -9.130   3.823  72.442  0.00  0.00    -0.086 S 
ATOM     44  C   UNL     1      -9.506   3.385  74.059  0.00  0.00    +0.035 A 
ATOM     45  C   UNL     1     -10.544   4.213  74.314  0.00  0.00    +0.007 A 
ATOM     46  C   UNL     1     -10.946   5.050  73.376  0.00  0.00    +0.008 A 
ENDBRANCH  39  42
ENDBRANCH  29  30
ENDBRANCH   6  29
TORSDOF 6
ENDMDL
MODEL 7
REMARK VINA RESULT:      -7.3      2.990      5.919
REMARK  Name = 
REMARK  6 active torsions:
REMARK  status: ('A' for Active; 'I' for Inactive)
REMARK    1  A    between atoms: O_2  and  C_3
REMARK    2  A    between atoms: C_5  and  C_6
REMARK    3  A    between atoms: C_13  and  O_14
REMARK    4  A    between atoms: O_14  and  C_15
REMARK    5  A    between atoms: C_20  and  C_21
REMARK    6  A    between atoms: C_42  and  O_43
REMARK                            x       y       z     vdW  Elec       q    Type
REMARK                         _______ _______ _______ _____ _____    ______ ____
ROOT
ATOM      1  C   UNL     1      -8.548   7.511  70.913  0.00  0.00    +0.055 C 
ATOM      2  C   UNL     1      -8.565   7.289  69.188  0.00  0.00    +0.113 C 
ATOM      3  C   UNL     1      -8.484   8.947  68.766  0.00  0.00    +0.086 C 
ATOM      4  C   UNL     1      -8.419   9.125  70.260  0.00  0.00    +0.212 C 
ATOM      5  O   UNL     1      -9.385   8.292  69.744  0.00  0.00    -0.448 OA
ATOM      6  C   UNL     1     -10.119   9.493  68.928  0.00  0.00    +0.144 C 
ATOM      7  C   UNL     1     -10.411   9.279  70.536  0.00  0.00    +0.004 A 
ATOM      8  C   UNL     1     -11.627   9.747  70.889  0.00  0.00    +0.038 A 
ATOM      9  C   UNL     1     -12.573   8.964  71.551  0.00  0.00    +0.176 A 
ATOM     10  O   UNL     1     -13.970   8.928  71.572  0.00  0.00    -0.435 OA
ATOM     11  C   UNL     1     -14.422   7.600  71.481  0.00  0.00    +0.429 C 
ATOM     12  O   UNL     1     -13.297   6.802  71.703  0.00  0.00    -0.435 OA
ATOM     13  C   UNL     1     -12.220   7.667  71.907  0.00  0.00    +0.176 A 
ATOM     14  C   UNL     1     -10.881   7.443  71.988  0.00  0.00    +0.036 A 
ATOM     15  C   UNL     1     -10.049   7.429  69.180  0.00  0.00    +0.317 C 
ATOM     16  O   UNL     1     -10.871   7.236  68.307  0.00  0.00    -0.250 OA
ATOM     17  C   UNL     1     -10.075   8.043  71.157  0.00  0.00    -0.016 A 
ENDROOT
BRANCH   1  23
ATOM     18  C   UNL     1      -6.894   4.434  71.681  0.00  0.00    +0.180 A 
ATOM     19  C   UNL     1      -7.602   3.846  72.724  0.00  0.00    +0.263 A 
ATOM     20  O   UNL     1      -6.813   3.557  73.851  0.00  0.00    -0.280 OA
ATOM     21  C   UNL     1      -8.878   4.357  72.948  0.00  0.00    +0.180 A 
ATOM     22  C   UNL     1      -9.337   5.541  72.376  0.00  0.00    +0.036 A 
ATOM     23  C   UNL     1      -8.723   6.005  71.314  0.00  0.00    -0.012 A 
ATOM     24  C   UNL     1      -7.456   5.497  70.986  0.00  0.00    +0.036 A 
BRANCH  21  25
ATOM     25  O   UNL     1      -9.480   3.863  74.096  0.00  0.00    -0.468 OA
ATOM     26  C   UNL     1     -10.106   4.612  75.082  0.00  0.00    +0.253 C 
ENDBRANCH  21  25
BRANCH  18  28
ATOM     27  C   UNL     1      -4.538   5.018  71.451  0.00  0.00    +0.253 C 
ATOM     28  O   UNL     1      -5.562   4.048  71.487  0.00  0.00    -0.468 OA
ENDBRANCH  18  28
ENDBRANCH   1  23
BRANCH   6  29
ATOM     29  O   UNL     1      -9.616  10.878  69.237  0.00  0.00    -0.326 OA
BRANCH  29  30
ATOM     30  C   UNL     1      -9.857  11.629  67.938  0.00  0.00    +0.270 C 
ATOM     31  C   UNL     1     -11.030  12.610  68.752  0.00  0.00    +0.240 C 
ATOM     32  O   UNL     1     -12.143  11.777  68.205  0.00  0.00    -0.215 OA
ATOM     33  C   UNL     1     -11.179  13.691  67.433  0.00  0.00    +0.217 C 
ATOM     34  O   UNL     1     -12.139  14.538  68.224  0.00  0.00    -0.218 OA
ATOM     35  C   UNL     1      -9.845  14.564  68.048  0.00  0.00    +0.181 C 
ATOM     36  C   UNL     1      -8.821  13.534  67.131  0.00  0.00    +0.177 C 
ATOM     37  C   UNL     1      -7.508  14.395  67.606  0.00  0.00    +0.177 C 
ATOM     38  O   UNL     1      -7.633  15.547  66.803  0.00  0.00    -0.324 OA
ATOM     39  C   UNL     1      -8.661  16.279  67.681  0.00  0.00    +0.266 C 
ATOM     40  O   UNL     1      -9.816  15.574  66.940  0.00  0.00    -0.324 OA
ATOM     41  O   UNL     1      -8.738  12.602  68.313  0.00  0.00    -0.326 OA
BRANCH  39  42
ATOM     42  C   UNL     1      -8.707  17.567  66.662  0.00  0.00    +0.063 A 
ATOM     43  S   UNL     1     -10.286  18.017  66.162  0.00  0.00    -0.086 S 
ATOM     44  C   UNL     1     -10.239  19.697  66.512  0.00  0.00    +0.035 A 
ATOM     45  C   UNL     1      -9.060  19.790  67.168  0.00  0.00    +0.007 A 
ATOM     46  C   UNL     1      -8.342  18.699  67.358  0.00  0.00    +0.008 A 
ENDBRANCH  39  42
ENDBRANCH  29  30
ENDBRANCH   6  29
TORSDOF 6
ENDMDL
MODEL 8
REMARK VINA RESULT:      -7.3      3.153      9.689
REMARK  Name = 
REMARK  6 active torsions:
REMARK  status: ('A' for Active; 'I' for Inactive)
REMARK    1  A    between atoms: O_2  and  C_3
REMARK    2  A    between atoms: C_5  and  C_6
REMARK    3  A    between atoms: C_13  and  O_14
REMARK    4  A    between atoms: O_14  and  C_15
REMARK    5  A    between atoms: C_20  and  C_21
REMARK    6  A    between atoms: C_42  and  O_43
REMARK                            x       y       z     vdW  Elec       q    Type
REMARK                         _______ _______ _______ _____ _____    ______ ____
ROOT
ATOM      1  C   UNL     1      -7.787  15.069  67.546  0.00  0.00    +0.055 C 
ATOM      2  C   UNL     1      -8.261  14.487  69.115  0.00  0.00    +0.113 C 
ATOM      3  C   UNL     1      -7.716  12.875  68.912  0.00  0.00    +0.086 C 
ATOM      4  C   UNL     1      -7.264  13.402  67.575  0.00  0.00    +0.212 C 
ATOM      5  O   UNL     1      -8.545  13.687  67.989  0.00  0.00    -0.448 OA
ATOM      6  C   UNL     1      -8.988  12.123  68.010  0.00  0.00    +0.144 C 
ATOM      7  C   UNL     1      -8.970  12.964  66.593  0.00  0.00    +0.004 A 
ATOM      8  C   UNL     1      -9.844  12.454  65.699  0.00  0.00    +0.038 A 
ATOM      9  C   UNL     1     -10.827  13.226  65.081  0.00  0.00    +0.176 A 
ATOM     10  O   UNL     1     -12.111  12.967  64.594  0.00  0.00    -0.435 OA
ATOM     11  C   UNL     1     -12.996  13.982  64.995  0.00  0.00    +0.429 C 
ATOM     12  O   UNL     1     -12.191  15.016  65.479  0.00  0.00    -0.435 OA
ATOM     13  C   UNL     1     -10.867  14.588  65.361  0.00  0.00    +0.176 A 
ATOM     14  C   UNL     1      -9.702  15.106  65.834  0.00  0.00    +0.036 A 
ATOM     15  C   UNL     1      -9.571  14.043  68.560  0.00  0.00    +0.317 C 
ATOM     16  O   UNL     1     -10.581  13.644  69.102  0.00  0.00    -0.250 OA
ATOM     17  C   UNL     1      -8.946  14.387  66.616  0.00  0.00    -0.016 A 
ENDROOT
BRANCH   1  23
ATOM     18  C   UNL     1      -7.121  18.461  68.465  0.00  0.00    +0.180 A 
ATOM     19  C   UNL     1      -7.784  19.264  67.544  0.00  0.00    +0.263 A 
ATOM     20  O   UNL     1      -6.945  20.180  66.885  0.00  0.00    -0.280 OA
ATOM     21  C   UNL     1      -8.761  18.627  66.783  0.00  0.00    +0.180 A 
ATOM     22  C   UNL     1      -8.901  17.242  66.727  0.00  0.00    +0.036 A 
ATOM     23  C   UNL     1      -8.370  16.518  67.681  0.00  0.00    -0.012 A 
ATOM     24  C   UNL     1      -7.419  17.106  68.531  0.00  0.00    +0.036 A 
BRANCH  21  25
ATOM     25  O   UNL     1      -9.275  19.418  65.766  0.00  0.00    -0.468 OA
ATOM     26  C   UNL     1     -10.566  19.924  65.691  0.00  0.00    +0.253 C 
ENDBRANCH  21  25
BRANCH  18  28
ATOM     27  C   UNL     1      -4.744  18.500  69.002  0.00  0.00    +0.253 C 
ATOM     28  O   UNL     1      -6.046  19.014  69.172  0.00  0.00    -0.468 OA
ENDBRANCH  18  28
ENDBRANCH   1  23
BRANCH   6  29
ATOM     29  O   UNL     1      -7.988  11.166  67.417  0.00  0.00    -0.326 OA
BRANCH  29  30
ATOM     30  C   UNL     1      -8.645   9.811  67.623  0.00  0.00    +0.270 C 
ATOM     31  C   UNL     1      -7.404   9.410  68.763  0.00  0.00    +0.240 C 
ATOM     32  O   UNL     1      -6.665   8.633  67.723  0.00  0.00    -0.215 OA
ATOM     33  C   UNL     1      -8.203   7.985  69.274  0.00  0.00    +0.217 C 
ATOM     34  O   UNL     1      -7.124   7.736  70.293  0.00  0.00    -0.218 OA
ATOM     35  C   UNL     1      -9.090   8.929  70.389  0.00  0.00    +0.181 C 
ATOM     36  C   UNL     1     -10.259   9.182  69.157  0.00  0.00    +0.177 C 
ATOM     37  C   UNL     1     -11.206  10.012  70.208  0.00  0.00    +0.177 C 
ATOM     38  O   UNL     1     -11.748   8.961  70.975  0.00  0.00    -0.324 OA
ATOM     39  C   UNL     1     -10.546   8.775  71.916  0.00  0.00    +0.266 C 
ATOM     40  O   UNL     1      -9.903   7.787  70.922  0.00  0.00    -0.324 OA
ATOM     41  O   UNL     1      -9.509  10.418  68.730  0.00  0.00    -0.326 OA
BRANCH  39  42
ATOM     42  C   UNL     1     -11.296   7.565  72.736  0.00  0.00    +0.063 A 
ATOM     43  S   UNL     1     -11.666   6.188  71.780  0.00  0.00    -0.086 S 
ATOM     44  C   UNL     1     -11.000   4.954  72.771  0.00  0.00    +0.035 A 
ATOM     45  C   UNL     1     -10.364   5.692  73.708  0.00  0.00    +0.007 A 
ATOM     46  C   UNL     1     -10.403   7.009  73.626  0.00  0.00    +0.008 A 
ENDBRANCH  39  42
ENDBRANCH  29  30
ENDBRANCH   6  29
TORSDOF 6
ENDMDL
MODEL 9
REMARK VINA RESULT:      -7.2      2.516      4.071
REMARK  Name = 
REMARK  6 active torsions:
REMARK  status: ('A' for Active; 'I' for Inactive)
REMARK    1  A    between atoms: O_2  and  C_3
REMARK    2  A    between atoms: C_5  and  C_6
REMARK    3  A    between atoms: C_13  and  O_14
REMARK    4  A    between atoms: O_14  and  C_15
REMARK    5  A    between atoms: C_20  and  C_21
REMARK    6  A    between atoms: C_42  and  O_43
REMARK                            x       y       z     vdW  Elec       q    Type
REMARK                         _______ _______ _______ _____ _____    ______ ____
ROOT
ATOM      1  C   UNL     1      -9.958   7.651  68.150  0.00  0.00    +0.055 C 
ATOM      2  C   UNL     1      -9.250   8.961  69.049  0.00  0.00    +0.113 C 
ATOM      3  C   UNL     1     -10.141  10.224  68.310  0.00  0.00    +0.086 C 
ATOM      4  C   UNL     1     -10.783   9.078  67.573  0.00  0.00    +0.212 C 
ATOM      5  O   UNL     1      -9.411   9.112  67.656  0.00  0.00    -0.448 OA
ATOM      6  C   UNL     1      -9.300  10.504  66.823  0.00  0.00    +0.144 C 
ATOM      7  C   UNL     1      -9.486   9.072  66.029  0.00  0.00    +0.004 A 
ATOM      8  C   UNL     1      -8.972   9.122  64.782  0.00  0.00    +0.038 A 
ATOM      9  C   UNL     1      -8.029   8.204  64.317  0.00  0.00    +0.176 A 
ATOM     10  O   UNL     1      -6.979   8.264  63.398  0.00  0.00    -0.435 OA
ATOM     11  C   UNL     1      -5.837   7.636  63.925  0.00  0.00    +0.429 C 
ATOM     12  O   UNL     1      -6.278   6.932  65.049  0.00  0.00    -0.435 OA
ATOM     13  C   UNL     1      -7.650   7.167  65.161  0.00  0.00    +0.176 A 
ATOM     14  C   UNL     1      -8.539   6.883  66.150  0.00  0.00    +0.036 A 
ATOM     15  C   UNL     1      -8.227   9.149  67.980  0.00  0.00    +0.317 C 
ATOM     16  O   UNL     1      -7.219   9.823  67.941  0.00  0.00    -0.250 OA
ATOM     17  C   UNL     1      -9.216   7.849  66.707  0.00  0.00    -0.016 A 
ENDROOT
BRANCH   1  23
ATOM     18  C   UNL     1      -9.593   5.257  70.783  0.00  0.00    +0.180 A 
ATOM     19  C   UNL     1      -9.106   4.092  70.201  0.00  0.00    +0.263 A 
ATOM     20  O   UNL     1      -9.905   2.961  70.446  0.00  0.00    -0.280 OA
ATOM     21  C   UNL     1      -8.571   4.235  68.924  0.00  0.00    +0.180 A 
ATOM     22  C   UNL     1      -8.740   5.380  68.150  0.00  0.00    +0.036 A 
ATOM     23  C   UNL     1      -9.079   6.497  68.746  0.00  0.00    -0.012 A 
ATOM     24  C   UNL     1      -9.573   6.443  70.060  0.00  0.00    +0.036 A 
BRANCH  21  25
ATOM     25  O   UNL     1      -8.253   3.028  68.317  0.00  0.00    -0.468 OA
ATOM     26  C   UNL     1      -8.854   2.495  67.185  0.00  0.00    +0.253 C 
ENDBRANCH  21  25
BRANCH  18  28
ATOM     27  C   UNL     1     -11.393   5.945  72.276  0.00  0.00    +0.253 C 
ATOM     28  O   UNL     1     -10.254   5.156  72.013  0.00  0.00    -0.468 OA
ENDBRANCH  18  28
ENDBRANCH   1  23
BRANCH   6  29
ATOM     29  O   UNL     1     -10.584  10.980  66.196  0.00  0.00    -0.326 OA
BRANCH  29  30
ATOM     30  C   UNL     1     -10.168  12.256  65.485  0.00  0.00    +0.270 C 
ATOM     31  C   UNL     1     -11.830  12.743  65.439  0.00  0.00    +0.240 C 
ATOM     32  O   UNL     1     -11.954  12.274  64.027  0.00  0.00    -0.215 OA
ATOM     33  C   UNL     1     -11.450  14.320  64.891  0.00  0.00    +0.217 C 
ATOM     34  O   UNL     1     -12.905  14.698  64.943  0.00  0.00    -0.218 OA
ATOM     35  C   UNL     1     -11.231  14.792  66.519  0.00  0.00    +0.181 C 
ATOM     36  C   UNL     1      -9.589  14.311  66.377  0.00  0.00    +0.177 C 
ATOM     37  C   UNL     1      -9.290  14.839  67.901  0.00  0.00    +0.177 C 
ATOM     38  O   UNL     1      -9.250  16.234  67.704  0.00  0.00    -0.324 OA
ATOM     39  C   UNL     1     -10.769  16.470  67.721  0.00  0.00    +0.266 C 
ATOM     40  O   UNL     1     -10.841  16.205  66.203  0.00  0.00    -0.324 OA
ATOM     41  O   UNL     1      -9.975  12.930  66.844  0.00  0.00    -0.326 OA
BRANCH  39  42
ATOM     42  C   UNL     1     -10.582  18.087  67.496  0.00  0.00    +0.063 A 
ATOM     43  S   UNL     1      -9.466  18.826  68.570  0.00  0.00    -0.086 S 
ATOM     44  C   UNL     1      -8.488  19.673  67.442  0.00  0.00    +0.035 A 
ATOM     45  C   UNL     1      -8.970  19.194  66.273  0.00  0.00    +0.007 A 
ATOM     46  C   UNL     1      -9.940  18.299  66.296  0.00  0.00    +0.008 A 
ENDBRANCH  39  42
ENDBRANCH  29  30
ENDBRANCH   6  29
TORSDOF 6
ENDMDL
