MODEL 1
REMARK VINA RESULT:      -6.2      0.000      0.000
REMARK  Name = 
REMARK  6 active torsions:
REMARK  status: ('A' for Active; 'I' for Inactive)
REMARK    1  A    between atoms: N_2  and  C_3
REMARK    2  A    between atoms: C_3  and  C_4
REMARK    3  A    between atoms: C_4  and  C_5
REMARK    4  A    between atoms: C_5  and  O_6
REMARK    5  A    between atoms: C_5  and  C_17
REMARK    6  A    between atoms: O_6  and  C_7
REMARK                            x       y       z     vdW  Elec       q    Type
REMARK                         _______ _______ _______ _____ _____    ______ ____
ROOT
ATOM      1  O   UNL     1     -11.604  15.080  67.964  0.00  0.00    -0.474 OA
ENDROOT
BRANCH   1   2
ATOM      2  C   UNL     1     -11.996  14.027  68.758  0.00  0.00    +0.139 A 
ATOM      3  C   UNL     1     -12.329  14.258  70.081  0.00  0.00    +0.034 A 
ATOM      4  C   UNL     1     -12.574  13.168  70.906  0.00  0.00    +0.003 A 
ATOM      5  C   UNL     1     -13.401  13.308  72.012  0.00  0.00    +0.000 A 
ATOM      6  C   UNL     1     -13.844  14.597  72.285  0.00  0.00    +0.000 A 
ATOM      7  C   UNL     1     -13.034  15.649  71.881  0.00  0.00    +0.000 A 
ATOM      8  C   UNL     1     -12.196  11.886  70.554  0.00  0.00    +0.000 A 
ATOM      9  C   UNL     1     -11.611  11.695  69.329  0.00  0.00    +0.003 A 
ATOM     10  C   UNL     1     -12.412  15.511  70.643  0.00  0.00    +0.003 A 
ATOM     11  C   UNL     1     -11.570  12.749  68.465  0.00  0.00    +0.037 A 
ENDBRANCH   1   2
BRANCH   1  12
ATOM     12  C   UNL     1     -10.227  14.857  67.240  0.00  0.00    +0.195 C 
BRANCH  12  13
ATOM     13  C   UNL     1      -9.635  16.287  67.815  0.00  0.00    +0.047 A 
ATOM     14  S   UNL     1      -8.688  17.108  66.622  0.00  0.00    -0.087 S 
ATOM     15  C   UNL     1      -8.927  18.710  67.194  0.00  0.00    +0.035 A 
ATOM     16  C   UNL     1      -9.755  18.435  68.278  0.00  0.00    +0.007 A 
ATOM     17  C   UNL     1     -10.535  17.330  68.030  0.00  0.00    +0.006 A 
ENDBRANCH  12  13
BRANCH  12  18
ATOM     18  C   UNL     1     -10.835  15.560  65.836  0.00  0.00    +0.068 C 
BRANCH  18  19
ATOM     19  C   UNL     1     -10.904  14.392  64.865  0.00  0.00    +0.093 C 
BRANCH  19  21
ATOM     20  C   UNL     1     -12.578  12.668  64.875  0.00  0.00    +0.107 C 
ATOM     21  N   UNL     1     -12.300  14.061  64.605  0.00  0.00    -0.216 NA
ENDBRANCH  19  21
ENDBRANCH  18  19
ENDBRANCH  12  18
ENDBRANCH   1  12
TORSDOF 6
ENDMDL
MODEL 2
REMARK VINA RESULT:      -6.1      1.885      3.999
REMARK  Name = 
REMARK  6 active torsions:
REMARK  status: ('A' for Active; 'I' for Inactive)
REMARK    1  A    between atoms: N_2  and  C_3
REMARK    2  A    between atoms: C_3  and  C_4
REMARK    3  A    between atoms: C_4  and  C_5
REMARK    4  A    between atoms: C_5  and  O_6
REMARK    5  A    between atoms: C_5  and  C_17
REMARK    6  A    between atoms: O_6  and  C_7
REMARK                            x       y       z     vdW  Elec       q    Type
REMARK                         _______ _______ _______ _____ _____    ______ ____
ROOT
ATOM      1  O   UNL     1     -10.682  14.771  69.127  0.00  0.00    -0.474 OA
ENDROOT
BRANCH   1   2
ATOM      2  C   UNL     1     -11.520  14.555  70.196  0.00  0.00    +0.139 A 
ATOM      3  C   UNL     1     -12.103  13.311  70.364  0.00  0.00    +0.034 A 
ATOM      4  C   UNL     1     -13.063  13.155  71.356  0.00  0.00    +0.003 A 
ATOM      5  C   UNL     1     -13.273  11.906  71.925  0.00  0.00    +0.000 A 
ATOM      6  C   UNL     1     -12.567  10.850  71.362  0.00  0.00    +0.000 A 
ATOM      7  C   UNL     1     -12.219  10.957  70.022  0.00  0.00    +0.000 A 
ATOM      8  C   UNL     1     -13.678  14.237  71.956  0.00  0.00    +0.000 A 
ATOM      9  C   UNL     1     -13.279  15.496  71.587  0.00  0.00    +0.003 A 
ATOM     10  C   UNL     1     -11.807  12.214  69.589  0.00  0.00    +0.003 A 
ATOM     11  C   UNL     1     -12.199  15.613  70.763  0.00  0.00    +0.037 A 
ENDBRANCH   1   2
BRANCH   1  12
ATOM     12  C   UNL     1     -11.288  15.706  68.017  0.00  0.00    +0.195 C 
BRANCH  12  13
ATOM     13  C   UNL     1     -10.928  14.615  66.832  0.00  0.00    +0.047 A 
ATOM     14  S   UNL     1     -12.361  13.922  66.151  0.00  0.00    -0.087 S 
ATOM     15  C   UNL     1     -11.724  13.545  64.599  0.00  0.00    +0.035 A 
ATOM     16  C   UNL     1     -10.430  14.023  64.771  0.00  0.00    +0.007 A 
ATOM     17  C   UNL     1     -10.414  15.098  65.629  0.00  0.00    +0.006 A 
ENDBRANCH  12  13
BRANCH  12  18
ATOM     18  C   UNL     1      -9.815  16.505  67.865  0.00  0.00    +0.068 C 
BRANCH  18  19
ATOM     19  C   UNL     1     -10.082  17.851  68.521  0.00  0.00    +0.093 C 
BRANCH  19  21
ATOM     20  C   UNL     1     -10.221  18.872  66.350  0.00  0.00    +0.107 C 
ATOM     21  N   UNL     1     -10.880  18.677  67.623  0.00  0.00    -0.216 NA
ENDBRANCH  19  21
ENDBRANCH  18  19
ENDBRANCH  12  18
ENDBRANCH   1  12
TORSDOF 6
ENDMDL
MODEL 3
REMARK VINA RESULT:      -6.1      1.909      3.594
REMARK  Name = 
REMARK  6 active torsions:
REMARK  status: ('A' for Active; 'I' for Inactive)
REMARK    1  A    between atoms: N_2  and  C_3
REMARK    2  A    between atoms: C_3  and  C_4
REMARK    3  A    between atoms: C_4  and  C_5
REMARK    4  A    between atoms: C_5  and  O_6
REMARK    5  A    between atoms: C_5  and  C_17
REMARK    6  A    between atoms: O_6  and  C_7
REMARK                            x       y       z     vdW  Elec       q    Type
REMARK                         _______ _______ _______ _____ _____    ______ ____
ROOT
ATOM      1  O   UNL     1     -10.821  14.414  68.704  0.00  0.00    -0.474 OA
ENDROOT
BRANCH   1   2
ATOM      2  C   UNL     1     -11.665  13.658  69.483  0.00  0.00    +0.139 A 
ATOM      3  C   UNL     1     -12.111  14.162  70.692  0.00  0.00    +0.034 A 
ATOM      4  C   UNL     1     -12.834  13.328  71.536  0.00  0.00    +0.003 A 
ATOM      5  C   UNL     1     -13.734  13.871  72.441  0.00  0.00    +0.000 A 
ATOM      6  C   UNL     1     -13.761  15.259  72.520  0.00  0.00    +0.000 A 
ATOM      7  C   UNL     1     -12.593  15.939  72.204  0.00  0.00    +0.000 A 
ATOM      8  C   UNL     1     -12.853  11.956  71.366  0.00  0.00    +0.000 A 
ATOM      9  C   UNL     1     -12.176  11.424  70.299  0.00  0.00    +0.003 A 
ATOM     10  C   UNL     1     -11.861  15.442  71.128  0.00  0.00    +0.003 A 
ATOM     11  C   UNL     1     -11.648  12.283  69.381  0.00  0.00    +0.037 A 
ENDBRANCH   1   2
BRANCH   1  12
ATOM     12  C   UNL     1     -11.550  15.220  67.567  0.00  0.00    +0.195 C 
BRANCH  12  13
ATOM     13  C   UNL     1     -11.183  14.066  66.445  0.00  0.00    +0.047 A 
ATOM     14  S   UNL     1     -12.561  13.660  65.479  0.00  0.00    -0.087 S 
ATOM     15  C   UNL     1     -11.717  13.147  64.072  0.00  0.00    +0.035 A 
ATOM     16  C   UNL     1     -10.414  13.364  64.506  0.00  0.00    +0.007 A 
ATOM     17  C   UNL     1     -10.359  14.425  65.380  0.00  0.00    +0.006 A 
ENDBRANCH  12  13
BRANCH  12  18
ATOM     18  C   UNL     1     -10.145  16.098  67.268  0.00  0.00    +0.068 C 
BRANCH  18  19
ATOM     19  C   UNL     1     -10.193  17.197  68.318  0.00  0.00    +0.093 C 
BRANCH  19  21
ATOM     20  C   UNL     1     -10.046  19.585  68.100  0.00  0.00    +0.107 C 
ATOM     21  N   UNL     1     -10.784  18.396  67.736  0.00  0.00    -0.216 NA
ENDBRANCH  19  21
ENDBRANCH  18  19
ENDBRANCH  12  18
ENDBRANCH   1  12
TORSDOF 6
ENDMDL
MODEL 4
REMARK VINA RESULT:      -5.8      2.231      2.675
REMARK  Name = 
REMARK  6 active torsions:
REMARK  status: ('A' for Active; 'I' for Inactive)
REMARK    1  A    between atoms: N_2  and  C_3
REMARK    2  A    between atoms: C_3  and  C_4
REMARK    3  A    between atoms: C_4  and  C_5
REMARK    4  A    between atoms: C_5  and  O_6
REMARK    5  A    between atoms: C_5  and  C_17
REMARK    6  A    between atoms: O_6  and  C_7
REMARK                            x       y       z     vdW  Elec       q    Type
REMARK                         _______ _______ _______ _____ _____    ______ ____
ROOT
ATOM      1  O   UNL     1     -11.127  13.338  68.520  0.00  0.00    -0.474 OA
ENDROOT
BRANCH   1   2
ATOM      2  C   UNL     1     -11.930  12.780  69.487  0.00  0.00    +0.139 A 
ATOM      3  C   UNL     1     -12.378  13.562  70.537  0.00  0.00    +0.034 A 
ATOM      4  C   UNL     1     -13.057  12.948  71.582  0.00  0.00    +0.003 A 
ATOM      5  C   UNL     1     -13.964  13.676  72.339  0.00  0.00    +0.000 A 
ATOM      6  C   UNL     1     -14.043  15.036  72.061  0.00  0.00    +0.000 A 
ATOM      7  C   UNL     1     -12.907  15.650  71.554  0.00  0.00    +0.000 A 
ATOM      8  C   UNL     1     -13.026  11.580  71.770  0.00  0.00    +0.000 A 
ATOM      9  C   UNL     1     -12.344  10.815  70.860  0.00  0.00    +0.003 A 
ATOM     10  C   UNL     1     -12.171  14.919  70.624  0.00  0.00    +0.003 A 
ATOM     11  C   UNL     1     -11.861  11.425  69.740  0.00  0.00    +0.037 A 
ENDBRANCH   1   2
BRANCH   1  12
ATOM     12  C   UNL     1     -11.248  12.651  67.112  0.00  0.00    +0.195 C 
BRANCH  12  13
ATOM     13  C   UNL     1      -9.646  12.900  66.797  0.00  0.00    +0.047 A 
ATOM     14  S   UNL     1      -9.070  14.346  67.554  0.00  0.00    -0.087 S 
ATOM     15  C   UNL     1      -7.420  13.890  67.706  0.00  0.00    +0.035 A 
ATOM     16  C   UNL     1      -7.492  12.617  67.150  0.00  0.00    +0.007 A 
ATOM     17  C   UNL     1      -8.719  12.046  67.392  0.00  0.00    +0.006 A 
ENDBRANCH  12  13
BRANCH  12  18
ATOM     18  C   UNL     1     -11.712  14.114  66.421  0.00  0.00    +0.068 C 
BRANCH  18  19
ATOM     19  C   UNL     1     -11.632  13.833  64.929  0.00  0.00    +0.093 C 
BRANCH  19  21
ATOM     20  C   UNL     1     -12.423  12.084  63.483  0.00  0.00    +0.107 C 
ATOM     21  N   UNL     1     -12.775  13.020  64.528  0.00  0.00    -0.216 NA
ENDBRANCH  19  21
ENDBRANCH  18  19
ENDBRANCH  12  18
ENDBRANCH   1  12
TORSDOF 6
ENDMDL
MODEL 5
REMARK VINA RESULT:      -5.8      2.391      5.068
REMARK  Name = 
REMARK  6 active torsions:
REMARK  status: ('A' for Active; 'I' for Inactive)
REMARK    1  A    between atoms: N_2  and  C_3
REMARK    2  A    between atoms: C_3  and  C_4
REMARK    3  A    between atoms: C_4  and  C_5
REMARK    4  A    between atoms: C_5  and  O_6
REMARK    5  A    between atoms: C_5  and  C_17
REMARK    6  A    between atoms: O_6  and  C_7
REMARK                            x       y       z     vdW  Elec       q    Type
REMARK                         _______ _______ _______ _____ _____    ______ ____
ROOT
ATOM      1  O   UNL     1     -12.060  14.302  69.289  0.00  0.00    -0.474 OA
ENDROOT
BRANCH   1   2
ATOM      2  C   UNL     1     -11.596  13.121  68.758  0.00  0.00    +0.139 A 
ATOM      3  C   UNL     1     -11.701  12.898  67.397  0.00  0.00    +0.034 A 
ATOM      4  C   UNL     1     -11.370  11.643  66.900  0.00  0.00    +0.003 A 
ATOM      5  C   UNL     1     -10.937  11.511  65.588  0.00  0.00    +0.000 A 
ATOM      6  C   UNL     1     -10.979  12.662  64.810  0.00  0.00    +0.000 A 
ATOM      7  C   UNL     1     -11.928  13.620  65.138  0.00  0.00    +0.000 A 
ATOM      8  C   UNL     1     -11.249  10.540  67.723  0.00  0.00    +0.000 A 
ATOM      9  C   UNL     1     -11.413  10.716  69.073  0.00  0.00    +0.003 A 
ATOM     10  C   UNL     1     -12.139  13.842  66.497  0.00  0.00    +0.003 A 
ATOM     11  C   UNL     1     -11.536  11.990  69.545  0.00  0.00    +0.037 A 
ENDBRANCH   1   2
BRANCH   1  12
ATOM     12  C   UNL     1     -10.928  15.257  69.815  0.00  0.00    +0.195 C 
BRANCH  12  13
ATOM     13  C   UNL     1     -11.908  15.844  71.007  0.00  0.00    +0.047 A 
ATOM     14  S   UNL     1     -13.490  15.148  70.926  0.00  0.00    -0.087 S 
ATOM     15  C   UNL     1     -13.904  15.311  72.587  0.00  0.00    +0.035 A 
ATOM     16  C   UNL     1     -12.728  15.894  73.049  0.00  0.00    +0.007 A 
ATOM     17  C   UNL     1     -11.646  15.458  72.321  0.00  0.00    +0.006 A 
ENDBRANCH  12  13
BRANCH  12  18
ATOM     18  C   UNL     1     -11.395  16.441  68.713  0.00  0.00    +0.068 C 
BRANCH  18  19
ATOM     19  C   UNL     1     -10.217  17.403  68.718  0.00  0.00    +0.093 C 
BRANCH  19  21
ATOM     20  C   UNL     1     -10.284  18.379  66.523  0.00  0.00    +0.107 C 
ATOM     21  N   UNL     1     -10.553  18.583  67.930  0.00  0.00    -0.216 NA
ENDBRANCH  19  21
ENDBRANCH  18  19
ENDBRANCH  12  18
ENDBRANCH   1  12
TORSDOF 6
ENDMDL
MODEL 6
REMARK VINA RESULT:      -5.7      2.226      4.009
REMARK  Name = 
REMARK  6 active torsions:
REMARK  status: ('A' for Active; 'I' for Inactive)
REMARK    1  A    between atoms: N_2  and  C_3
REMARK    2  A    between atoms: C_3  and  C_4
REMARK    3  A    between atoms: C_4  and  C_5
REMARK    4  A    between atoms: C_5  and  O_6
REMARK    5  A    between atoms: C_5  and  C_17
REMARK    6  A    between atoms: O_6  and  C_7
REMARK                            x       y       z     vdW  Elec       q    Type
REMARK                         _______ _______ _______ _____ _____    ______ ____
ROOT
ATOM      1  O   UNL     1     -10.876  13.007  67.375  0.00  0.00    -0.474 OA
ENDROOT
BRANCH   1   2
ATOM      2  C   UNL     1     -11.619  12.677  68.485  0.00  0.00    +0.139 A 
ATOM      3  C   UNL     1     -11.791  13.611  69.491  0.00  0.00    +0.034 A 
ATOM      4  C   UNL     1     -12.411  13.213  70.670  0.00  0.00    +0.003 A 
ATOM      5  C   UNL     1     -13.081  14.146  71.448  0.00  0.00    +0.000 A 
ATOM      6  C   UNL     1     -12.981  15.471  71.038  0.00  0.00    +0.000 A 
ATOM      7  C   UNL     1     -11.841  15.837  70.336  0.00  0.00    +0.000 A 
ATOM      8  C   UNL     1     -12.570  11.880  70.997  0.00  0.00    +0.000 A 
ATOM      9  C   UNL     1     -12.148  10.935  70.098  0.00  0.00    +0.003 A 
ATOM     10  C   UNL     1     -11.363  14.915  69.408  0.00  0.00    +0.003 A 
ATOM     11  C   UNL     1     -11.731  11.358  68.870  0.00  0.00    +0.037 A 
ENDBRANCH   1   2
BRANCH   1  12
ATOM     12  C   UNL     1     -11.739  13.380  66.115  0.00  0.00    +0.195 C 
BRANCH  12  13
ATOM     13  C   UNL     1     -11.317  11.979  65.349  0.00  0.00    +0.047 A 
ATOM     14  S   UNL     1     -11.365  12.158  63.629  0.00  0.00    -0.087 S 
ATOM     15  C   UNL     1     -10.206  10.952  63.235  0.00  0.00    +0.035 A 
ATOM     16  C   UNL     1      -9.881  10.532  64.521  0.00  0.00    +0.007 A 
ATOM     17  C   UNL     1      -9.986  11.570  65.416  0.00  0.00    +0.006 A 
ENDBRANCH  12  13
BRANCH  12  18
ATOM     18  C   UNL     1     -10.446  14.240  65.466  0.00  0.00    +0.068 C 
BRANCH  18  19
ATOM     19  C   UNL     1     -11.050  15.604  65.172  0.00  0.00    +0.093 C 
BRANCH  19  21
ATOM     20  C   UNL     1     -10.106  17.204  66.696  0.00  0.00    +0.107 C 
ATOM     21  N   UNL     1     -10.036  16.634  65.369  0.00  0.00    -0.216 NA
ENDBRANCH  19  21
ENDBRANCH  18  19
ENDBRANCH  12  18
ENDBRANCH   1  12
TORSDOF 6
ENDMDL
MODEL 7
REMARK VINA RESULT:      -5.6      0.990      2.509
REMARK  Name = 
REMARK  6 active torsions:
REMARK  status: ('A' for Active; 'I' for Inactive)
REMARK    1  A    between atoms: N_2  and  C_3
REMARK    2  A    between atoms: C_3  and  C_4
REMARK    3  A    between atoms: C_4  and  C_5
REMARK    4  A    between atoms: C_5  and  O_6
REMARK    5  A    between atoms: C_5  and  C_17
REMARK    6  A    between atoms: O_6  and  C_7
REMARK                            x       y       z     vdW  Elec       q    Type
REMARK                         _______ _______ _______ _____ _____    ______ ____
ROOT
ATOM      1  O   UNL     1     -11.274  15.689  67.961  0.00  0.00    -0.474 OA
ENDROOT
BRANCH   1   2
ATOM      2  C   UNL     1     -11.592  15.068  69.146  0.00  0.00    +0.139 A 
ATOM      3  C   UNL     1     -11.863  13.711  69.153  0.00  0.00    +0.034 A 
ATOM      4  C   UNL     1     -12.331  13.132  70.326  0.00  0.00    +0.003 A 
ATOM      5  C   UNL     1     -12.109  11.784  70.569  0.00  0.00    +0.000 A 
ATOM      6  C   UNL     1     -11.518  11.065  69.536  0.00  0.00    +0.000 A 
ATOM      7  C   UNL     1     -11.734  11.515  68.241  0.00  0.00    +0.000 A 
ATOM      8  C   UNL     1     -12.828  13.891  71.368  0.00  0.00    +0.000 A 
ATOM      9  C   UNL     1     -12.804  15.256  71.246  0.00  0.00    +0.003 A 
ATOM     10  C   UNL     1     -11.721  12.895  68.055  0.00  0.00    +0.003 A 
ATOM     11  C   UNL     1     -12.156  15.794  70.174  0.00  0.00    +0.037 A 
ENDBRANCH   1   2
BRANCH   1  12
ATOM     12  C   UNL     1      -9.730  15.833  67.706  0.00  0.00    +0.195 C 
BRANCH  12  13
ATOM     13  C   UNL     1      -9.740  17.400  68.227  0.00  0.00    +0.047 A 
ATOM     14  S   UNL     1      -8.198  18.152  68.002  0.00  0.00    -0.087 S 
ATOM     15  C   UNL     1      -8.746  19.776  67.870  0.00  0.00    +0.035 A 
ATOM     16  C   UNL     1     -10.113  19.557  68.004  0.00  0.00    +0.007 A 
ATOM     17  C   UNL     1     -10.466  18.332  67.488  0.00  0.00    +0.006 A 
ENDBRANCH  12  13
BRANCH  12  18
ATOM     18  C   UNL     1     -10.019  16.260  66.104  0.00  0.00    +0.068 C 
BRANCH  18  19
ATOM     19  C   UNL     1     -10.248  14.920  65.424  0.00  0.00    +0.093 C 
BRANCH  19  21
ATOM     20  C   UNL     1     -12.045  13.632  64.482  0.00  0.00    +0.107 C 
ATOM     21  N   UNL     1     -11.509  14.958  64.693  0.00  0.00    -0.216 NA
ENDBRANCH  19  21
ENDBRANCH  18  19
ENDBRANCH  12  18
ENDBRANCH   1  12
TORSDOF 6
ENDMDL
MODEL 8
REMARK VINA RESULT:      -5.6      1.799      2.189
REMARK  Name = 
REMARK  6 active torsions:
REMARK  status: ('A' for Active; 'I' for Inactive)
REMARK    1  A    between atoms: N_2  and  C_3
REMARK    2  A    between atoms: C_3  and  C_4
REMARK    3  A    between atoms: C_4  and  C_5
REMARK    4  A    between atoms: C_5  and  O_6
REMARK    5  A    between atoms: C_5  and  C_17
REMARK    6  A    between atoms: O_6  and  C_7
REMARK                            x       y       z     vdW  Elec       q    Type
REMARK                         _______ _______ _______ _____ _____    ______ ____
ROOT
ATOM      1  O   UNL     1     -11.388  15.819  68.468  0.00  0.00    -0.474 OA
ENDROOT
BRANCH   1   2
ATOM      2  C   UNL     1     -11.870  14.685  69.080  0.00  0.00    +0.139 A 
ATOM      3  C   UNL     1     -12.195  14.723  70.424  0.00  0.00    +0.034 A 
ATOM      4  C   UNL     1     -12.532  13.534  71.061  0.00  0.00    +0.003 A 
ATOM      5  C   UNL     1     -13.356  13.557  72.178  0.00  0.00    +0.000 A 
ATOM      6  C   UNL     1     -13.699  14.814  72.660  0.00  0.00    +0.000 A 
ATOM      7  C   UNL     1     -12.806  15.852  72.431  0.00  0.00    +0.000 A 
ATOM      8  C   UNL     1     -12.252  12.302  70.503  0.00  0.00    +0.000 A 
ATOM      9  C   UNL     1     -11.673  12.268  69.260  0.00  0.00    +0.003 A 
ATOM     10  C   UNL     1     -12.185  15.869  71.185  0.00  0.00    +0.003 A 
ATOM     11  C   UNL     1     -11.542  13.442  68.580  0.00  0.00    +0.037 A 
ENDBRANCH   1   2
BRANCH   1  12
ATOM     12  C   UNL     1      -9.825  15.968  68.534  0.00  0.00    +0.195 C 
BRANCH  12  13
ATOM     13  C   UNL     1      -9.935  17.614  68.597  0.00  0.00    +0.047 A 
ATOM     14  S   UNL     1      -8.391  18.362  68.363  0.00  0.00    -0.087 S 
ATOM     15  C   UNL     1      -8.949  19.856  67.721  0.00  0.00    +0.035 A 
ATOM     16  C   UNL     1     -10.318  19.606  67.743  0.00  0.00    +0.007 A 
ATOM     17  C   UNL     1     -10.575  18.270  67.546  0.00  0.00    +0.006 A 
ENDBRANCH  12  13
BRANCH  12  18
ATOM     18  C   UNL     1      -9.737  15.940  66.853  0.00  0.00    +0.068 C 
BRANCH  18  19
ATOM     19  C   UNL     1      -8.541  15.039  66.585  0.00  0.00    +0.093 C 
BRANCH  19  21
ATOM     20  C   UNL     1      -6.836  13.745  67.677  0.00  0.00    +0.107 C 
ATOM     21  N   UNL     1      -8.089  14.449  67.839  0.00  0.00    -0.216 NA
ENDBRANCH  19  21
ENDBRANCH  18  19
ENDBRANCH  12  18
ENDBRANCH   1  12
TORSDOF 6
ENDMDL
MODEL 9
REMARK VINA RESULT:      -5.6      2.713      6.130
REMARK  Name = 
REMARK  6 active torsions:
REMARK  status: ('A' for Active; 'I' for Inactive)
REMARK    1  A    between atoms: N_2  and  C_3
REMARK    2  A    between atoms: C_3  and  C_4
REMARK    3  A    between atoms: C_4  and  C_5
REMARK    4  A    between atoms: C_5  and  O_6
REMARK    5  A    between atoms: C_5  and  C_17
REMARK    6  A    between atoms: O_6  and  C_7
REMARK                            x       y       z     vdW  Elec       q    Type
REMARK                         _______ _______ _______ _____ _____    ______ ____
ROOT
ATOM      1  O   UNL     1     -10.305  15.627  66.019  0.00  0.00    -0.474 OA
ENDROOT
BRANCH   1   2
ATOM      2  C   UNL     1      -9.280  16.380  66.543  0.00  0.00    +0.139 A 
ATOM      3  C   UNL     1      -9.359  17.761  66.501  0.00  0.00    +0.034 A 
ATOM      4  C   UNL     1      -8.251  18.503  66.893  0.00  0.00    +0.003 A 
ATOM      5  C   UNL     1      -8.420  19.791  67.383  0.00  0.00    +0.000 A 
ATOM      6  C   UNL     1      -9.712  20.300  67.337  0.00  0.00    +0.000 A 
ATOM      7  C   UNL     1     -10.554  19.816  66.344  0.00  0.00    +0.000 A 
ATOM      8  C   UNL     1      -6.997  17.936  67.014  0.00  0.00    +0.000 A 
ATOM      9  C   UNL     1      -6.869  16.590  66.790  0.00  0.00    +0.003 A 
ATOM     10  C   UNL     1     -10.467  18.453  66.071  0.00  0.00    +0.003 A 
ATOM     11  C   UNL     1      -8.005  15.857  66.607  0.00  0.00    +0.037 A 
ENDBRANCH   1   2
BRANCH   1  12
ATOM     12  C   UNL     1     -10.264  14.112  66.436  0.00  0.00    +0.195 C 
BRANCH  12  13
ATOM     13  C   UNL     1     -10.684  13.630  64.914  0.00  0.00    +0.047 A 
ATOM     14  S   UNL     1     -10.301  11.964  64.648  0.00  0.00    -0.087 S 
ATOM     15  C   UNL     1     -11.489  11.638  63.450  0.00  0.00    +0.035 A 
ATOM     16  C   UNL     1     -12.089  12.891  63.390  0.00  0.00    +0.007 A 
ATOM     17  C   UNL     1     -12.041  13.517  64.613  0.00  0.00    +0.006 A 
ENDBRANCH  12  13
BRANCH  12  18
ATOM     18  C   UNL     1     -11.862  14.197  66.957  0.00  0.00    +0.068 C 
BRANCH  18  19
ATOM     19  C   UNL     1     -11.850  13.390  68.246  0.00  0.00    +0.093 C 
BRANCH  19  21
ATOM     20  C   UNL     1     -11.727  11.141  69.085  0.00  0.00    +0.107 C 
ATOM     21  N   UNL     1     -11.983  11.973  67.930  0.00  0.00    -0.216 NA
ENDBRANCH  19  21
ENDBRANCH  18  19
ENDBRANCH  12  18
ENDBRANCH   1  12
TORSDOF 6
ENDMDL
