MODEL 1
REMARK VINA RESULT:      -7.8      0.000      0.000
REMARK  Name = 
REMARK  2 active torsions:
REMARK  status: ('A' for Active; 'I' for Inactive)
REMARK    1  A    between atoms: C_5  and  N_6
REMARK    2  A    between atoms: C_11  and  C_12
REMARK                            x       y       z     vdW  Elec       q    Type
REMARK                         _______ _______ _______ _____ _____    ______ ____
ROOT
ATOM      1  C   UNL     1     -11.249  13.761  68.096  0.00  0.00    +0.251 C 
ATOM      2  N   UNL     1     -10.044  13.793  67.372  0.00  0.00    -0.276 N 
ATOM      3  C   UNL     1      -8.828  13.230  68.215  0.00  0.00    +0.077 C 
ATOM      4  C   UNL     1      -7.742  14.231  67.458  0.00  0.00    +0.022 C 
ATOM      5  C   UNL     1      -8.499  12.001  67.150  0.00  0.00    +0.041 C 
ATOM      6  C   UNL     1      -9.750  11.179  67.083  0.00  0.00    +0.097 C 
ATOM      7  N   UNL     1     -10.362  11.420  65.777  0.00  0.00    -0.262 N 
ATOM      8  C   UNL     1      -9.730  10.751  64.680  0.00  0.00    +0.292 A 
ATOM      9  O   UNL     1      -9.102  11.410  63.723  0.00  0.00    -0.424 OA
ATOM     10  C   UNL     1      -8.698  10.577  62.808  0.00  0.00    +0.166 A 
ATOM     11  C   UNL     1      -8.873   9.302  63.317  0.00  0.00    +0.121 A 
ATOM     12  C   UNL     1      -8.406   8.261  62.560  0.00  0.00    +0.034 A 
ATOM     13  C   UNL     1      -7.944   8.495  61.269  0.00  0.00    +0.059 A 
ATOM     14  C   UNL     1      -7.721   9.775  60.806  0.00  0.00    +0.015 A 
ATOM     15 CL   UNL     1      -7.700   7.148  60.164  0.00  0.00    -0.082 Cl
ATOM     16  C   UNL     1      -8.235  10.806  61.542  0.00  0.00    +0.040 A 
ATOM     17  N   UNL     1      -9.390   9.455  64.560  0.00  0.00    -0.195 NA
ATOM     18  C   UNL     1     -10.943  12.707  65.402  0.00  0.00    +0.117 C 
ATOM     19  C   UNL     1     -10.118  13.867  65.949  0.00  0.00    +0.115 C 
ATOM     20  O   UNL     1     -12.165  13.021  67.619  0.00  0.00    -0.270 OA
ENDROOT
BRANCH   1  24
ATOM     21  C   UNL     1     -14.407  14.645  71.748  0.00  0.00    +0.031 C 
ATOM     22  C   UNL     1     -13.067  14.812  71.184  0.00  0.00    -0.022 A 
ATOM     23  C   UNL     1     -12.566  14.022  70.158  0.00  0.00    +0.002 A 
ATOM     24  C   UNL     1     -11.549  14.463  69.317  0.00  0.00    +0.073 A 
ATOM     25  C   UNL     1     -11.083  15.738  69.581  0.00  0.00    +0.107 A 
ATOM     26  C   UNL     1     -11.197  16.223  70.880  0.00  0.00    +0.021 A 
ATOM     27  C   UNL     1     -12.292  15.877  71.628  0.00  0.00    -0.003 A 
BRANCH  25  28
ATOM     28  N   UNL     1     -10.541  16.537  68.520  0.00  0.00    -0.148 N 
ATOM     29  N   UNL     1      -9.333  17.071  68.727  0.00  0.00    -0.145 NA
ATOM     30  C   UNL     1      -9.101  17.978  67.746  0.00  0.00    +0.145 A 
ATOM     31  C   UNL     1     -10.373  18.480  67.498  0.00  0.00    +0.145 A 
ATOM     32  N   UNL     1     -11.222  17.508  67.911  0.00  0.00    -0.145 NA
ENDBRANCH  25  28
ENDBRANCH   1  24
TORSDOF 2
ENDMDL
MODEL 2
REMARK VINA RESULT:      -7.8      4.787      7.664
REMARK  Name = 
REMARK  2 active torsions:
REMARK  status: ('A' for Active; 'I' for Inactive)
REMARK    1  A    between atoms: C_5  and  N_6
REMARK    2  A    between atoms: C_11  and  C_12
REMARK                            x       y       z     vdW  Elec       q    Type
REMARK                         _______ _______ _______ _____ _____    ______ ____
ROOT
ATOM      1  C   UNL     1     -10.018  17.045  68.371  0.00  0.00    +0.251 C 
ATOM      2  N   UNL     1      -8.644  17.230  68.607  0.00  0.00    -0.276 N 
ATOM      3  C   UNL     1      -7.808  15.916  68.316  0.00  0.00    +0.077 C 
ATOM      4  C   UNL     1      -6.682  16.285  69.478  0.00  0.00    +0.022 C 
ATOM      5  C   UNL     1      -6.879  16.621  67.135  0.00  0.00    +0.041 C 
ATOM      6  C   UNL     1      -7.843  17.089  66.088  0.00  0.00    +0.097 C 
ATOM      7  N   UNL     1      -7.896  18.549  66.162  0.00  0.00    -0.262 N 
ATOM      8  C   UNL     1      -6.771  19.224  65.587  0.00  0.00    +0.292 A 
ATOM      9  O   UNL     1      -5.919  19.919  66.320  0.00  0.00    -0.424 OA
ATOM     10  C   UNL     1      -5.048  20.501  65.548  0.00  0.00    +0.166 A 
ATOM     11  C   UNL     1      -5.210  19.966  64.281  0.00  0.00    +0.121 A 
ATOM     12  C   UNL     1      -4.315  20.356  63.322  0.00  0.00    +0.034 A 
ATOM     13  C   UNL     1      -3.406  21.375  63.595  0.00  0.00    +0.059 A 
ATOM     14  C   UNL     1      -3.221  21.849  64.877  0.00  0.00    +0.015 A 
ATOM     15 CL   UNL     1      -2.519  22.137  62.281  0.00  0.00    -0.082 Cl
ATOM     16  C   UNL     1      -4.149  21.495  65.816  0.00  0.00    +0.040 A 
ATOM     17  N   UNL     1      -6.210  19.056  64.376  0.00  0.00    -0.195 NA
ATOM     18  C   UNL     1      -8.469  19.262  67.301  0.00  0.00    +0.117 C 
ATOM     19  C   UNL     1      -8.138  18.564  68.616  0.00  0.00    +0.115 C 
ATOM     20  O   UNL     1     -10.526  17.762  67.454  0.00  0.00    -0.270 OA
ENDROOT
BRANCH   1  24
ATOM     21  C   UNL     1     -11.714  15.207  72.594  0.00  0.00    +0.031 C 
ATOM     22  C   UNL     1     -11.821  15.301  71.138  0.00  0.00    -0.022 A 
ATOM     23  C   UNL     1     -11.210  16.299  70.390  0.00  0.00    +0.002 A 
ATOM     24  C   UNL     1     -10.900  16.128  69.045  0.00  0.00    +0.073 A 
ATOM     25  C   UNL     1     -11.244  14.896  68.517  0.00  0.00    +0.107 A 
ATOM     26  C   UNL     1     -12.298  14.203  69.102  0.00  0.00    +0.021 A 
ATOM     27  C   UNL     1     -12.483  14.286  70.457  0.00  0.00    -0.003 A 
BRANCH  25  28
ATOM     28  N   UNL     1     -10.491  14.349  67.425  0.00  0.00    -0.148 N 
ATOM     29  N   UNL     1     -11.002  14.512  66.202  0.00  0.00    -0.145 NA
ATOM     30  C   UNL     1     -10.302  13.728  65.346  0.00  0.00    +0.145 A 
ATOM     31  C   UNL     1      -9.975  12.637  66.142  0.00  0.00    +0.145 A 
ATOM     32  N   UNL     1     -10.017  13.102  67.413  0.00  0.00    -0.145 NA
ENDBRANCH  25  28
ENDBRANCH   1  24
TORSDOF 2
ENDMDL
MODEL 3
REMARK VINA RESULT:      -7.6      2.888      4.652
REMARK  Name = 
REMARK  2 active torsions:
REMARK  status: ('A' for Active; 'I' for Inactive)
REMARK    1  A    between atoms: C_5  and  N_6
REMARK    2  A    between atoms: C_11  and  C_12
REMARK                            x       y       z     vdW  Elec       q    Type
REMARK                         _______ _______ _______ _____ _____    ______ ____
ROOT
ATOM      1  C   UNL     1      -9.823  13.903  67.239  0.00  0.00    +0.251 C 
ATOM      2  N   UNL     1     -10.717  12.979  66.671  0.00  0.00    -0.276 N 
ATOM      3  C   UNL     1     -10.719  13.047  65.088  0.00  0.00    +0.077 C 
ATOM      4  C   UNL     1     -12.316  12.606  64.997  0.00  0.00    +0.022 C 
ATOM      5  C   UNL     1     -10.231  11.473  64.897  0.00  0.00    +0.041 C 
ATOM      6  C   UNL     1      -8.910  11.371  65.596  0.00  0.00    +0.097 C 
ATOM      7  N   UNL     1      -9.119  10.591  66.815  0.00  0.00    -0.262 N 
ATOM      8  C   UNL     1      -9.248   9.179  66.614  0.00  0.00    +0.292 A 
ATOM      9  O   UNL     1     -10.378   8.536  66.850  0.00  0.00    -0.424 OA
ATOM     10  C   UNL     1     -10.202   7.258  66.675  0.00  0.00    +0.166 A 
ATOM     11  C   UNL     1      -8.964   7.100  66.076  0.00  0.00    +0.121 A 
ATOM     12  C   UNL     1      -8.615   5.832  65.694  0.00  0.00    +0.034 A 
ATOM     13  C   UNL     1      -9.412   4.753  66.064  0.00  0.00    +0.059 A 
ATOM     14  C   UNL     1     -10.668   4.938  66.605  0.00  0.00    +0.015 A 
ATOM     15 CL   UNL     1      -8.797   3.112  65.915  0.00  0.00    -0.082 Cl
ATOM     16  C   UNL     1     -10.988   6.197  67.029  0.00  0.00    +0.040 A 
ATOM     17  N   UNL     1      -8.453   8.345  65.919  0.00  0.00    -0.195 NA
ATOM     18  C   UNL     1      -9.909  11.081  67.942  0.00  0.00    +0.117 C 
ATOM     19  C   UNL     1     -11.127  11.866  67.465  0.00  0.00    +0.115 C 
ATOM     20  O   UNL     1      -8.865  13.409  67.912  0.00  0.00    -0.270 OA
ENDROOT
BRANCH   1  24
ATOM     21  C   UNL     1      -7.503  18.099  66.189  0.00  0.00    +0.031 C 
ATOM     22  C   UNL     1      -8.752  17.403  66.500  0.00  0.00    -0.022 A 
ATOM     23  C   UNL     1      -8.906  16.027  66.401  0.00  0.00    +0.002 A 
ATOM     24  C   UNL     1      -9.869  15.338  67.131  0.00  0.00    +0.073 A 
ATOM     25  C   UNL     1     -10.653  16.125  67.955  0.00  0.00    +0.107 A 
ATOM     26  C   UNL     1     -10.838  17.459  67.607  0.00  0.00    +0.021 A 
ATOM     27  C   UNL     1      -9.809  18.144  67.016  0.00  0.00    -0.003 A 
BRANCH  25  28
ATOM     28  N   UNL     1     -11.213  15.572  69.155  0.00  0.00    -0.148 N 
ATOM     29  N   UNL     1     -12.453  15.955  69.472  0.00  0.00    -0.145 NA
ATOM     30  C   UNL     1     -12.711  15.540  70.736  0.00  0.00    +0.145 A 
ATOM     31  C   UNL     1     -11.464  15.635  71.341  0.00  0.00    +0.145 A 
ATOM     32  N   UNL     1     -10.572  15.556  70.325  0.00  0.00    -0.145 NA
ENDBRANCH  25  28
ENDBRANCH   1  24
TORSDOF 2
ENDMDL
MODEL 4
REMARK VINA RESULT:      -7.6      5.462      9.003
REMARK  Name = 
REMARK  2 active torsions:
REMARK  status: ('A' for Active; 'I' for Inactive)
REMARK    1  A    between atoms: C_5  and  N_6
REMARK    2  A    between atoms: C_11  and  C_12
REMARK                            x       y       z     vdW  Elec       q    Type
REMARK                         _______ _______ _______ _____ _____    ______ ____
ROOT
ATOM      1  C   UNL     1      -6.725  18.622  66.548  0.00  0.00    +0.251 C 
ATOM      2  N   UNL     1      -7.912  18.965  67.218  0.00  0.00    -0.276 N 
ATOM      3  C   UNL     1      -9.114  19.204  66.214  0.00  0.00    +0.077 C 
ATOM      4  C   UNL     1      -9.818  20.332  67.208  0.00  0.00    +0.022 C 
ATOM      5  C   UNL     1     -10.052  17.994  66.856  0.00  0.00    +0.041 C 
ATOM      6  C   UNL     1      -9.249  16.739  66.707  0.00  0.00    +0.097 C 
ATOM      7  N   UNL     1      -8.789  16.352  68.040  0.00  0.00    -0.262 N 
ATOM      8  C   UNL     1      -9.788  15.748  68.871  0.00  0.00    +0.292 A 
ATOM      9  O   UNL     1     -10.239  16.335  69.966  0.00  0.00    -0.424 OA
ATOM     10  C   UNL     1     -11.068  15.541  70.580  0.00  0.00    +0.166 A 
ATOM     11  C   UNL     1     -11.335  14.491  69.719  0.00  0.00    +0.121 A 
ATOM     12  C   UNL     1     -12.279  13.583  70.118  0.00  0.00    +0.034 A 
ATOM     13  C   UNL     1     -12.796  13.644  71.409  0.00  0.00    +0.059 A 
ATOM     14  C   UNL     1     -12.564  14.730  72.227  0.00  0.00    +0.015 A 
ATOM     15 CL   UNL     1     -13.709  12.286  72.056  0.00  0.00    -0.082 Cl
ATOM     16  C   UNL     1     -11.585  15.604  71.844  0.00  0.00    +0.040 A 
ATOM     17  N   UNL     1     -10.623  14.731  68.591  0.00  0.00    -0.195 NA
ATOM     18  C   UNL     1      -7.812  17.131  68.797  0.00  0.00    +0.117 C 
ATOM     19  C   UNL     1      -8.025  18.628  68.600  0.00  0.00    +0.115 C 
ATOM     20  O   UNL     1      -6.253  17.470  66.806  0.00  0.00    -0.270 OA
ENDROOT
BRANCH   1  24
ATOM     21  C   UNL     1      -4.901  19.126  62.019  0.00  0.00    +0.031 C 
ATOM     22  C   UNL     1      -5.195  19.721  63.323  0.00  0.00    -0.022 A 
ATOM     23  C   UNL     1      -6.080  19.162  64.236  0.00  0.00    +0.002 A 
ATOM     24  C   UNL     1      -5.997  19.424  65.599  0.00  0.00    +0.073 A 
ATOM     25  C   UNL     1      -4.972  20.276  65.970  0.00  0.00    +0.107 A 
ATOM     26  C   UNL     1      -4.514  21.198  65.036  0.00  0.00    +0.021 A 
ATOM     27  C   UNL     1      -4.479  20.847  63.712  0.00  0.00    -0.003 A 
BRANCH  25  28
ATOM     28  N   UNL     1      -4.381  20.162  67.273  0.00  0.00    -0.148 N 
ATOM     29  N   UNL     1      -4.923  20.902  68.245  0.00  0.00    -0.145 NA
ATOM     30  C   UNL     1      -4.095  20.858  69.317  0.00  0.00    +0.145 A 
ATOM     31  C   UNL     1      -2.842  20.773  68.723  0.00  0.00    +0.145 A 
ATOM     32  N   UNL     1      -3.069  20.249  67.495  0.00  0.00    -0.145 NA
ENDBRANCH  25  28
ENDBRANCH   1  24
TORSDOF 2
ENDMDL
MODEL 5
REMARK VINA RESULT:      -7.2      2.368      3.822
REMARK  Name = 
REMARK  2 active torsions:
REMARK  status: ('A' for Active; 'I' for Inactive)
REMARK    1  A    between atoms: C_5  and  N_6
REMARK    2  A    between atoms: C_11  and  C_12
REMARK                            x       y       z     vdW  Elec       q    Type
REMARK                         _______ _______ _______ _____ _____    ______ ____
ROOT
ATOM      1  C   UNL     1     -11.587  12.217  68.298  0.00  0.00    +0.251 C 
ATOM      2  N   UNL     1     -10.471  12.681  67.579  0.00  0.00    -0.276 N 
ATOM      3  C   UNL     1      -9.121  12.492  68.386  0.00  0.00    +0.077 C 
ATOM      4  C   UNL     1      -8.432  13.834  67.695  0.00  0.00    +0.022 C 
ATOM      5  C   UNL     1      -8.434  11.501  67.246  0.00  0.00    +0.041 C 
ATOM      6  C   UNL     1      -9.353  10.325  67.126  0.00  0.00    +0.097 C 
ATOM      7  N   UNL     1     -10.037  10.433  65.837  0.00  0.00    -0.262 N 
ATOM      8  C   UNL     1      -9.243  10.071  64.700  0.00  0.00    +0.292 A 
ATOM      9  O   UNL     1      -8.880  10.955  63.787  0.00  0.00    -0.424 OA
ATOM     10  C   UNL     1      -8.246  10.354  62.822  0.00  0.00    +0.166 A 
ATOM     11  C   UNL     1      -7.991   9.062  63.249  0.00  0.00    +0.121 A 
ATOM     12  C   UNL     1      -7.227   8.276  62.429  0.00  0.00    +0.034 A 
ATOM     13  C   UNL     1      -6.890   8.724  61.155  0.00  0.00    +0.059 A 
ATOM     14  C   UNL     1      -7.102  10.033  60.774  0.00  0.00    +0.015 A 
ATOM     15 CL   UNL     1      -6.246   7.598  59.968  0.00  0.00    -0.082 Cl
ATOM     16  C   UNL     1      -7.907  10.796  61.574  0.00  0.00    +0.040 A 
ATOM     17  N   UNL     1      -8.505   8.964  64.499  0.00  0.00    -0.195 NA
ATOM     18  C   UNL     1     -11.009  11.483  65.543  0.00  0.00    +0.117 C 
ATOM     19  C   UNL     1     -10.592  12.813  66.163  0.00  0.00    +0.115 C 
ATOM     20  O   UNL     1     -12.224  11.251  67.774  0.00  0.00    -0.270 OA
ENDROOT
BRANCH   1  24
ATOM     21  C   UNL     1     -11.623  15.786  71.668  0.00  0.00    +0.031 C 
ATOM     22  C   UNL     1     -12.179  14.526  71.173  0.00  0.00    -0.022 A 
ATOM     23  C   UNL     1     -11.983  14.060  69.880  0.00  0.00    +0.002 A 
ATOM     24  C   UNL     1     -12.074  12.709  69.561  0.00  0.00    +0.073 A 
ATOM     25  C   UNL     1     -12.369  11.875  70.624  0.00  0.00    +0.107 A 
ATOM     26  C   UNL     1     -13.079  12.405  71.697  0.00  0.00    +0.021 A 
ATOM     27  C   UNL     1     -12.854  13.705  72.069  0.00  0.00    -0.003 A 
BRANCH  25  28
ATOM     28  N   UNL     1     -11.909  10.516  70.620  0.00  0.00    -0.148 N 
ATOM     29  N   UNL     1     -12.444   9.697  71.529  0.00  0.00    -0.145 NA
ATOM     30  C   UNL     1     -11.721   8.551  71.540  0.00  0.00    +0.145 A 
ATOM     31  C   UNL     1     -10.439   9.005  71.254  0.00  0.00    +0.145 A 
ATOM     32  N   UNL     1     -10.619  10.178  70.602  0.00  0.00    -0.145 NA
ENDBRANCH  25  28
ENDBRANCH   1  24
TORSDOF 2
ENDMDL
MODEL 6
REMARK VINA RESULT:      -7.2      5.114      6.698
REMARK  Name = 
REMARK  2 active torsions:
REMARK  status: ('A' for Active; 'I' for Inactive)
REMARK    1  A    between atoms: C_5  and  N_6
REMARK    2  A    between atoms: C_11  and  C_12
REMARK                            x       y       z     vdW  Elec       q    Type
REMARK                         _______ _______ _______ _____ _____    ______ ____
ROOT
ATOM      1  C   UNL     1     -10.839  11.337  68.080  0.00  0.00    +0.251 C 
ATOM      2  N   UNL     1      -9.741  10.461  68.018  0.00  0.00    -0.276 N 
ATOM      3  C   UNL     1      -8.612  10.847  69.060  0.00  0.00    +0.077 C 
ATOM      4  C   UNL     1      -7.404  10.276  68.076  0.00  0.00    +0.022 C 
ATOM      5  C   UNL     1      -8.693   9.401  69.870  0.00  0.00    +0.041 C 
ATOM      6  C   UNL     1     -10.102   9.294  70.366  0.00  0.00    +0.097 C 
ATOM      7  N   UNL     1     -10.770   8.267  69.567  0.00  0.00    -0.262 N 
ATOM      8  C   UNL     1     -10.429   6.918  69.910  0.00  0.00    +0.292 A 
ATOM      9  O   UNL     1      -9.764   6.131  69.083  0.00  0.00    -0.424 OA
ATOM     10  C   UNL     1      -9.662   4.939  69.596  0.00  0.00    +0.166 A 
ATOM     11  C   UNL     1     -10.081   5.030  70.913  0.00  0.00    +0.121 A 
ATOM     12  C   UNL     1      -9.952   3.907  71.686  0.00  0.00    +0.034 A 
ATOM     13  C   UNL     1      -9.582   2.701  71.099  0.00  0.00    +0.059 A 
ATOM     14  C   UNL     1      -9.111   2.646  69.804  0.00  0.00    +0.015 A 
ATOM     15 CL   UNL     1      -9.776   1.195  71.986  0.00  0.00    -0.082 Cl
ATOM     16  C   UNL     1      -9.290   3.755  69.024  0.00  0.00    +0.040 A 
ATOM     17  N   UNL     1     -10.418   6.327  71.118  0.00  0.00    -0.195 NA
ATOM     18  C   UNL     1     -11.066   8.437  68.147  0.00  0.00    +0.117 C 
ATOM     19  C   UNL     1      -9.939   9.175  67.432  0.00  0.00    +0.115 C 
ATOM     20  O   UNL     1     -11.948  10.816  68.418  0.00  0.00    -0.270 OA
ENDROOT
BRANCH   1  24
ATOM     21  C   UNL     1     -11.932  15.878  69.588  0.00  0.00    +0.031 C 
ATOM     22  C   UNL     1     -11.277  15.007  68.611  0.00  0.00    -0.022 A 
ATOM     23  C   UNL     1     -10.994  13.669  68.849  0.00  0.00    +0.002 A 
ATOM     24  C   UNL     1     -10.840  12.752  67.814  0.00  0.00    +0.073 A 
ATOM     25  C   UNL     1     -10.990  13.275  66.542  0.00  0.00    +0.107 A 
ATOM     26  C   UNL     1     -10.712  14.623  66.350  0.00  0.00    +0.021 A 
ATOM     27  C   UNL     1     -11.012  15.516  67.345  0.00  0.00    -0.003 A 
BRANCH  25  28
ATOM     28  N   UNL     1     -11.464  12.440  65.476  0.00  0.00    -0.148 N 
ATOM     29  N   UNL     1     -10.583  12.129  64.519  0.00  0.00    -0.145 NA
ATOM     30  C   UNL     1     -11.262  11.561  63.492  0.00  0.00    +0.145 A 
ATOM     31  C   UNL     1     -12.479  12.229  63.534  0.00  0.00    +0.145 A 
ATOM     32  N   UNL     1     -12.595  12.672  64.809  0.00  0.00    -0.145 NA
ENDBRANCH  25  28
ENDBRANCH   1  24
TORSDOF 2
ENDMDL
MODEL 7
REMARK VINA RESULT:      -7.1      4.630      8.345
REMARK  Name = 
REMARK  2 active torsions:
REMARK  status: ('A' for Active; 'I' for Inactive)
REMARK    1  A    between atoms: C_5  and  N_6
REMARK    2  A    between atoms: C_11  and  C_12
REMARK                            x       y       z     vdW  Elec       q    Type
REMARK                         _______ _______ _______ _____ _____    ______ ____
ROOT
ATOM      1  C   UNL     1     -10.316   8.968  67.924  0.00  0.00    +0.251 C 
ATOM      2  N   UNL     1      -9.590  10.015  68.520  0.00  0.00    -0.276 N 
ATOM      3  C   UNL     1      -8.095  10.075  67.999  0.00  0.00    +0.077 C 
ATOM      4  C   UNL     1      -7.537  10.670  69.444  0.00  0.00    +0.022 C 
ATOM      5  C   UNL     1      -8.243  11.607  67.379  0.00  0.00    +0.041 C 
ATOM      6  C   UNL     1      -9.340  11.528  66.362  0.00  0.00    +0.097 C 
ATOM      7  N   UNL     1     -10.502  12.223  66.917  0.00  0.00    -0.262 N 
ATOM      8  C   UNL     1     -10.422  13.653  66.884  0.00  0.00    +0.292 A 
ATOM      9  O   UNL     1     -10.345  14.377  67.986  0.00  0.00    -0.424 OA
ATOM     10  C   UNL     1     -10.375  15.643  67.683  0.00  0.00    +0.166 A 
ATOM     11  C   UNL     1     -10.232  15.733  66.309  0.00  0.00    +0.121 A 
ATOM     12  C   UNL     1     -10.123  16.989  65.776  0.00  0.00    +0.034 A 
ATOM     13  C   UNL     1     -10.327  18.105  66.582  0.00  0.00    +0.059 A 
ATOM     14  C   UNL     1     -10.406  17.995  67.955  0.00  0.00    +0.015 A 
ATOM     15 CL   UNL     1     -10.562  19.687  65.852  0.00  0.00    -0.082 Cl
ATOM     16  C   UNL     1     -10.566  16.741  68.475  0.00  0.00    +0.040 A 
ATOM     17  N   UNL     1     -10.117  14.462  65.853  0.00  0.00    -0.195 NA
ATOM     18  C   UNL     1     -11.250  11.719  68.066  0.00  0.00    +0.117 C 
ATOM     19  C   UNL     1     -10.322  11.094  69.100  0.00  0.00    +0.115 C 
ATOM     20  O   UNL     1     -11.313   9.315  67.216  0.00  0.00    -0.270 OA
ENDROOT
BRANCH   1  24
ATOM     21  C   UNL     1     -10.207   4.569  65.750  0.00  0.00    +0.031 C 
ATOM     22  C   UNL     1      -9.883   5.400  66.910  0.00  0.00    -0.022 A 
ATOM     23  C   UNL     1      -9.867   6.788  66.875  0.00  0.00    +0.002 A 
ATOM     24  C   UNL     1     -10.045   7.557  68.020  0.00  0.00    +0.073 A 
ATOM     25  C   UNL     1     -10.239   6.836  69.185  0.00  0.00    +0.107 A 
ATOM     26  C   UNL     1      -9.704   5.555  69.260  0.00  0.00    +0.021 A 
ATOM     27  C   UNL     1      -9.677   4.775  68.134  0.00  0.00    -0.003 A 
BRANCH  25  28
ATOM     28  N   UNL     1     -11.012   7.398  70.256  0.00  0.00    -0.148 N 
ATOM     29  N   UNL     1     -10.337   7.805  71.334  0.00  0.00    -0.145 NA
ATOM     30  C   UNL     1     -11.233   8.063  72.318  0.00  0.00    +0.145 A 
ATOM     31  C   UNL     1     -12.225   7.123  72.072  0.00  0.00    +0.145 A 
ATOM     32  N   UNL     1     -12.101   6.815  70.758  0.00  0.00    -0.145 NA
ENDBRANCH  25  28
ENDBRANCH   1  24
TORSDOF 2
ENDMDL
MODEL 8
REMARK VINA RESULT:      -7.0      3.416      4.233
REMARK  Name = 
REMARK  2 active torsions:
REMARK  status: ('A' for Active; 'I' for Inactive)
REMARK    1  A    between atoms: C_5  and  N_6
REMARK    2  A    between atoms: C_11  and  C_12
REMARK                            x       y       z     vdW  Elec       q    Type
REMARK                         _______ _______ _______ _____ _____    ______ ____
ROOT
ATOM      1  C   UNL     1     -11.049  11.561  68.192  0.00  0.00    +0.251 C 
ATOM      2  N   UNL     1      -9.802  10.942  67.999  0.00  0.00    -0.276 N 
ATOM      3  C   UNL     1      -9.109  10.559  69.371  0.00  0.00    +0.077 C 
ATOM      4  C   UNL     1      -7.586  10.771  68.747  0.00  0.00    +0.022 C 
ATOM      5  C   UNL     1      -9.064   8.934  69.036  0.00  0.00    +0.041 C 
ATOM      6  C   UNL     1     -10.489   8.524  68.829  0.00  0.00    +0.097 C 
ATOM      7  N   UNL     1     -10.667   8.264  67.401  0.00  0.00    -0.262 N 
ATOM      8  C   UNL     1     -10.126   7.020  66.941  0.00  0.00    +0.292 A 
ATOM      9  O   UNL     1      -9.103   6.965  66.106  0.00  0.00    -0.424 OA
ATOM     10  C   UNL     1      -8.868   5.727  65.780  0.00  0.00    +0.166 A 
ATOM     11  C   UNL     1      -9.629   4.936  66.624  0.00  0.00    +0.121 A 
ATOM     12  C   UNL     1      -9.452   3.581  66.534  0.00  0.00    +0.034 A 
ATOM     13  C   UNL     1      -8.671   3.051  65.511  0.00  0.00    +0.059 A 
ATOM     14  C   UNL     1      -7.877   3.856  64.721  0.00  0.00    +0.015 A 
ATOM     15 CL   UNL     1      -8.739   1.330  65.154  0.00  0.00    -0.082 Cl
ATOM     16  C   UNL     1      -8.095   5.204  64.782  0.00  0.00    +0.040 A 
ATOM     17  N   UNL     1     -10.298   5.784  67.442  0.00  0.00    -0.195 NA
ATOM     18  C   UNL     1     -10.609   9.319  66.392  0.00  0.00    +0.117 C 
ATOM     19  C   UNL     1      -9.536  10.349  66.729  0.00  0.00    +0.115 C 
ATOM     20  O   UNL     1     -12.056  10.942  67.726  0.00  0.00    -0.270 OA
ENDROOT
BRANCH   1  24
ATOM     21  C   UNL     1     -13.495  14.009  71.674  0.00  0.00    +0.031 C 
ATOM     22  C   UNL     1     -12.434  13.992  70.666  0.00  0.00    -0.022 A 
ATOM     23  C   UNL     1     -11.922  12.826  70.115  0.00  0.00    +0.002 A 
ATOM     24  C   UNL     1     -11.307  12.807  68.867  0.00  0.00    +0.073 A 
ATOM     25  C   UNL     1     -11.248  14.031  68.225  0.00  0.00    +0.107 A 
ATOM     26  C   UNL     1     -11.247  15.182  69.006  0.00  0.00    +0.021 A 
ATOM     27  C   UNL     1     -11.983  15.207  70.161  0.00  0.00    -0.003 A 
BRANCH  25  28
ATOM     28  N   UNL     1     -11.235  14.090  66.792  0.00  0.00    -0.148 N 
ATOM     29  N   UNL     1     -10.580  15.115  66.238  0.00  0.00    -0.145 NA
ATOM     30  C   UNL     1     -10.884  15.143  64.918  0.00  0.00    +0.145 A 
ATOM     31  C   UNL     1     -12.197  14.688  64.904  0.00  0.00    +0.145 A 
ATOM     32  N   UNL     1     -12.330  13.964  66.041  0.00  0.00    -0.145 NA
ENDBRANCH  25  28
ENDBRANCH   1  24
TORSDOF 2
ENDMDL
MODEL 9
REMARK VINA RESULT:      -6.9      4.610      6.539
REMARK  Name = 
REMARK  2 active torsions:
REMARK  status: ('A' for Active; 'I' for Inactive)
REMARK    1  A    between atoms: C_5  and  N_6
REMARK    2  A    between atoms: C_11  and  C_12
REMARK                            x       y       z     vdW  Elec       q    Type
REMARK                         _______ _______ _______ _____ _____    ______ ____
ROOT
ATOM      1  C   UNL     1     -10.204  12.506  67.764  0.00  0.00    +0.251 C 
ATOM      2  N   UNL     1      -9.725  11.295  67.232  0.00  0.00    -0.276 N 
ATOM      3  C   UNL     1      -8.150  11.299  67.069  0.00  0.00    +0.077 C 
ATOM      4  C   UNL     1      -8.210  10.295  65.749  0.00  0.00    +0.022 C 
ATOM      5  C   UNL     1      -7.918  10.011  68.089  0.00  0.00    +0.041 C 
ATOM      6  C   UNL     1      -8.491  10.431  69.408  0.00  0.00    +0.097 C 
ATOM      7  N   UNL     1      -9.727   9.676  69.610  0.00  0.00    -0.262 N 
ATOM      8  C   UNL     1      -9.543   8.310  69.999  0.00  0.00    +0.292 A 
ATOM      9  O   UNL     1      -9.885   7.304  69.214  0.00  0.00    -0.424 OA
ATOM     10  C   UNL     1      -9.698   6.176  69.837  0.00  0.00    +0.166 A 
ATOM     11  C   UNL     1      -8.986   6.465  70.989  0.00  0.00    +0.121 A 
ATOM     12  C   UNL     1      -8.577   5.403  71.750  0.00  0.00    +0.034 A 
ATOM     13  C   UNL     1      -9.024   4.120  71.446  0.00  0.00    +0.059 A 
ATOM     14  C   UNL     1      -9.679   3.848  70.264  0.00  0.00    +0.015 A 
ATOM     15 CL   UNL     1      -8.822   2.819  72.613  0.00  0.00    -0.082 Cl
ATOM     16  C   UNL     1     -10.128   4.914  69.536  0.00  0.00    +0.040 A 
ATOM     17  N   UNL     1      -8.778   7.804  70.984  0.00  0.00    -0.195 NA
ATOM     18  C   UNL     1     -10.921   9.881  68.794  0.00  0.00    +0.117 C 
ATOM     19  C   UNL     1     -10.557  10.141  67.336  0.00  0.00    +0.115 C 
ATOM     20  O   UNL     1     -10.786  12.427  68.891  0.00  0.00    -0.270 OA
ENDROOT
BRANCH   1  24
ATOM     21  C   UNL     1     -10.540  17.373  68.303  0.00  0.00    +0.031 C 
ATOM     22  C   UNL     1     -10.152  16.229  67.477  0.00  0.00    -0.022 A 
ATOM     23  C   UNL     1      -9.979  14.947  67.981  0.00  0.00    +0.002 A 
ATOM     24  C   UNL     1     -10.097  13.817  67.178  0.00  0.00    +0.073 A 
ATOM     25  C   UNL     1     -10.398  14.070  65.852  0.00  0.00    +0.107 A 
ATOM     26  C   UNL     1     -10.012  15.293  65.313  0.00  0.00    +0.021 A 
ATOM     27  C   UNL     1     -10.047  16.411  66.103  0.00  0.00    -0.003 A 
BRANCH  25  28
ATOM     28  N   UNL     1     -11.128  13.102  65.084  0.00  0.00    -0.148 N 
ATOM     29  N   UNL     1     -10.456  12.474  64.114  0.00  0.00    -0.145 NA
ATOM     30  C   UNL     1     -11.352  11.801  63.351  0.00  0.00    +0.145 A 
ATOM     31  C   UNL     1     -12.469  12.626  63.405  0.00  0.00    +0.145 A 
ATOM     32  N   UNL     1     -12.323  13.342  64.545  0.00  0.00    -0.145 NA
ENDBRANCH  25  28
ENDBRANCH   1  24
TORSDOF 2
ENDMDL
