MODEL 1
REMARK VINA RESULT:      -7.4      0.000      0.000
REMARK  Name = 
REMARK  8 active torsions:
REMARK  status: ('A' for Active; 'I' for Inactive)
REMARK    1  A    between atoms: C_2  and  C_3
REMARK    2  A    between atoms: C_3  and  C_5
REMARK    3  A    between atoms: C_20  and  O_21
REMARK    4  A    between atoms: O_21  and  C_22
REMARK    5  A    between atoms: C_24  and  O_25
REMARK    6  A    between atoms: C_27  and  O_28
REMARK    7  A    between atoms: O_28  and  C_29
REMARK    8  A    between atoms: C_31  and  O_32
REMARK                            x       y       z     vdW  Elec       q    Type
REMARK                         _______ _______ _______ _____ _____    ______ ____
ROOT
ATOM      1  C   UNL     1      -8.553   1.750  66.964  0.00  0.00    +0.117 C 
ATOM      2  C   UNL     1      -7.261   2.191  65.947  0.00  0.00    +0.027 C 
ATOM      3  C   UNL     1      -8.300   2.702  64.812  0.00  0.00    +0.002 C 
ATOM      4  C   UNL     1      -7.015   3.682  66.525  0.00  0.00    +0.007 C 
ATOM      5  C   UNL     1      -6.492   3.531  67.960  0.00  0.00    +0.056 C 
ATOM      6  C   UNL     1      -7.724   2.995  68.675  0.00  0.00    +0.190 C 
ATOM      7  O   UNL     1      -8.703   3.518  68.129  0.00  0.00    -0.336 OA
ATOM      8  C   UNL     1      -9.623   4.563  68.629  0.00  0.00    +0.126 C 
ATOM      9  C   UNL     1      -8.425   5.622  69.090  0.00  0.00    +0.055 C 
ATOM     10  C   UNL     1      -8.794   6.922  68.617  0.00  0.00    -0.030 C 
ATOM     11  C   UNL     1      -9.831   7.708  68.580  0.00  0.00    -0.021 C 
ATOM     12  C   UNL     1      -9.424   9.172  69.155  0.00  0.00    +0.140 C 
ATOM     13  C   UNL     1     -10.167   9.083  70.701  0.00  0.00    +0.053 C 
ATOM     14  C   UNL     1      -8.813   8.580  71.369  0.00  0.00    -0.024 C 
ATOM     15  C   UNL     1      -9.154   8.455  72.652  0.00  0.00    -0.005 C 
ATOM     16  C   UNL     1      -9.056   7.164  73.177  0.00  0.00    -0.004 C 
ATOM     17  C   UNL     1      -8.554   6.037  72.722  0.00  0.00    +0.016 C 
ATOM     18  C   UNL     1      -9.060   4.951  73.642  0.00  0.00    +0.185 C 
ATOM     19  C   UNL     1      -8.054   5.489  74.776  0.00  0.00    +0.182 C 
ATOM     20  C   UNL     1      -7.571   4.022  75.555  0.00  0.00    +0.200 C 
ATOM     21  C   UNL     1      -9.051   3.391  75.465  0.00  0.00    -0.015 C 
ATOM     22  C   UNL     1      -9.185   2.709  74.398  0.00  0.00    -0.019 C 
ATOM     23  C   UNL     1      -9.873   3.446  76.680  0.00  0.00    +0.029 C 
ATOM     24  O   UNL     1      -6.983   3.348  74.332  0.00  0.00    -0.216 OA
ATOM     25  O   UNL     1      -6.795   5.529  73.941  0.00  0.00    -0.346 OA
ATOM     26  O   UNL     1     -10.321   5.062  74.020  0.00  0.00    -0.218 OA
ATOM     27  C   UNL     1      -8.683   3.515  73.074  0.00  0.00    +0.154 C 
ATOM     28  C   UNL     1     -10.124   3.259  72.404  0.00  0.00    +0.323 C 
ATOM     29  O   UNL     1      -9.492   2.281  71.667  0.00  0.00    -0.452 OA
ATOM     30  C   UNL     1      -9.289   2.507  70.182  0.00  0.00    +0.176 C 
ATOM     31  O   UNL     1     -11.103   2.861  73.091  0.00  0.00    -0.250 OA
ATOM     32  C   UNL     1      -7.148   5.481  72.693  0.00  0.00    +0.167 C 
ATOM     33  C   UNL     1     -10.797   7.600  70.623  0.00  0.00    +0.008 C 
ATOM     34  C   UNL     1     -10.536   7.823  67.236  0.00  0.00    +0.028 C 
ATOM     35  C   UNL     1      -9.811   4.048  70.165  0.00  0.00    +0.074 C 
ATOM     36  C   UNL     1      -7.692   2.964  70.166  0.00  0.00    +0.100 C 
ATOM     37  O   UNL     1      -7.700   1.658  68.199  0.00  0.00    -0.337 OA
ENDROOT
BRANCH   1  38
ATOM     38  C   UNL     1      -8.419   0.125  66.487  0.00  0.00    +0.027 C 
ATOM     39  C   UNL     1      -9.809   0.133  65.659  0.00  0.00    +0.002 C 
BRANCH  38  41
ATOM     40  C   UNL     1      -9.146  -1.534  67.588  0.00  0.00    +0.000 C 
ATOM     41  C   UNL     1      -9.090  -0.540  67.806  0.00  0.00    +0.002 C 
ENDBRANCH  38  41
ENDBRANCH   1  38
BRANCH  12  42
ATOM     42  O   UNL     1     -10.699   9.826  68.708  0.00  0.00    -0.328 OA
BRANCH  42  43
ATOM     43  C   UNL     1     -10.378  11.291  68.564  0.00  0.00    +0.238 C 
ATOM     44  O   UNL     1     -11.596  11.689  67.726  0.00  0.00    -0.330 OA
ATOM     45  C   UNL     1     -11.407  13.188  67.671  0.00  0.00    +0.147 C 
ATOM     46  C   UNL     1     -12.087  13.336  69.157  0.00  0.00    +0.035 C 
ATOM     47  C   UNL     1      -9.796  13.158  68.274  0.00  0.00    +0.172 C 
ATOM     48  C   UNL     1      -9.255  12.604  66.735  0.00  0.00    +0.150 C 
ATOM     49  C   UNL     1      -9.519  11.039  67.154  0.00  0.00    +0.093 C 
BRANCH  48  50
ATOM     50  O   UNL     1      -7.825  12.510  67.202  0.00  0.00    -0.351 OA
ATOM     51  C   UNL     1      -7.322  11.385  66.525  0.00  0.00    +0.174 C 
ENDBRANCH  48  50
BRANCH  47  52
ATOM     52  O   UNL     1      -9.395  14.545  68.012  0.00  0.00    -0.328 OA
BRANCH  52  53
ATOM     53  C   UNL     1      -8.961  15.181  69.311  0.00  0.00    +0.238 C 
ATOM     54  O   UNL     1      -9.592  16.540  68.998  0.00  0.00    -0.330 OA
ATOM     55  C   UNL     1      -9.908  16.448  67.532  0.00  0.00    +0.150 C 
ATOM     56  C   UNL     1     -10.612  17.922  67.548  0.00  0.00    +0.035 C 
ATOM     57  C   UNL     1      -8.407  17.112  67.055  0.00  0.00    +0.206 C 
ATOM     58  O   UNL     1      -8.724  16.854  65.616  0.00  0.00    -0.218 OA
ATOM     59  C   UNL     1      -7.619  15.601  67.160  0.00  0.00    +0.153 C 
ATOM     60  C   UNL     1      -7.472  15.711  68.781  0.00  0.00    +0.094 C 
BRANCH  59  61
ATOM     61  O   UNL     1      -6.256  16.196  66.948  0.00  0.00    -0.351 OA
ATOM     62  C   UNL     1      -5.350  15.512  67.703  0.00  0.00    +0.174 C 
ENDBRANCH  59  61
ENDBRANCH  52  53
ENDBRANCH  47  52
ENDBRANCH  42  43
ENDBRANCH  12  42
TORSDOF 8
ENDMDL
MODEL 2
REMARK VINA RESULT:      -7.3      2.645      4.151
REMARK  Name = 
REMARK  8 active torsions:
REMARK  status: ('A' for Active; 'I' for Inactive)
REMARK    1  A    between atoms: C_2  and  C_3
REMARK    2  A    between atoms: C_3  and  C_5
REMARK    3  A    between atoms: C_20  and  O_21
REMARK    4  A    between atoms: O_21  and  C_22
REMARK    5  A    between atoms: C_24  and  O_25
REMARK    6  A    between atoms: C_27  and  O_28
REMARK    7  A    between atoms: O_28  and  C_29
REMARK    8  A    between atoms: C_31  and  O_32
REMARK                            x       y       z     vdW  Elec       q    Type
REMARK                         _______ _______ _______ _____ _____    ______ ____
ROOT
ATOM      1  C   UNL     1      -6.294   5.508  63.079  0.00  0.00    +0.117 C 
ATOM      2  C   UNL     1      -4.973   6.482  62.630  0.00  0.00    +0.027 C 
ATOM      3  C   UNL     1      -5.860   7.191  61.473  0.00  0.00    +0.002 C 
ATOM      4  C   UNL     1      -5.209   7.688  63.682  0.00  0.00    +0.007 C 
ATOM      5  C   UNL     1      -4.958   7.122  65.085  0.00  0.00    +0.056 C 
ATOM      6  C   UNL     1      -6.141   6.177  65.245  0.00  0.00    +0.190 C 
ATOM      7  O   UNL     1      -7.089   6.697  64.647  0.00  0.00    -0.336 OA
ATOM      8  C   UNL     1      -8.313   7.336  65.181  0.00  0.00    +0.126 C 
ATOM      9  C   UNL     1      -7.519   8.338  66.246  0.00  0.00    +0.055 C 
ATOM     10  C   UNL     1      -8.088   9.645  66.115  0.00  0.00    -0.030 C 
ATOM     11  C   UNL     1      -9.256  10.216  66.047  0.00  0.00    -0.021 C 
ATOM     12  C   UNL     1      -9.333  11.424  67.131  0.00  0.00    +0.140 C 
ATOM     13  C   UNL     1     -10.321  10.674  68.318  0.00  0.00    +0.053 C 
ATOM     14  C   UNL     1      -9.044  10.188  69.133  0.00  0.00    -0.024 C 
ATOM     15  C   UNL     1      -9.590   9.562  70.177  0.00  0.00    -0.005 C 
ATOM     16  C   UNL     1      -9.290   8.202  70.286  0.00  0.00    -0.004 C 
ATOM     17  C   UNL     1      -8.454   7.406  69.657  0.00  0.00    +0.016 C 
ATOM     18  C   UNL     1      -8.854   5.998  70.030  0.00  0.00    +0.185 C 
ATOM     19  C   UNL     1      -8.249   6.250  71.499  0.00  0.00    +0.182 C 
ATOM     20  C   UNL     1      -7.591   4.697  71.888  0.00  0.00    +0.200 C 
ATOM     21  C   UNL     1      -8.829   3.914  71.219  0.00  0.00    -0.015 C 
ATOM     22  C   UNL     1      -8.584   3.644  69.998  0.00  0.00    -0.019 C 
ATOM     23  C   UNL     1      -9.862   3.401  72.126  0.00  0.00    +0.029 C 
ATOM     24  O   UNL     1      -6.631   4.606  70.721  0.00  0.00    -0.216 OA
ATOM     25  O   UNL     1      -6.898   6.784  71.083  0.00  0.00    -0.346 OA
ATOM     26  O   UNL     1     -10.154   5.765  70.074  0.00  0.00    -0.218 OA
ATOM     27  C   UNL     1      -8.040   4.938  69.170  0.00  0.00    +0.154 C 
ATOM     28  C   UNL     1      -9.217   4.711  68.095  0.00  0.00    +0.323 C 
ATOM     29  O   UNL     1      -8.237   4.174  67.289  0.00  0.00    -0.452 OA
ATOM     30  C   UNL     1      -7.807   4.943  66.056  0.00  0.00    +0.176 C 
ATOM     31  O   UNL     1     -10.188   3.944  68.341  0.00  0.00    -0.250 OA
ATOM     32  C   UNL     1      -6.977   7.127  69.834  0.00  0.00    +0.167 C 
ATOM     33  C   UNL     1     -10.549   9.236  67.623  0.00  0.00    +0.008 C 
ATOM     34  C   UNL     1      -9.690  10.689  64.666  0.00  0.00    +0.028 C 
ATOM     35  C   UNL     1      -8.670   6.285  66.376  0.00  0.00    +0.074 C 
ATOM     36  C   UNL     1      -6.395   5.623  66.607  0.00  0.00    +0.100 C 
ATOM     37  O   UNL     1      -5.703   5.119  64.406  0.00  0.00    -0.337 OA
ENDROOT
BRANCH   1  38
ATOM     38  C   UNL     1      -5.684   4.203  62.179  0.00  0.00    +0.027 C 
ATOM     39  C   UNL     1      -7.003   4.075  61.253  0.00  0.00    +0.002 C 
BRANCH  38  41
ATOM     40  C   UNL     1      -6.037   2.163  62.637  0.00  0.00    +0.000 C 
ATOM     41  C   UNL     1      -6.149   3.016  63.183  0.00  0.00    +0.002 C 
ENDBRANCH  38  41
ENDBRANCH   1  38
BRANCH  12  42
ATOM     42  O   UNL     1     -10.614  11.983  66.584  0.00  0.00    -0.328 OA
BRANCH  42  43
ATOM     43  C   UNL     1     -10.472  13.482  66.660  0.00  0.00    +0.238 C 
ATOM     44  O   UNL     1     -10.162  13.736  65.182  0.00  0.00    -0.330 OA
ATOM     45  C   UNL     1     -10.154  15.248  65.165  0.00  0.00    +0.147 C 
ATOM     46  C   UNL     1     -11.792  15.263  65.066  0.00  0.00    +0.035 C 
ATOM     47  C   UNL     1     -10.131  15.416  66.878  0.00  0.00    +0.172 C 
ATOM     48  C   UNL     1      -8.464  14.981  66.875  0.00  0.00    +0.150 C 
ATOM     49  C   UNL     1      -8.833  13.384  66.964  0.00  0.00    +0.093 C 
BRANCH  48  50
ATOM     50  O   UNL     1      -8.375  15.067  68.377  0.00  0.00    -0.351 OA
ATOM     51  C   UNL     1      -7.069  14.631  68.663  0.00  0.00    +0.174 C 
ENDBRANCH  48  50
BRANCH  47  52
ATOM     52  O   UNL     1      -9.845  16.851  66.993  0.00  0.00    -0.328 OA
BRANCH  52  53
ATOM     53  C   UNL     1     -10.688  17.428  68.105  0.00  0.00    +0.238 C 
ATOM     54  O   UNL     1     -11.119  18.660  67.305  0.00  0.00    -0.330 OA
ATOM     55  C   UNL     1     -10.188  18.652  66.126  0.00  0.00    +0.150 C 
ATOM     56  C   UNL     1     -10.937  19.949  65.472  0.00  0.00    +0.035 C 
ATOM     57  C   UNL     1      -9.029  19.645  66.897  0.00  0.00    +0.206 C 
ATOM     58  O   UNL     1      -8.085  19.473  65.750  0.00  0.00    -0.218 OA
ATOM     59  C   UNL     1      -8.312  18.317  67.695  0.00  0.00    +0.153 C 
ATOM     60  C   UNL     1      -9.470  18.292  68.844  0.00  0.00    +0.094 C 
BRANCH  59  61
ATOM     61  O   UNL     1      -7.426  19.189  68.539  0.00  0.00    -0.351 OA
ATOM     62  C   UNL     1      -6.468  18.415  69.125  0.00  0.00    +0.174 C 
ENDBRANCH  59  61
ENDBRANCH  52  53
ENDBRANCH  47  52
ENDBRANCH  42  43
ENDBRANCH  12  42
TORSDOF 8
ENDMDL
MODEL 3
REMARK VINA RESULT:      -7.0      5.237     13.043
REMARK  Name = 
REMARK  8 active torsions:
REMARK  status: ('A' for Active; 'I' for Inactive)
REMARK    1  A    between atoms: C_2  and  C_3
REMARK    2  A    between atoms: C_3  and  C_5
REMARK    3  A    between atoms: C_20  and  O_21
REMARK    4  A    between atoms: O_21  and  C_22
REMARK    5  A    between atoms: C_24  and  O_25
REMARK    6  A    between atoms: C_27  and  O_28
REMARK    7  A    between atoms: O_28  and  C_29
REMARK    8  A    between atoms: C_31  and  O_32
REMARK                            x       y       z     vdW  Elec       q    Type
REMARK                         _______ _______ _______ _____ _____    ______ ____
ROOT
ATOM      1  C   UNL     1     -11.119  14.124  66.934  0.00  0.00    +0.117 C 
ATOM      2  C   UNL     1     -12.060  13.836  68.323  0.00  0.00    +0.027 C 
ATOM      3  C   UNL     1     -11.660  12.264  68.295  0.00  0.00    +0.002 C 
ATOM      4  C   UNL     1     -10.943  14.197  69.436  0.00  0.00    +0.007 C 
ATOM      5  C   UNL     1     -10.663  15.701  69.325  0.00  0.00    +0.056 C 
ATOM      6  C   UNL     1      -9.962  15.779  67.976  0.00  0.00    +0.190 C 
ATOM      7  O   UNL     1      -9.309  14.736  67.858  0.00  0.00    -0.336 OA
ATOM      8  C   UNL     1      -7.846  14.521  67.916  0.00  0.00    +0.126 C 
ATOM      9  C   UNL     1      -7.622  15.334  69.350  0.00  0.00    +0.055 C 
ATOM     10  C   UNL     1      -6.774  14.528  70.175  0.00  0.00    -0.030 C 
ATOM     11  C   UNL     1      -5.670  13.842  70.093  0.00  0.00    -0.021 C 
ATOM     12  C   UNL     1      -4.665  14.287  71.289  0.00  0.00    +0.140 C 
ATOM     13  C   UNL     1      -3.557  15.240  70.387  0.00  0.00    +0.053 C 
ATOM     14  C   UNL     1      -4.357  16.571  70.730  0.00  0.00    -0.024 C 
ATOM     15  C   UNL     1      -3.631  17.509  70.121  0.00  0.00    -0.005 C 
ATOM     16  C   UNL     1      -4.292  18.222  69.118  0.00  0.00    -0.004 C 
ATOM     17  C   UNL     1      -5.544  18.278  68.722  0.00  0.00    +0.016 C 
ATOM     18  C   UNL     1      -5.530  18.989  67.388  0.00  0.00    +0.185 C 
ATOM     19  C   UNL     1      -5.220  20.365  68.162  0.00  0.00    +0.182 C 
ATOM     20  C   UNL     1      -6.099  21.516  67.216  0.00  0.00    +0.200 C 
ATOM     21  C   UNL     1      -5.699  20.804  65.827  0.00  0.00    -0.015 C 
ATOM     22  C   UNL     1      -6.580  19.946  65.492  0.00  0.00    -0.019 C 
ATOM     23  C   UNL     1      -4.608  21.411  65.056  0.00  0.00    +0.029 C 
ATOM     24  O   UNL     1      -7.467  20.889  67.386  0.00  0.00    -0.216 OA
ATOM     25  O   UNL     1      -6.321  20.282  69.193  0.00  0.00    -0.346 OA
ATOM     26  O   UNL     1      -4.545  18.657  66.573  0.00  0.00    -0.218 OA
ATOM     27  C   UNL     1      -6.969  18.940  66.713  0.00  0.00    +0.154 C 
ATOM     28  C   UNL     1      -6.621  17.691  65.758  0.00  0.00    +0.323 C 
ATOM     29  O   UNL     1      -7.985  17.549  65.621  0.00  0.00    -0.452 OA
ATOM     30  C   UNL     1      -8.659  16.354  66.264  0.00  0.00    +0.176 C 
ATOM     31  O   UNL     1      -5.988  17.849  64.679  0.00  0.00    -0.250 OA
ATOM     32  C   UNL     1      -6.742  19.055  69.223  0.00  0.00    +0.167 C 
ATOM     33  C   UNL     1      -4.209  15.108  68.917  0.00  0.00    +0.008 C 
ATOM     34  C   UNL     1      -5.825  12.329  70.040  0.00  0.00    +0.028 C 
ATOM     35  C   UNL     1      -7.346  15.816  67.060  0.00  0.00    +0.074 C 
ATOM     36  C   UNL     1      -9.292  17.065  67.625  0.00  0.00    +0.100 C 
ATOM     37  O   UNL     1     -11.087  15.615  67.125  0.00  0.00    -0.337 OA
ENDROOT
BRANCH   1  38
ATOM     38  C   UNL     1     -12.497  14.061  65.943  0.00  0.00    +0.027 C 
ATOM     39  C   UNL     1     -12.160  12.587  65.370  0.00  0.00    +0.002 C 
BRANCH  38  41
ATOM     40  C   UNL     1     -12.068  14.197  63.872  0.00  0.00    +0.000 C 
ATOM     41  C   UNL     1     -11.867  14.818  64.654  0.00  0.00    +0.002 C 
ENDBRANCH  38  41
ENDBRANCH   1  38
BRANCH  12  42
ATOM     42  O   UNL     1      -3.705  13.157  71.055  0.00  0.00    -0.328 OA
BRANCH  42  43
ATOM     43  C   UNL     1      -3.920  12.195  72.196  0.00  0.00    +0.238 C 
ATOM     44  O   UNL     1      -2.531  12.313  72.830  0.00  0.00    -0.330 OA
ATOM     45  C   UNL     1      -2.731  11.477  74.074  0.00  0.00    +0.147 C 
ATOM     46  C   UNL     1      -3.441  12.752  74.826  0.00  0.00    +0.035 C 
ATOM     47  C   UNL     1      -4.223  10.793  73.555  0.00  0.00    +0.172 C 
ATOM     48  C   UNL     1      -3.352   9.762  72.485  0.00  0.00    +0.150 C 
ATOM     49  C   UNL     1      -3.375  10.896  71.299  0.00  0.00    +0.093 C 
BRANCH  48  50
ATOM     50  O   UNL     1      -4.618   9.144  71.949  0.00  0.00    -0.351 OA
ATOM     51  C   UNL     1      -4.201   7.895  71.456  0.00  0.00    +0.174 C 
ENDBRANCH  48  50
BRANCH  47  52
ATOM     52  O   UNL     1      -4.393   9.743  74.567  0.00  0.00    -0.328 OA
BRANCH  52  53
ATOM     53  C   UNL     1      -4.896  10.373  75.843  0.00  0.00    +0.238 C 
ATOM     54  O   UNL     1      -4.318   9.286  76.752  0.00  0.00    -0.330 OA
ATOM     55  C   UNL     1      -3.951   8.190  75.793  0.00  0.00    +0.150 C 
ATOM     56  C   UNL     1      -3.315   7.290  77.000  0.00  0.00    +0.035 C 
ATOM     57  C   UNL     1      -5.465   7.408  75.937  0.00  0.00    +0.206 C 
ATOM     58  O   UNL     1      -5.090   6.435  74.865  0.00  0.00    -0.218 OA
ATOM     59  C   UNL     1      -6.186   8.426  74.772  0.00  0.00    +0.153 C 
ATOM     60  C   UNL     1      -6.390   9.633  75.849  0.00  0.00    +0.094 C 
BRANCH  59  61
ATOM     61  O   UNL     1      -7.567   7.895  75.033  0.00  0.00    -0.351 OA
ATOM     62  C   UNL     1      -8.320   8.041  73.906  0.00  0.00    +0.174 C 
ENDBRANCH  59  61
ENDBRANCH  52  53
ENDBRANCH  47  52
ENDBRANCH  42  43
ENDBRANCH  12  42
TORSDOF 8
ENDMDL
MODEL 4
REMARK VINA RESULT:      -7.0      2.617      3.787
REMARK  Name = 
REMARK  8 active torsions:
REMARK  status: ('A' for Active; 'I' for Inactive)
REMARK    1  A    between atoms: C_2  and  C_3
REMARK    2  A    between atoms: C_3  and  C_5
REMARK    3  A    between atoms: C_20  and  O_21
REMARK    4  A    between atoms: O_21  and  C_22
REMARK    5  A    between atoms: C_24  and  O_25
REMARK    6  A    between atoms: C_27  and  O_28
REMARK    7  A    between atoms: O_28  and  C_29
REMARK    8  A    between atoms: C_31  and  O_32
REMARK                            x       y       z     vdW  Elec       q    Type
REMARK                         _______ _______ _______ _____ _____    ______ ____
ROOT
ATOM      1  C   UNL     1      -4.098   5.667  67.537  0.00  0.00    +0.117 C 
ATOM      2  C   UNL     1      -2.826   6.774  67.767  0.00  0.00    +0.027 C 
ATOM      3  C   UNL     1      -2.960   7.280  66.232  0.00  0.00    +0.002 C 
ATOM      4  C   UNL     1      -3.698   8.007  68.348  0.00  0.00    +0.007 C 
ATOM      5  C   UNL     1      -4.237   7.574  69.718  0.00  0.00    +0.056 C 
ATOM      6  C   UNL     1      -5.235   6.494  69.322  0.00  0.00    +0.190 C 
ATOM      7  O   UNL     1      -5.719   6.843  68.239  0.00  0.00    -0.336 OA
ATOM      8  C   UNL     1      -7.073   7.349  67.923  0.00  0.00    +0.126 C 
ATOM      9  C   UNL     1      -7.088   8.516  69.109  0.00  0.00    +0.055 C 
ATOM     10  C   UNL     1      -7.578   9.725  68.519  0.00  0.00    -0.030 C 
ATOM     11  C   UNL     1      -8.544  10.132  67.746  0.00  0.00    -0.021 C 
ATOM     12  C   UNL     1      -9.303  11.389  68.442  0.00  0.00    +0.140 C 
ATOM     13  C   UNL     1     -10.729  10.596  68.976  0.00  0.00    +0.053 C 
ATOM     14  C   UNL     1     -10.099  10.339  70.413  0.00  0.00    -0.024 C 
ATOM     15  C   UNL     1     -11.090   9.719  71.055  0.00  0.00    -0.005 C 
ATOM     16  C   UNL     1     -10.806   8.420  71.486  0.00  0.00    -0.004 C 
ATOM     17  C   UNL     1      -9.706   7.701  71.530  0.00  0.00    +0.016 C 
ATOM     18  C   UNL     1     -10.145   6.280  71.799  0.00  0.00    +0.185 C 
ATOM     19  C   UNL     1     -10.487   6.708  73.312  0.00  0.00    +0.182 C 
ATOM     20  C   UNL     1     -10.052   5.286  74.196  0.00  0.00    +0.200 C 
ATOM     21  C   UNL     1     -10.641   4.302  73.064  0.00  0.00    -0.015 C 
ATOM     22  C   UNL     1      -9.734   3.986  72.226  0.00  0.00    -0.019 C 
ATOM     23  C   UNL     1     -11.965   3.720  73.311  0.00  0.00    +0.029 C 
ATOM     24  O   UNL     1      -8.598   5.243  73.773  0.00  0.00    -0.216 OA
ATOM     25  O   UNL     1      -9.178   7.387  73.643  0.00  0.00    -0.346 OA
ATOM     26  O   UNL     1     -11.224   5.882  71.151  0.00  0.00    -0.218 OA
ATOM     27  C   UNL     1      -8.914   5.282  71.675  0.00  0.00    +0.154 C 
ATOM     28  C   UNL     1      -9.266   4.830  70.170  0.00  0.00    +0.323 C 
ATOM     29  O   UNL     1      -7.967   4.374  70.114  0.00  0.00    -0.452 OA
ATOM     30  C   UNL     1      -6.976   5.109  69.234  0.00  0.00    +0.176 C 
ATOM     31  O   UNL     1     -10.149   3.960  69.938  0.00  0.00    -0.250 OA
ATOM     32  C   UNL     1      -8.568   7.632  72.525  0.00  0.00    +0.167 C 
ATOM     33  C   UNL     1     -10.424   9.098  68.463  0.00  0.00    +0.008 C 
ATOM     34  C   UNL     1      -8.161  10.449  66.308  0.00  0.00    +0.028 C 
ATOM     35  C   UNL     1      -7.962   6.344  68.849  0.00  0.00    +0.074 C 
ATOM     36  C   UNL     1      -6.169   6.004  70.377  0.00  0.00    +0.100 C 
ATOM     37  O   UNL     1      -4.328   5.449  69.007  0.00  0.00    -0.337 OA
ENDROOT
BRANCH   1  38
ATOM     38  C   UNL     1      -2.996   4.396  67.299  0.00  0.00    +0.027 C 
ATOM     39  C   UNL     1      -3.519   4.069  65.804  0.00  0.00    +0.002 C 
BRANCH  38  41
ATOM     40  C   UNL     1      -3.307   2.381  67.878  0.00  0.00    +0.000 C 
ATOM     41  C   UNL     1      -3.881   3.217  67.977  0.00  0.00    +0.002 C 
ENDBRANCH  38  41
ENDBRANCH   1  38
BRANCH  12  42
ATOM     42  O   UNL     1     -10.092  11.736  67.215  0.00  0.00    -0.328 OA
BRANCH  42  43
ATOM     43  C   UNL     1     -10.097  13.242  67.143  0.00  0.00    +0.238 C 
ATOM     44  O   UNL     1      -9.891  13.379  65.632  0.00  0.00    -0.330 OA
ATOM     45  C   UNL     1     -10.035  14.876  65.475  0.00  0.00    +0.147 C 
ATOM     46  C   UNL     1     -11.670  14.727  65.476  0.00  0.00    +0.035 C 
ATOM     47  C   UNL     1      -9.940  15.212  67.160  0.00  0.00    +0.172 C 
ATOM     48  C   UNL     1      -8.241  14.938  67.096  0.00  0.00    +0.150 C 
ATOM     49  C   UNL     1      -8.443  13.330  67.353  0.00  0.00    +0.093 C 
BRANCH  48  50
ATOM     50  O   UNL     1      -8.083  15.178  68.575  0.00  0.00    -0.351 OA
ATOM     51  C   UNL     1      -6.811  14.655  68.868  0.00  0.00    +0.174 C 
ENDBRANCH  48  50
BRANCH  47  52
ATOM     52  O   UNL     1      -9.794  16.672  67.126  0.00  0.00    -0.328 OA
BRANCH  52  53
ATOM     53  C   UNL     1     -10.660  17.274  68.205  0.00  0.00    +0.238 C 
ATOM     54  O   UNL     1     -11.109  18.463  67.352  0.00  0.00    -0.330 OA
ATOM     55  C   UNL     1     -10.166  18.429  66.183  0.00  0.00    +0.150 C 
ATOM     56  C   UNL     1     -10.936  19.682  65.471  0.00  0.00    +0.035 C 
ATOM     57  C   UNL     1      -9.036  19.477  66.924  0.00  0.00    +0.206 C 
ATOM     58  O   UNL     1      -8.077  19.280  65.794  0.00  0.00    -0.218 OA
ATOM     59  C   UNL     1      -8.299  18.198  67.782  0.00  0.00    +0.153 C 
ATOM     60  C   UNL     1      -9.467  18.194  68.921  0.00  0.00    +0.094 C 
BRANCH  59  61
ATOM     61  O   UNL     1      -7.440  19.121  68.598  0.00  0.00    -0.351 OA
ATOM     62  C   UNL     1      -6.412  18.409  69.141  0.00  0.00    +0.174 C 
ENDBRANCH  59  61
ENDBRANCH  52  53
ENDBRANCH  47  52
ENDBRANCH  42  43
ENDBRANCH  12  42
TORSDOF 8
ENDMDL
MODEL 5
REMARK VINA RESULT:      -6.7      1.855      5.978
REMARK  Name = 
REMARK  8 active torsions:
REMARK  status: ('A' for Active; 'I' for Inactive)
REMARK    1  A    between atoms: C_2  and  C_3
REMARK    2  A    between atoms: C_3  and  C_5
REMARK    3  A    between atoms: C_20  and  O_21
REMARK    4  A    between atoms: O_21  and  C_22
REMARK    5  A    between atoms: C_24  and  O_25
REMARK    6  A    between atoms: C_27  and  O_28
REMARK    7  A    between atoms: O_28  and  C_29
REMARK    8  A    between atoms: C_31  and  O_32
REMARK                            x       y       z     vdW  Elec       q    Type
REMARK                         _______ _______ _______ _____ _____    ______ ____
ROOT
ATOM      1  C   UNL     1      -8.627   3.893  74.928  0.00  0.00    +0.117 C 
ATOM      2  C   UNL     1     -10.187   4.424  75.354  0.00  0.00    +0.027 C 
ATOM      3  C   UNL     1      -9.581   5.813  75.929  0.00  0.00    +0.002 C 
ATOM      4  C   UNL     1     -10.600   5.082  73.935  0.00  0.00    +0.007 C 
ATOM      5  C   UNL     1     -10.722   3.937  72.922  0.00  0.00    +0.056 C 
ATOM      6  C   UNL     1      -9.270   3.501  72.784  0.00  0.00    +0.190 C 
ATOM      7  O   UNL     1      -8.584   4.523  72.901  0.00  0.00    -0.336 OA
ATOM      8  C   UNL     1      -7.815   5.272  71.883  0.00  0.00    +0.126 C 
ATOM      9  C   UNL     1      -9.066   5.387  70.792  0.00  0.00    +0.055 C 
ATOM     10  C   UNL     1      -9.106   6.738  70.321  0.00  0.00    -0.030 C 
ATOM     11  C   UNL     1      -8.299   7.662  69.884  0.00  0.00    -0.021 C 
ATOM     12  C   UNL     1      -8.859   8.251  68.478  0.00  0.00    +0.140 C 
ATOM     13  C   UNL     1      -7.769   7.483  67.396  0.00  0.00    +0.053 C 
ATOM     14  C   UNL     1      -8.786   6.283  67.157  0.00  0.00    -0.024 C 
ATOM     15  C   UNL     1      -8.131   5.521  66.280  0.00  0.00    -0.005 C 
ATOM     16  C   UNL     1      -7.824   4.230  66.717  0.00  0.00    -0.004 C 
ATOM     17  C   UNL     1      -8.168   3.526  67.773  0.00  0.00    +0.016 C 
ATOM     18  C   UNL     1      -7.239   2.335  67.804  0.00  0.00    +0.185 C 
ATOM     19  C   UNL     1      -8.037   1.721  66.549  0.00  0.00    +0.182 C 
ATOM     20  C   UNL     1      -7.996   0.026  66.891  0.00  0.00    +0.200 C 
ATOM     21  C   UNL     1      -6.481   0.088  67.435  0.00  0.00    -0.015 C 
ATOM     22  C   UNL     1      -6.463   0.281  68.694  0.00  0.00    -0.019 C 
ATOM     23  C   UNL     1      -5.425  -0.349  66.515  0.00  0.00    +0.029 C 
ATOM     24  O   UNL     1      -8.701   0.091  68.231  0.00  0.00    -0.216 OA
ATOM     25  O   UNL     1      -9.438   1.860  67.101  0.00  0.00    -0.346 OA
ATOM     26  O   UNL     1      -5.977   2.585  67.501  0.00  0.00    -0.218 OA
ATOM     27  C   UNL     1      -7.426   1.514  69.152  0.00  0.00    +0.154 C 
ATOM     28  C   UNL     1      -6.165   2.189  69.891  0.00  0.00    +0.323 C 
ATOM     29  O   UNL     1      -6.731   1.723  71.057  0.00  0.00    -0.452 OA
ATOM     30  C   UNL     1      -7.325   2.726  72.027  0.00  0.00    +0.176 C 
ATOM     31  O   UNL     1      -4.988   1.791  69.671  0.00  0.00    -0.250 OA
ATOM     32  C   UNL     1      -9.389   2.693  68.094  0.00  0.00    +0.167 C 
ATOM     33  C   UNL     1      -6.875   6.648  68.448  0.00  0.00    +0.008 C 
ATOM     34  C   UNL     1      -7.976   8.784  70.860  0.00  0.00    +0.028 C 
ATOM     35  C   UNL     1      -7.162   4.025  71.061  0.00  0.00    +0.074 C 
ATOM     36  C   UNL     1      -8.940   2.563  71.672  0.00  0.00    +0.100 C 
ATOM     37  O   UNL     1      -9.122   2.807  74.013  0.00  0.00    -0.337 OA
ENDROOT
BRANCH   1  38
ATOM     38  C   UNL     1      -8.521   2.956  76.341  0.00  0.00    +0.027 C 
ATOM     39  C   UNL     1      -7.196   3.710  76.880  0.00  0.00    +0.002 C 
BRANCH  38  41
ATOM     40  C   UNL     1      -7.493   1.110  76.508  0.00  0.00    +0.000 C 
ATOM     41  C   UNL     1      -7.684   1.716  75.711  0.00  0.00    +0.002 C 
ENDBRANCH  38  41
ENDBRANCH   1  38
BRANCH  12  42
ATOM     42  O   UNL     1      -7.897   9.402  68.448  0.00  0.00    -0.328 OA
BRANCH  42  43
ATOM     43  C   UNL     1      -8.699  10.594  67.990  0.00  0.00    +0.238 C 
ATOM     44  O   UNL     1      -8.392  10.488  66.493  0.00  0.00    -0.330 OA
ATOM     45  C   UNL     1      -9.293  11.577  65.956  0.00  0.00    +0.147 C 
ATOM     46  C   UNL     1     -10.574  10.552  66.005  0.00  0.00    +0.035 C 
ATOM     47  C   UNL     1      -9.627  12.268  67.496  0.00  0.00    +0.172 C 
ATOM     48  C   UNL     1      -8.056  12.975  67.495  0.00  0.00    +0.150 C 
ATOM     49  C   UNL     1      -7.397  11.626  68.160  0.00  0.00    +0.093 C 
BRANCH  48  50
ATOM     50  O   UNL     1      -8.257  13.578  68.861  0.00  0.00    -0.351 OA
ATOM     51  C   UNL     1      -7.203  14.499  68.982  0.00  0.00    +0.174 C 
ENDBRANCH  48  50
BRANCH  47  52
ATOM     52  O   UNL     1     -10.283  13.514  67.085  0.00  0.00    -0.328 OA
BRANCH  52  53
ATOM     53  C   UNL     1     -11.643  13.587  67.735  0.00  0.00    +0.238 C 
ATOM     54  O   UNL     1     -12.383  13.907  66.434  0.00  0.00    -0.330 OA
ATOM     55  C   UNL     1     -11.277  14.260  65.482  0.00  0.00    +0.150 C 
ATOM     56  C   UNL     1     -12.335  14.438  64.250  0.00  0.00    +0.035 C 
ATOM     57  C   UNL     1     -11.345  15.929  65.850  0.00  0.00    +0.206 C 
ATOM     58  O   UNL     1     -10.142  16.189  65.000  0.00  0.00    -0.218 OA
ATOM     59  C   UNL     1     -10.345  15.744  67.221  0.00  0.00    +0.153 C 
ATOM     60  C   UNL     1     -11.581  15.203  68.138  0.00  0.00    +0.094 C 
BRANCH  59  61
ATOM     61  O   UNL     1     -10.561  17.158  67.680  0.00  0.00    -0.351 OA
ATOM     62  C   UNL     1      -9.756  17.406  68.752  0.00  0.00    +0.174 C 
ENDBRANCH  59  61
ENDBRANCH  52  53
ENDBRANCH  47  52
ENDBRANCH  42  43
ENDBRANCH  12  42
TORSDOF 8
ENDMDL
MODEL 6
REMARK VINA RESULT:      -6.7      2.685      6.820
REMARK  Name = 
REMARK  8 active torsions:
REMARK  status: ('A' for Active; 'I' for Inactive)
REMARK    1  A    between atoms: C_2  and  C_3
REMARK    2  A    between atoms: C_3  and  C_5
REMARK    3  A    between atoms: C_20  and  O_21
REMARK    4  A    between atoms: O_21  and  C_22
REMARK    5  A    between atoms: C_24  and  O_25
REMARK    6  A    between atoms: C_27  and  O_28
REMARK    7  A    between atoms: O_28  and  C_29
REMARK    8  A    between atoms: C_31  and  O_32
REMARK                            x       y       z     vdW  Elec       q    Type
REMARK                         _______ _______ _______ _____ _____    ______ ____
ROOT
ATOM      1  C   UNL     1      -9.648   5.036  71.230  0.00  0.00    +0.117 C 
ATOM      2  C   UNL     1     -11.126   5.825  71.531  0.00  0.00    +0.027 C 
ATOM      3  C   UNL     1     -10.484   6.586  72.811  0.00  0.00    +0.002 C 
ATOM      4  C   UNL     1     -10.911   7.094  70.550  0.00  0.00    +0.007 C 
ATOM      5  C   UNL     1     -10.913   6.560  69.112  0.00  0.00    +0.056 C 
ATOM      6  C   UNL     1      -9.612   5.771  69.081  0.00  0.00    +0.190 C 
ATOM      7  O   UNL     1      -8.817   6.376  69.810  0.00  0.00    -0.336 OA
ATOM      8  C   UNL     1      -7.624   7.177  69.455  0.00  0.00    +0.126 C 
ATOM      9  C   UNL     1      -8.397   8.120  68.323  0.00  0.00    +0.055 C 
ATOM     10  C   UNL     1      -8.015   9.480  68.560  0.00  0.00    -0.030 C 
ATOM     11  C   UNL     1      -6.945  10.184  68.793  0.00  0.00    -0.021 C 
ATOM     12  C   UNL     1      -6.883  11.436  67.760  0.00  0.00    +0.140 C 
ATOM     13  C   UNL     1      -5.670  10.859  66.691  0.00  0.00    +0.053 C 
ATOM     14  C   UNL     1      -6.764  10.258  65.705  0.00  0.00    -0.024 C 
ATOM     15  C   UNL     1      -6.020   9.746  64.725  0.00  0.00    -0.005 C 
ATOM     16  C   UNL     1      -6.133   8.366  64.543  0.00  0.00    -0.004 C 
ATOM     17  C   UNL     1      -6.936   7.450  65.038  0.00  0.00    +0.016 C 
ATOM     18  C   UNL     1      -6.320   6.117  64.683  0.00  0.00    +0.185 C 
ATOM     19  C   UNL     1      -6.764   6.355  63.155  0.00  0.00    +0.182 C 
ATOM     20  C   UNL     1      -7.171   4.753  62.644  0.00  0.00    +0.200 C 
ATOM     21  C   UNL     1      -5.939   4.095  63.447  0.00  0.00    -0.015 C 
ATOM     22  C   UNL     1      -6.299   3.748  64.619  0.00  0.00    -0.019 C 
ATOM     23  C   UNL     1      -4.745   3.748  62.668  0.00  0.00    +0.029 C 
ATOM     24  O   UNL     1      -8.251   4.499  63.676  0.00  0.00    -0.216 OA
ATOM     25  O   UNL     1      -8.213   6.706  63.407  0.00  0.00    -0.346 OA
ATOM     26  O   UNL     1      -5.007   6.043  64.801  0.00  0.00    -0.218 OA
ATOM     27  C   UNL     1      -7.099   4.932  65.403  0.00  0.00    +0.154 C 
ATOM     28  C   UNL     1      -6.046   4.803  66.614  0.00  0.00    +0.323 C 
ATOM     29  O   UNL     1      -7.044   4.119  67.273  0.00  0.00    -0.452 OA
ATOM     30  C   UNL     1      -7.717   4.780  68.460  0.00  0.00    +0.176 C 
ATOM     31  O   UNL     1      -4.965   4.169  66.476  0.00  0.00    -0.250 OA
ATOM     32  C   UNL     1      -8.333   7.004  64.664  0.00  0.00    +0.167 C 
ATOM     33  C   UNL     1      -5.354   9.431  67.372  0.00  0.00    +0.008 C 
ATOM     34  C   UNL     1      -6.749  10.647  70.229  0.00  0.00    +0.028 C 
ATOM     35  C   UNL     1      -6.994   6.228  68.289  0.00  0.00    +0.074 C 
ATOM     36  C   UNL     1      -9.123   5.309  67.749  0.00  0.00    +0.100 C 
ATOM     37  O   UNL     1     -10.016   4.635  69.829  0.00  0.00    -0.337 OA
ENDROOT
BRANCH   1  38
ATOM     38  C   UNL     1     -10.200   3.631  72.010  0.00  0.00    +0.027 C 
ATOM     39  C   UNL     1      -9.013   3.635  73.108  0.00  0.00    +0.002 C 
BRANCH  38  41
ATOM     40  C   UNL     1      -9.671   1.648  71.476  0.00  0.00    +0.000 C 
ATOM     41  C   UNL     1      -9.452   2.551  71.056  0.00  0.00    +0.002 C 
ENDBRANCH  38  41
ENDBRANCH   1  38
BRANCH  12  42
ATOM     42  O   UNL     1      -5.760  12.121  68.481  0.00  0.00    -0.328 OA
BRANCH  42  43
ATOM     43  C   UNL     1      -6.002  13.598  68.308  0.00  0.00    +0.238 C 
ATOM     44  O   UNL     1      -6.215  13.948  69.783  0.00  0.00    -0.330 OA
ATOM     45  C   UNL     1      -6.318  15.454  69.691  0.00  0.00    +0.147 C 
ATOM     46  C   UNL     1      -4.681  15.572  69.656  0.00  0.00    +0.035 C 
ATOM     47  C   UNL     1      -6.482  15.487  67.978  0.00  0.00    +0.172 C 
ATOM     48  C   UNL     1      -8.112  14.958  68.146  0.00  0.00    +0.150 C 
ATOM     49  C   UNL     1      -7.650  13.383  68.145  0.00  0.00    +0.093 C 
BRANCH  48  50
ATOM     50  O   UNL     1      -8.320  14.921  66.654  0.00  0.00    -0.351 OA
ATOM     51  C   UNL     1      -9.651  14.492  66.509  0.00  0.00    +0.174 C 
ENDBRANCH  48  50
BRANCH  47  52
ATOM     52  O   UNL     1      -6.866  16.890  67.781  0.00  0.00    -0.328 OA
BRANCH  52  53
ATOM     53  C   UNL     1      -5.954  17.504  66.746  0.00  0.00    +0.238 C 
ATOM     54  O   UNL     1      -5.633  18.742  67.586  0.00  0.00    -0.330 OA
ATOM     55  C   UNL     1      -6.657  18.694  68.684  0.00  0.00    +0.150 C 
ATOM     56  C   UNL     1      -6.009  20.009  69.405  0.00  0.00    +0.035 C 
ATOM     57  C   UNL     1      -7.782  19.654  67.826  0.00  0.00    +0.206 C 
ATOM     58  O   UNL     1      -8.810  19.440  68.891  0.00  0.00    -0.218 OA
ATOM     59  C   UNL     1      -8.385  18.310  66.963  0.00  0.00    +0.153 C 
ATOM     60  C   UNL     1      -7.137  18.334  65.914  0.00  0.00    +0.094 C 
BRANCH  59  61
ATOM     61  O   UNL     1      -9.228  19.159  66.055  0.00  0.00    -0.351 OA
ATOM     62  C   UNL     1     -10.445  18.565  65.894  0.00  0.00    +0.174 C 
ENDBRANCH  59  61
ENDBRANCH  52  53
ENDBRANCH  47  52
ENDBRANCH  42  43
ENDBRANCH  12  42
TORSDOF 8
ENDMDL
MODEL 7
REMARK VINA RESULT:      -6.6      1.083      1.768
REMARK  Name = 
REMARK  8 active torsions:
REMARK  status: ('A' for Active; 'I' for Inactive)
REMARK    1  A    between atoms: C_2  and  C_3
REMARK    2  A    between atoms: C_3  and  C_5
REMARK    3  A    between atoms: C_20  and  O_21
REMARK    4  A    between atoms: O_21  and  C_22
REMARK    5  A    between atoms: C_24  and  O_25
REMARK    6  A    between atoms: C_27  and  O_28
REMARK    7  A    between atoms: O_28  and  C_29
REMARK    8  A    between atoms: C_31  and  O_32
REMARK                            x       y       z     vdW  Elec       q    Type
REMARK                         _______ _______ _______ _____ _____    ______ ____
ROOT
ATOM      1  C   UNL     1      -8.256   1.555  67.405  0.00  0.00    +0.117 C 
ATOM      2  C   UNL     1      -6.939   1.956  66.406  0.00  0.00    +0.027 C 
ATOM      3  C   UNL     1      -7.942   2.270  65.171  0.00  0.00    +0.002 C 
ATOM      4  C   UNL     1      -6.806   3.516  66.817  0.00  0.00    +0.007 C 
ATOM      5  C   UNL     1      -6.354   3.561  68.282  0.00  0.00    +0.056 C 
ATOM      6  C   UNL     1      -7.591   3.034  68.996  0.00  0.00    +0.190 C 
ATOM      7  O   UNL     1      -8.566   3.431  68.348  0.00  0.00    -0.336 OA
ATOM      8  C   UNL     1      -9.568   4.468  68.680  0.00  0.00    +0.126 C 
ATOM      9  C   UNL     1      -8.457   5.644  69.069  0.00  0.00    +0.055 C 
ATOM     10  C   UNL     1      -8.871   6.857  68.431  0.00  0.00    -0.030 C 
ATOM     11  C   UNL     1      -9.947   7.569  68.255  0.00  0.00    -0.021 C 
ATOM     12  C   UNL     1      -9.653   9.110  68.674  0.00  0.00    +0.140 C 
ATOM     13  C   UNL     1     -10.471   9.152  70.184  0.00  0.00    +0.053 C 
ATOM     14  C   UNL     1      -9.130   8.812  70.968  0.00  0.00    -0.024 C 
ATOM     15  C   UNL     1      -9.531   8.813  72.239  0.00  0.00    -0.005 C 
ATOM     16  C   UNL     1      -9.390   7.599  72.915  0.00  0.00    -0.004 C 
ATOM     17  C   UNL     1      -8.803   6.460  72.618  0.00  0.00    +0.016 C 
ATOM     18  C   UNL     1      -9.296   5.457  73.634  0.00  0.00    +0.185 C 
ATOM     19  C   UNL     1      -8.383   6.180  74.743  0.00  0.00    +0.182 C 
ATOM     20  C   UNL     1      -7.863   4.843  75.710  0.00  0.00    +0.200 C 
ATOM     21  C   UNL     1      -9.298   4.117  75.625  0.00  0.00    -0.015 C 
ATOM     22  C   UNL     1      -9.337   3.311  74.639  0.00  0.00    -0.019 C 
ATOM     23  C   UNL     1     -10.186   4.259  76.785  0.00  0.00    +0.029 C 
ATOM     24  O   UNL     1      -7.174   4.072  74.603  0.00  0.00    -0.216 OA
ATOM     25  O   UNL     1      -7.085   6.202  73.969  0.00  0.00    -0.346 OA
ATOM     26  O   UNL     1     -10.580   5.532  73.938  0.00  0.00    -0.218 OA
ATOM     27  C   UNL     1      -8.810   3.991  73.255  0.00  0.00    +0.154 C 
ATOM     28  C   UNL     1     -10.197   3.572  72.553  0.00  0.00    +0.323 C 
ATOM     29  O   UNL     1      -9.474   2.558  71.965  0.00  0.00    -0.452 OA
ATOM     30  C   UNL     1      -9.204   2.626  70.475  0.00  0.00    +0.176 C 
ATOM     31  O   UNL     1     -11.188   3.196  73.236  0.00  0.00    -0.250 OA
ATOM     32  C   UNL     1      -7.368   5.991  72.720  0.00  0.00    +0.167 C 
ATOM     33  C   UNL     1     -11.013   7.634  70.249  0.00  0.00    +0.008 C 
ATOM     34  C   UNL     1     -10.584   7.487  66.875  0.00  0.00    +0.028 C 
ATOM     35  C   UNL     1      -9.809   4.121  70.254  0.00  0.00    +0.074 C 
ATOM     36  C   UNL     1      -7.636   3.175  70.481  0.00  0.00    +0.100 C 
ATOM     37  O   UNL     1      -7.467   1.656  68.681  0.00  0.00    -0.337 OA
ENDROOT
BRANCH   1  38
ATOM     38  C   UNL     1      -8.008  -0.103  67.127  0.00  0.00    +0.027 C 
ATOM     39  C   UNL     1      -9.463  -0.327  66.460  0.00  0.00    +0.002 C 
BRANCH  38  41
ATOM     40  C   UNL     1      -8.460  -1.652  68.502  0.00  0.00    +0.000 C 
ATOM     41  C   UNL     1      -8.481  -0.636  68.585  0.00  0.00    +0.002 C 
ENDBRANCH  38  41
ENDBRANCH   1  38
BRANCH  12  42
ATOM     42  O   UNL     1     -10.936   9.630  68.095  0.00  0.00    -0.328 OA
BRANCH  42  43
ATOM     43  C   UNL     1     -10.667  11.067  67.728  0.00  0.00    +0.238 C 
ATOM     44  O   UNL     1     -10.558  10.878  66.213  0.00  0.00    -0.330 OA
ATOM     45  C   UNL     1     -10.433  12.318  65.770  0.00  0.00    +0.147 C 
ATOM     46  C   UNL     1     -12.062  12.497  65.867  0.00  0.00    +0.035 C 
ATOM     47  C   UNL     1     -10.147  12.936  67.350  0.00  0.00    +0.172 C 
ATOM     48  C   UNL     1      -8.538  12.326  67.273  0.00  0.00    +0.150 C 
ATOM     49  C   UNL     1      -9.014  10.865  67.850  0.00  0.00    +0.093 C 
BRANCH  48  50
ATOM     50  O   UNL     1      -8.223  12.800  68.668  0.00  0.00    -0.351 OA
ATOM     51  C   UNL     1      -6.824  12.934  68.671  0.00  0.00    +0.174 C 
ENDBRANCH  48  50
BRANCH  47  52
ATOM     52  O   UNL     1      -9.736  14.307  67.023  0.00  0.00    -0.328 OA
BRANCH  52  53
ATOM     53  C   UNL     1     -10.940  15.073  66.533  0.00  0.00    +0.238 C 
ATOM     54  O   UNL     1     -10.141  16.317  66.139  0.00  0.00    -0.330 OA
ATOM     55  C   UNL     1      -8.805  16.093  66.788  0.00  0.00    +0.150 C 
ATOM     56  C   UNL     1      -8.206  17.463  66.127  0.00  0.00    +0.035 C 
ATOM     57  C   UNL     1      -9.242  16.914  68.222  0.00  0.00    +0.206 C 
ATOM     58  O   UNL     1      -7.948  16.527  68.865  0.00  0.00    -0.218 OA
ATOM     59  C   UNL     1      -9.991  15.526  68.878  0.00  0.00    +0.153 C 
ATOM     60  C   UNL     1     -11.346  15.755  67.999  0.00  0.00    +0.094 C 
BRANCH  59  61
ATOM     61  O   UNL     1     -10.564  16.278  70.046  0.00  0.00    -0.351 OA
ATOM     62  C   UNL     1     -11.651  15.604  70.517  0.00  0.00    +0.174 C 
ENDBRANCH  59  61
ENDBRANCH  52  53
ENDBRANCH  47  52
ENDBRANCH  42  43
ENDBRANCH  12  42
TORSDOF 8
ENDMDL
MODEL 8
REMARK VINA RESULT:      -6.5      3.347     11.908
REMARK  Name = 
REMARK  8 active torsions:
REMARK  status: ('A' for Active; 'I' for Inactive)
REMARK    1  A    between atoms: C_2  and  C_3
REMARK    2  A    between atoms: C_3  and  C_5
REMARK    3  A    between atoms: C_20  and  O_21
REMARK    4  A    between atoms: O_21  and  C_22
REMARK    5  A    between atoms: C_24  and  O_25
REMARK    6  A    between atoms: C_27  and  O_28
REMARK    7  A    between atoms: O_28  and  C_29
REMARK    8  A    between atoms: C_31  and  O_32
REMARK                            x       y       z     vdW  Elec       q    Type
REMARK                         _______ _______ _______ _____ _____    ______ ____
ROOT
ATOM      1  C   UNL     1     -10.888  12.605  66.785  0.00  0.00    +0.117 C 
ATOM      2  C   UNL     1     -10.360  13.077  68.332  0.00  0.00    +0.027 C 
ATOM      3  C   UNL     1     -11.713  12.483  69.000  0.00  0.00    +0.002 C 
ATOM      4  C   UNL     1      -9.493  11.759  68.691  0.00  0.00    +0.007 C 
ATOM      5  C   UNL     1      -8.290  11.735  67.738  0.00  0.00    +0.056 C 
ATOM      6  C   UNL     1      -8.967  11.451  66.405  0.00  0.00    +0.190 C 
ATOM      7  O   UNL     1      -9.930  10.715  66.649  0.00  0.00    -0.336 OA
ATOM      8  C   UNL     1     -10.125   9.278  66.356  0.00  0.00    +0.126 C 
ATOM      9  C   UNL     1      -8.678   8.784  67.013  0.00  0.00    +0.055 C 
ATOM     10  C   UNL     1      -8.943   7.637  67.828  0.00  0.00    -0.030 C 
ATOM     11  C   UNL     1      -9.599   6.514  67.777  0.00  0.00    -0.021 C 
ATOM     12  C   UNL     1      -8.613   5.291  68.193  0.00  0.00    +0.140 C 
ATOM     13  C   UNL     1      -8.325   4.620  66.639  0.00  0.00    +0.053 C 
ATOM     14  C   UNL     1      -6.993   5.474  66.472  0.00  0.00    -0.024 C 
ATOM     15  C   UNL     1      -6.549   5.083  65.277  0.00  0.00    -0.005 C 
ATOM     16  C   UNL     1      -6.464   6.088  64.309  0.00  0.00    -0.004 C 
ATOM     17  C   UNL     1      -6.590   7.396  64.349  0.00  0.00    +0.016 C 
ATOM     18  C   UNL     1      -6.705   7.850  62.913  0.00  0.00    +0.185 C 
ATOM     19  C   UNL     1      -5.138   7.535  62.723  0.00  0.00    +0.182 C 
ATOM     20  C   UNL     1      -4.646   8.793  61.643  0.00  0.00    +0.200 C 
ATOM     21  C   UNL     1      -6.002   8.695  60.779  0.00  0.00    -0.015 C 
ATOM     22  C   UNL     1      -6.879   9.505  61.226  0.00  0.00    -0.019 C 
ATOM     23  C   UNL     1      -5.935   7.955  59.514  0.00  0.00    +0.029 C 
ATOM     24  O   UNL     1      -5.043   9.959  62.524  0.00  0.00    -0.216 OA
ATOM     25  O   UNL     1      -4.623   8.287  63.929  0.00  0.00    -0.346 OA
ATOM     26  O   UNL     1      -7.451   7.091  62.130  0.00  0.00    -0.218 OA
ATOM     27  C   UNL     1      -7.064   9.397  62.842  0.00  0.00    +0.154 C 
ATOM     28  C   UNL     1      -8.640   9.153  62.617  0.00  0.00    +0.323 C 
ATOM     29  O   UNL     1      -8.792  10.468  63.001  0.00  0.00    -0.452 OA
ATOM     30  C   UNL     1      -9.437  10.764  64.340  0.00  0.00    +0.176 C 
ATOM     31  O   UNL     1      -9.103   8.871  61.479  0.00  0.00    -0.250 OA
ATOM     32  C   UNL     1      -5.631   8.506  64.716  0.00  0.00    +0.167 C 
ATOM     33  C   UNL     1      -9.203   5.626  65.734  0.00  0.00    +0.008 C 
ATOM     34  C   UNL     1     -10.900   6.463  68.564  0.00  0.00    +0.028 C 
ATOM     35  C   UNL     1      -9.504   9.220  64.850  0.00  0.00    +0.074 C 
ATOM     36  C   UNL     1      -8.089  11.091  65.254  0.00  0.00    +0.100 C 
ATOM     37  O   UNL     1      -9.528  12.731  66.157  0.00  0.00    -0.337 OA
ENDROOT
BRANCH   1  38
ATOM     38  C   UNL     1     -11.430  14.180  66.450  0.00  0.00    +0.027 C 
ATOM     39  C   UNL     1     -12.807  13.684  65.764  0.00  0.00    +0.002 C 
BRANCH  38  41
ATOM     40  C   UNL     1     -10.948  15.297  64.714  0.00  0.00    +0.000 C 
ATOM     41  C   UNL     1     -10.670  14.368  65.029  0.00  0.00    +0.002 C 
ENDBRANCH  38  41
ENDBRANCH   1  38
BRANCH  12  42
ATOM     42  O   UNL     1      -9.721   4.284  68.296  0.00  0.00    -0.328 OA
BRANCH  42  43
ATOM     43  C   UNL     1      -9.731   3.831  69.733  0.00  0.00    +0.238 C 
ATOM     44  O   UNL     1      -8.353   4.368  70.130  0.00  0.00    -0.330 OA
ATOM     45  C   UNL     1      -8.366   4.071  71.613  0.00  0.00    +0.147 C 
ATOM     46  C   UNL     1      -9.236   5.436  71.886  0.00  0.00    +0.035 C 
ATOM     47  C   UNL     1      -9.751   3.052  71.550  0.00  0.00    +0.172 C 
ATOM     48  C   UNL     1      -8.774   1.805  70.874  0.00  0.00    +0.150 C 
ATOM     49  C   UNL     1      -9.026   2.366  69.352  0.00  0.00    +0.093 C 
BRANCH  48  50
ATOM     50  O   UNL     1      -9.947   0.867  70.747  0.00  0.00    -0.351 OA
ATOM     51  C   UNL     1      -9.364  -0.354  70.369  0.00  0.00    +0.174 C 
ENDBRANCH  48  50
BRANCH  47  52
ATOM     52  O   UNL     1      -9.709   2.474  72.898  0.00  0.00    -0.328 OA
BRANCH  52  53
ATOM     53  C   UNL     1     -11.061   2.651  73.546  0.00  0.00    +0.238 C 
ATOM     54  O   UNL     1     -10.496   3.203  74.857  0.00  0.00    -0.330 OA
ATOM     55  C   UNL     1      -9.029   2.892  74.762  0.00  0.00    +0.150 C 
ATOM     56  C   UNL     1      -8.733   3.653  76.178  0.00  0.00    +0.035 C 
ATOM     57  C   UNL     1      -9.186   1.381  75.546  0.00  0.00    +0.206 C 
ATOM     58  O   UNL     1      -7.747   1.070  75.285  0.00  0.00    -0.218 OA
ATOM     59  C   UNL     1      -9.628   0.591  74.099  0.00  0.00    +0.153 C 
ATOM     60  C   UNL     1     -11.168   1.120  74.196  0.00  0.00    +0.094 C 
BRANCH  59  61
ATOM     61  O   UNL     1      -9.973  -0.692  74.800  0.00  0.00    -0.351 OA
ATOM     62  C   UNL     1     -10.576  -1.534  73.913  0.00  0.00    +0.174 C 
ENDBRANCH  59  61
ENDBRANCH  52  53
ENDBRANCH  47  52
ENDBRANCH  42  43
ENDBRANCH  12  42
TORSDOF 8
ENDMDL
MODEL 9
REMARK VINA RESULT:      -6.4      2.334      3.748
REMARK  Name = 
REMARK  8 active torsions:
REMARK  status: ('A' for Active; 'I' for Inactive)
REMARK    1  A    between atoms: C_2  and  C_3
REMARK    2  A    between atoms: C_3  and  C_5
REMARK    3  A    between atoms: C_20  and  O_21
REMARK    4  A    between atoms: O_21  and  C_22
REMARK    5  A    between atoms: C_24  and  O_25
REMARK    6  A    between atoms: C_27  and  O_28
REMARK    7  A    between atoms: O_28  and  C_29
REMARK    8  A    between atoms: C_31  and  O_32
REMARK                            x       y       z     vdW  Elec       q    Type
REMARK                         _______ _______ _______ _____ _____    ______ ____
ROOT
ATOM      1  C   UNL     1      -3.928   4.791  67.123  0.00  0.00    +0.117 C 
ATOM      2  C   UNL     1      -2.599   5.831  67.338  0.00  0.00    +0.027 C 
ATOM      3  C   UNL     1      -2.855   6.495  65.880  0.00  0.00    +0.002 C 
ATOM      4  C   UNL     1      -3.364   7.023  68.119  0.00  0.00    +0.007 C 
ATOM      5  C   UNL     1      -3.790   6.469  69.485  0.00  0.00    +0.056 C 
ATOM      6  C   UNL     1      -4.861   5.465  69.082  0.00  0.00    +0.190 C 
ATOM      7  O   UNL     1      -5.430   5.937  68.091  0.00  0.00    -0.336 OA
ATOM      8  C   UNL     1      -6.787   6.512  67.959  0.00  0.00    +0.126 C 
ATOM      9  C   UNL     1      -6.646   7.552  69.250  0.00  0.00    +0.055 C 
ATOM     10  C   UNL     1      -7.142   8.829  68.832  0.00  0.00    -0.030 C 
ATOM     11  C   UNL     1      -8.158   9.340  68.200  0.00  0.00    -0.021 C 
ATOM     12  C   UNL     1      -8.800  10.541  69.086  0.00  0.00    +0.140 C 
ATOM     13  C   UNL     1     -10.200   9.741  69.674  0.00  0.00    +0.053 C 
ATOM     14  C   UNL     1      -9.450   9.320  71.011  0.00  0.00    -0.024 C 
ATOM     15  C   UNL     1     -10.400   8.667  71.682  0.00  0.00    -0.005 C 
ATOM     16  C   UNL     1     -10.128   7.324  71.953  0.00  0.00    -0.004 C 
ATOM     17  C   UNL     1      -9.057   6.572  71.820  0.00  0.00    +0.016 C 
ATOM     18  C   UNL     1      -9.524   5.145  71.989  0.00  0.00    +0.185 C 
ATOM     19  C   UNL     1      -9.708   5.426  73.562  0.00  0.00    +0.182 C 
ATOM     20  C   UNL     1      -9.247   3.909  74.255  0.00  0.00    +0.200 C 
ATOM     21  C   UNL     1      -9.977   3.064  73.094  0.00  0.00    -0.015 C 
ATOM     22  C   UNL     1      -9.165   2.808  72.146  0.00  0.00    -0.019 C 
ATOM     23  C   UNL     1     -11.294   2.498  73.409  0.00  0.00    +0.029 C 
ATOM     24  O   UNL     1      -7.842   3.867  73.692  0.00  0.00    -0.216 OA
ATOM     25  O   UNL     1      -8.348   6.029  73.831  0.00  0.00    -0.346 OA
ATOM     26  O   UNL     1     -10.674   4.846  71.412  0.00  0.00    -0.218 OA
ATOM     27  C   UNL     1      -8.350   4.128  71.649  0.00  0.00    +0.154 C 
ATOM     28  C   UNL     1      -8.857   3.842  70.148  0.00  0.00    +0.323 C 
ATOM     29  O   UNL     1      -7.588   3.356  69.922  0.00  0.00    -0.452 OA
ATOM     30  C   UNL     1      -6.655   4.147  69.027  0.00  0.00    +0.176 C 
ATOM     31  O   UNL     1      -9.791   3.027  69.917  0.00  0.00    -0.250 OA
ATOM     32  C   UNL     1      -7.835   6.368  72.688  0.00  0.00    +0.167 C 
ATOM     33  C   UNL     1     -10.003   8.294  68.989  0.00  0.00    +0.008 C 
ATOM     34  C   UNL     1      -7.899   9.791  66.769  0.00  0.00    +0.028 C 
ATOM     35  C   UNL     1      -7.625   5.444  68.863  0.00  0.00    +0.074 C 
ATOM     36  C   UNL     1      -5.711   4.898  70.169  0.00  0.00    +0.100 C 
ATOM     37  O   UNL     1      -4.029   4.432  68.580  0.00  0.00    -0.337 OA
ENDROOT
BRANCH   1  38
ATOM     38  C   UNL     1      -2.903   3.519  66.656  0.00  0.00    +0.027 C 
ATOM     39  C   UNL     1      -3.512   3.424  65.161  0.00  0.00    +0.002 C 
BRANCH  38  41
ATOM     40  C   UNL     1      -3.237   1.468  67.074  0.00  0.00    +0.000 C 
ATOM     41  C   UNL     1      -3.813   2.297  67.214  0.00  0.00    +0.002 C 
ENDBRANCH  38  41
ENDBRANCH   1  38
BRANCH  12  42
ATOM     42  O   UNL     1      -9.686  11.035  67.980  0.00  0.00    -0.328 OA
BRANCH  42  43
ATOM     43  C   UNL     1      -9.313  12.480  67.770  0.00  0.00    +0.238 C 
ATOM     44  O   UNL     1      -8.235  12.576  68.853  0.00  0.00    -0.330 OA
ATOM     45  C   UNL     1      -7.714  13.971  68.592  0.00  0.00    +0.147 C 
ATOM     46  C   UNL     1      -6.773  13.401  67.375  0.00  0.00    +0.035 C 
ATOM     47  C   UNL     1      -9.008  14.420  67.549  0.00  0.00    +0.172 C 
ATOM     48  C   UNL     1     -10.027  14.596  68.926  0.00  0.00    +0.150 C 
ATOM     49  C   UNL     1     -10.443  13.009  68.880  0.00  0.00    +0.093 C 
BRANCH  48  50
ATOM     50  O   UNL     1     -11.219  14.956  68.077  0.00  0.00    -0.351 OA
ATOM     51  C   UNL     1     -12.033  15.710  68.940  0.00  0.00    +0.174 C 
ENDBRANCH  48  50
BRANCH  47  52
ATOM     52  O   UNL     1      -8.762  15.863  67.438  0.00  0.00    -0.328 OA
BRANCH  52  53
ATOM     53  C   UNL     1      -9.098  16.308  66.035  0.00  0.00    +0.238 C 
ATOM     54  O   UNL     1      -7.732  16.950  65.781  0.00  0.00    -0.330 OA
ATOM     55  C   UNL     1      -7.116  17.012  67.150  0.00  0.00    +0.150 C 
ATOM     56  C   UNL     1      -5.723  17.614  66.543  0.00  0.00    +0.035 C 
ATOM     57  C   UNL     1      -7.717  18.581  67.468  0.00  0.00    +0.206 C 
ATOM     58  O   UNL     1      -7.206  18.516  68.872  0.00  0.00    -0.218 OA
ATOM     59  C   UNL     1      -9.229  17.979  67.983  0.00  0.00    +0.153 C 
ATOM     60  C   UNL     1      -9.753  17.783  66.450  0.00  0.00    +0.094 C 
BRANCH  59  61
ATOM     61  O   UNL     1      -9.844  19.347  68.069  0.00  0.00    -0.351 OA
ATOM     62  C   UNL     1     -10.785  19.474  67.090  0.00  0.00    +0.174 C 
ENDBRANCH  59  61
ENDBRANCH  52  53
ENDBRANCH  47  52
ENDBRANCH  42  43
ENDBRANCH  12  42
TORSDOF 8
ENDMDL
