MODEL 1
REMARK VINA RESULT:      -3.2      0.000      0.000
REMARK  Name = 
REMARK  0 active torsions:
REMARK  status: ('A' for Active; 'I' for Inactive)
REMARK                            x       y       z     vdW  Elec       q    Type
REMARK                         _______ _______ _______ _____ _____    ______ ____
ROOT
ATOM      1  O   UNL     1     -13.280  14.019  73.089  0.00  0.00    -0.144 OA
ATOM      2  S   UNL     1     -13.189  15.502  72.858  0.00  0.00    +0.126 S 
ATOM      3  S   UNL     1     -11.981  15.831  71.711  0.00  0.00    +0.110 S 
ATOM      4  O   UNL     1     -14.655  16.006  72.214  0.00  0.00    -0.046 OA
ATOM      5  O   UNL     1     -12.836  16.332  74.282  0.00  0.00    -0.046 OA
ENDROOT
TORSDOF 0
ENDMDL
MODEL 2
REMARK VINA RESULT:      -3.2      8.081      8.778
REMARK  Name = 
REMARK  0 active torsions:
REMARK  status: ('A' for Active; 'I' for Inactive)
REMARK                            x       y       z     vdW  Elec       q    Type
REMARK                         _______ _______ _______ _____ _____    ______ ____
ROOT
ATOM      1  O   UNL     1     -13.205  14.227  65.436  0.00  0.00    -0.144 OA
ATOM      2  S   UNL     1     -12.163  14.492  64.384  0.00  0.00    +0.126 S 
ATOM      3  S   UNL     1     -10.626  14.095  64.987  0.00  0.00    +0.110 S 
ATOM      4  O   UNL     1     -12.481  13.474  63.088  0.00  0.00    -0.046 OA
ATOM      5  O   UNL     1     -12.165  16.106  63.901  0.00  0.00    -0.046 OA
ENDROOT
TORSDOF 0
ENDMDL
MODEL 3
REMARK VINA RESULT:      -3.1      0.373      2.086
REMARK  Name = 
REMARK  0 active torsions:
REMARK  status: ('A' for Active; 'I' for Inactive)
REMARK                            x       y       z     vdW  Elec       q    Type
REMARK                         _______ _______ _______ _____ _____    ______ ____
ROOT
ATOM      1  O   UNL     1     -14.732  15.887  72.000  0.00  0.00    -0.144 OA
ATOM      2  S   UNL     1     -13.431  15.386  72.562  0.00  0.00    +0.126 S 
ATOM      3  S   UNL     1     -12.172  15.714  71.471  0.00  0.00    +0.110 S 
ATOM      4  O   UNL     1     -13.122  16.244  73.970  0.00  0.00    -0.046 OA
ATOM      5  O   UNL     1     -13.481  13.729  72.861  0.00  0.00    -0.046 OA
ENDROOT
TORSDOF 0
ENDMDL
MODEL 4
REMARK VINA RESULT:      -3.1      9.542     10.310
REMARK  Name = 
REMARK  0 active torsions:
REMARK  status: ('A' for Active; 'I' for Inactive)
REMARK                            x       y       z     vdW  Elec       q    Type
REMARK                         _______ _______ _______ _____ _____    ______ ____
ROOT
ATOM      1  O   UNL     1      -3.668  19.980  72.519  0.00  0.00    -0.144 OA
ATOM      2  S   UNL     1      -4.520  20.943  71.739  0.00  0.00    +0.126 S 
ATOM      3  S   UNL     1      -3.976  21.017  70.132  0.00  0.00    +0.110 S 
ATOM      4  O   UNL     1      -6.084  20.336  71.721  0.00  0.00    -0.046 OA
ATOM      5  O   UNL     1      -4.478  22.490  72.406  0.00  0.00    -0.046 OA
ENDROOT
TORSDOF 0
ENDMDL
MODEL 5
REMARK VINA RESULT:      -3.1      9.619     10.603
REMARK  Name = 
REMARK  0 active torsions:
REMARK  status: ('A' for Active; 'I' for Inactive)
REMARK                            x       y       z     vdW  Elec       q    Type
REMARK                         _______ _______ _______ _____ _____    ______ ____
ROOT
ATOM      1  O   UNL     1      -4.427  22.411  72.281  0.00  0.00    -0.144 OA
ATOM      2  S   UNL     1      -4.495  21.021  71.710  0.00  0.00    +0.126 S 
ATOM      3  S   UNL     1      -3.932  21.032  70.108  0.00  0.00    +0.110 S 
ATOM      4  O   UNL     1      -3.458  20.054  72.608  0.00  0.00    -0.046 OA
ATOM      5  O   UNL     1      -6.066  20.414  71.738  0.00  0.00    -0.046 OA
ENDROOT
TORSDOF 0
ENDMDL
MODEL 6
REMARK VINA RESULT:      -3.1      1.632      2.215
REMARK  Name = 
REMARK  0 active torsions:
REMARK  status: ('A' for Active; 'I' for Inactive)
REMARK                            x       y       z     vdW  Elec       q    Type
REMARK                         _______ _______ _______ _____ _____    ______ ____
ROOT
ATOM      1  O   UNL     1     -15.342  15.504  71.449  0.00  0.00    -0.144 OA
ATOM      2  S   UNL     1     -13.931  15.359  71.949  0.00  0.00    +0.126 S 
ATOM      3  S   UNL     1     -13.575  13.716  72.189  0.00  0.00    +0.110 S 
ATOM      4  O   UNL     1     -12.907  15.933  70.749  0.00  0.00    -0.046 OA
ATOM      5  O   UNL     1     -13.695  16.191  73.395  0.00  0.00    -0.046 OA
ENDROOT
TORSDOF 0
ENDMDL
MODEL 7
REMARK VINA RESULT:      -3.1      1.245      2.446
REMARK  Name = 
REMARK  0 active torsions:
REMARK  status: ('A' for Active; 'I' for Inactive)
REMARK                            x       y       z     vdW  Elec       q    Type
REMARK                         _______ _______ _______ _____ _____    ______ ____
ROOT
ATOM      1  O   UNL     1     -13.642  16.009  73.207  0.00  0.00    -0.144 OA
ATOM      2  S   UNL     1     -13.996  15.129  72.040  0.00  0.00    +0.126 S 
ATOM      3  S   UNL     1     -12.770  15.212  70.868  0.00  0.00    +0.110 S 
ATOM      4  O   UNL     1     -14.061  13.548  72.598  0.00  0.00    -0.046 OA
ATOM      5  O   UNL     1     -15.459  15.585  71.340  0.00  0.00    -0.046 OA
ENDROOT
TORSDOF 0
ENDMDL
MODEL 8
REMARK VINA RESULT:      -3.0      9.605     10.450
REMARK  Name = 
REMARK  0 active torsions:
REMARK  status: ('A' for Active; 'I' for Inactive)
REMARK                            x       y       z     vdW  Elec       q    Type
REMARK                         _______ _______ _______ _____ _____    ______ ____
ROOT
ATOM      1  O   UNL     1      -5.917  20.424  71.931  0.00  0.00    -0.144 OA
ATOM      2  S   UNL     1      -4.539  20.995  71.739  0.00  0.00    +0.126 S 
ATOM      3  S   UNL     1      -4.201  21.131  70.080  0.00  0.00    +0.110 S 
ATOM      4  O   UNL     1      -4.535  22.541  72.389  0.00  0.00    -0.046 OA
ATOM      5  O   UNL     1      -3.362  20.031  72.463  0.00  0.00    -0.046 OA
ENDROOT
TORSDOF 0
ENDMDL
MODEL 9
REMARK VINA RESULT:      -3.0      8.655      9.215
REMARK  Name = 
REMARK  0 active torsions:
REMARK  status: ('A' for Active; 'I' for Inactive)
REMARK                            x       y       z     vdW  Elec       q    Type
REMARK                         _______ _______ _______ _____ _____    ______ ____
ROOT
ATOM      1  O   UNL     1     -13.100  11.874  63.349  0.00  0.00    -0.144 OA
ATOM      2  S   UNL     1     -12.182  12.708  64.199  0.00  0.00    +0.126 S 
ATOM      3  S   UNL     1     -10.567  12.388  63.782  0.00  0.00    +0.110 S 
ATOM      4  O   UNL     1     -12.490  14.320  63.846  0.00  0.00    -0.046 OA
ATOM      5  O   UNL     1     -12.399  12.395  65.840  0.00  0.00    -0.046 OA
ENDROOT
TORSDOF 0
ENDMDL
