MODEL 1
REMARK VINA RESULT:      -5.4      0.000      0.000
REMARK  Name = 
REMARK  6 active torsions:
REMARK  status: ('A' for Active; 'I' for Inactive)
REMARK    1  A    between atoms: C_2  and  O_3
REMARK    2  A    between atoms: O_3  and  C_4
REMARK    3  A    between atoms: C_4  and  C_6
REMARK    4  A    between atoms: C_12  and  C_13
REMARK    5  A    between atoms: C_13  and  O_15
REMARK    6  A    between atoms: C_17  and  C_18
REMARK                            x       y       z     vdW  Elec       q    Type
REMARK                         _______ _______ _______ _____ _____    ______ ____
ROOT
ATOM      1  C   UNL     1      -9.942  16.552  66.696  0.00  0.00    +0.073 C 
ATOM      2  C   UNL     1      -8.485  17.256  66.427  0.00  0.00    +0.082 C 
ATOM      3  C   UNL     1      -8.724  18.592  67.357  0.00  0.00    +0.073 C 
ATOM      4  C   UNL     1      -9.976  18.920  67.565  0.00  0.00    +0.051 C 
ATOM      5  C   UNL     1     -10.398  20.349  67.730  0.00  0.00    +0.049 C 
ATOM      6  N   UNL     1     -10.488  17.895  68.437  0.00  0.00    -0.221 NA
ATOM      7  C   UNL     1     -10.419  16.586  67.882  0.00  0.00    +0.051 C 
ATOM      8  C   UNL     1     -11.502  15.595  68.196  0.00  0.00    +0.049 C 
ENDROOT
BRANCH   2   9
ATOM      9  C   UNL     1      -7.697  16.485  67.648  0.00  0.00    -0.002 A 
ATOM     10  C   UNL     1      -6.325  16.668  67.490  0.00  0.00    +0.065 A 
ATOM     11 CL   UNL     1      -5.578  17.261  66.009  0.00  0.00    -0.082 Cl
ATOM     12  C   UNL     1      -5.523  15.960  68.379  0.00  0.00    +0.068 A 
ATOM     13 CL   UNL     1      -3.812  16.341  68.502  0.00  0.00    -0.081 Cl
ATOM     14  C   UNL     1      -6.073  14.928  69.131  0.00  0.00    +0.012 A 
ATOM     15  C   UNL     1      -7.391  14.549  68.911  0.00  0.00    +0.001 A 
ATOM     16  C   UNL     1      -8.045  15.171  67.854  0.00  0.00    -0.003 A 
ENDBRANCH   2   9
BRANCH   1  17
ATOM     17  C   UNL     1     -10.512  15.891  65.524  0.00  0.00    +0.339 C 
ATOM     18  O   UNL     1     -10.887  16.660  64.587  0.00  0.00    -0.245 OA
BRANCH  17  19
ATOM     19  O   UNL     1     -10.078  14.633  65.087  0.00  0.00    -0.446 OA
BRANCH  19  21
ATOM     20  C   UNL     1     -11.947  13.288  65.433  0.00  0.00    +0.051 C 
ATOM     21  C   UNL     1     -10.964  13.687  64.493  0.00  0.00    +0.209 C 
ENDBRANCH  19  21
ENDBRANCH  17  19
ENDBRANCH   1  17
BRANCH   3  22
ATOM     22  C   UNL     1      -7.776  19.676  67.036  0.00  0.00    +0.339 C 
ATOM     23  O   UNL     1      -7.476  19.744  65.803  0.00  0.00    -0.245 OA
BRANCH  22  24
ATOM     24  O   UNL     1      -6.676  19.925  67.867  0.00  0.00    -0.442 OA
ATOM     25  C   UNL     1      -6.741  19.776  69.284  0.00  0.00    +0.256 C 
ENDBRANCH  22  24
ENDBRANCH   3  22
TORSDOF 6
ENDMDL
MODEL 2
REMARK VINA RESULT:      -5.3      3.430      5.712
REMARK  Name = 
REMARK  6 active torsions:
REMARK  status: ('A' for Active; 'I' for Inactive)
REMARK    1  A    between atoms: C_2  and  O_3
REMARK    2  A    between atoms: O_3  and  C_4
REMARK    3  A    between atoms: C_4  and  C_6
REMARK    4  A    between atoms: C_12  and  C_13
REMARK    5  A    between atoms: C_13  and  O_15
REMARK    6  A    between atoms: C_17  and  C_18
REMARK                            x       y       z     vdW  Elec       q    Type
REMARK                         _______ _______ _______ _____ _____    ______ ____
ROOT
ATOM      1  C   UNL     1     -10.112  15.450  67.625  0.00  0.00    +0.073 C 
ATOM      2  C   UNL     1     -10.343  13.829  67.540  0.00  0.00    +0.082 C 
ATOM      3  C   UNL     1     -10.716  13.756  65.939  0.00  0.00    +0.073 C 
ATOM      4  C   UNL     1     -11.174  14.865  65.413  0.00  0.00    +0.051 C 
ATOM      5  C   UNL     1     -12.172  14.853  64.295  0.00  0.00    +0.049 C 
ATOM      6  N   UNL     1     -10.042  15.754  65.381  0.00  0.00    -0.221 NA
ATOM      7  C   UNL     1      -9.489  16.022  66.665  0.00  0.00    +0.051 C 
ATOM      8  C   UNL     1      -8.919  17.381  66.953  0.00  0.00    +0.049 C 
ENDROOT
BRANCH   2   9
ATOM      9  C   UNL     1      -8.770  13.448  67.243  0.00  0.00    -0.002 A 
ATOM     10  C   UNL     1      -8.582  12.086  67.469  0.00  0.00    +0.065 A 
ATOM     11 CL   UNL     1      -9.733  11.065  68.326  0.00  0.00    -0.082 Cl
ATOM     12  C   UNL     1      -7.266  11.645  67.383  0.00  0.00    +0.068 A 
ATOM     13 CL   UNL     1      -6.927   9.922  67.327  0.00  0.00    -0.081 Cl
ATOM     14  C   UNL     1      -6.227  12.569  67.387  0.00  0.00    +0.012 A 
ATOM     15  C   UNL     1      -6.511  13.915  67.579  0.00  0.00    +0.001 A 
ATOM     16  C   UNL     1      -7.832  14.234  67.870  0.00  0.00    -0.003 A 
ENDBRANCH   2   9
BRANCH   1  17
ATOM     17  C   UNL     1     -10.602  16.061  68.859  0.00  0.00    +0.339 C 
ATOM     18  O   UNL     1     -11.690  16.705  68.759  0.00  0.00    -0.245 OA
BRANCH  17  19
ATOM     19  O   UNL     1     -10.400  15.477  70.116  0.00  0.00    -0.446 OA
BRANCH  19  21
ATOM     20  C   UNL     1     -12.113  14.068  70.828  0.00  0.00    +0.051 C 
ATOM     21  C   UNL     1     -11.462  15.306  71.053  0.00  0.00    +0.209 C 
ENDBRANCH  19  21
ENDBRANCH  17  19
ENDBRANCH   1  17
BRANCH   3  22
ATOM     22  C   UNL     1     -11.395  12.496  65.578  0.00  0.00    +0.339 C 
ATOM     23  O   UNL     1     -12.119  12.020  66.509  0.00  0.00    -0.245 OA
BRANCH  22  24
ATOM     24  O   UNL     1     -10.709  11.497  64.874  0.00  0.00    -0.442 OA
ATOM     25  C   UNL     1     -10.269  11.678  63.530  0.00  0.00    +0.256 C 
ENDBRANCH  22  24
ENDBRANCH   3  22
TORSDOF 6
ENDMDL
MODEL 3
REMARK VINA RESULT:      -5.3      3.925      5.979
REMARK  Name = 
REMARK  6 active torsions:
REMARK  status: ('A' for Active; 'I' for Inactive)
REMARK    1  A    between atoms: C_2  and  O_3
REMARK    2  A    between atoms: O_3  and  C_4
REMARK    3  A    between atoms: C_4  and  C_6
REMARK    4  A    between atoms: C_12  and  C_13
REMARK    5  A    between atoms: C_13  and  O_15
REMARK    6  A    between atoms: C_17  and  C_18
REMARK                            x       y       z     vdW  Elec       q    Type
REMARK                         _______ _______ _______ _____ _____    ______ ____
ROOT
ATOM      1  C   UNL     1     -10.301  14.885  67.159  0.00  0.00    +0.073 C 
ATOM      2  C   UNL     1     -10.119  13.262  67.315  0.00  0.00    +0.082 C 
ATOM      3  C   UNL     1      -8.620  13.285  67.994  0.00  0.00    +0.073 C 
ATOM      4  C   UNL     1      -7.907  14.359  67.756  0.00  0.00    +0.051 C 
ATOM      5  C   UNL     1      -6.413  14.303  67.646  0.00  0.00    +0.049 C 
ATOM      6  N   UNL     1      -8.553  15.406  68.503  0.00  0.00    -0.221 NA
ATOM      7  C   UNL     1      -9.905  15.631  68.119  0.00  0.00    +0.051 C 
ATOM      8  C   UNL     1     -10.459  17.026  68.154  0.00  0.00    +0.049 C 
ENDROOT
BRANCH   2   9
ATOM      9  C   UNL     1     -10.841  13.151  68.789  0.00  0.00    -0.002 A 
ATOM     10  C   UNL     1     -11.218  11.828  69.011  0.00  0.00    +0.065 A 
ATOM     11 CL   UNL     1     -11.283  10.601  67.750  0.00  0.00    -0.082 Cl
ATOM     12  C   UNL     1     -11.961  11.607  70.167  0.00  0.00    +0.068 A 
ATOM     13 CL   UNL     1     -12.224   9.964  70.731  0.00  0.00    -0.081 Cl
ATOM     14  C   UNL     1     -12.524  12.684  70.841  0.00  0.00    +0.012 A 
ATOM     15  C   UNL     1     -12.426  13.958  70.296  0.00  0.00    +0.001 A 
ATOM     16  C   UNL     1     -11.852  14.049  69.034  0.00  0.00    -0.003 A 
ENDBRANCH   2   9
BRANCH   1  17
ATOM     17  C   UNL     1     -10.977  15.295  65.931  0.00  0.00    +0.339 C 
ATOM     18  O   UNL     1     -10.228  15.775  65.026  0.00  0.00    -0.245 OA
BRANCH  17  19
ATOM     19  O   UNL     1     -12.109  14.633  65.439  0.00  0.00    -0.446 OA
BRANCH  19  21
ATOM     20  C   UNL     1     -12.412  12.504  64.545  0.00  0.00    +0.051 C 
ATOM     21  C   UNL     1     -12.073  13.847  64.249  0.00  0.00    +0.209 C 
ENDBRANCH  19  21
ENDBRANCH  17  19
ENDBRANCH   1  17
BRANCH   3  22
ATOM     22  C   UNL     1      -7.942  11.978  67.902  0.00  0.00    +0.339 C 
ATOM     23  O   UNL     1      -8.200  11.343  66.831  0.00  0.00    -0.245 OA
BRANCH  22  24
ATOM     24  O   UNL     1      -7.873  11.134  69.017  0.00  0.00    -0.442 OA
ATOM     25  C   UNL     1      -7.916   9.713  68.902  0.00  0.00    +0.256 C 
ENDBRANCH  22  24
ENDBRANCH   3  22
TORSDOF 6
ENDMDL
MODEL 4
REMARK VINA RESULT:      -5.2      3.305      4.851
REMARK  Name = 
REMARK  6 active torsions:
REMARK  status: ('A' for Active; 'I' for Inactive)
REMARK    1  A    between atoms: C_2  and  O_3
REMARK    2  A    between atoms: O_3  and  C_4
REMARK    3  A    between atoms: C_4  and  C_6
REMARK    4  A    between atoms: C_12  and  C_13
REMARK    5  A    between atoms: C_13  and  O_15
REMARK    6  A    between atoms: C_17  and  C_18
REMARK                            x       y       z     vdW  Elec       q    Type
REMARK                         _______ _______ _______ _____ _____    ______ ____
ROOT
ATOM      1  C   UNL     1     -11.148  13.248  67.055  0.00  0.00    +0.073 C 
ATOM      2  C   UNL     1     -11.295  14.691  67.822  0.00  0.00    +0.082 C 
ATOM      3  C   UNL     1     -11.432  14.100  69.352  0.00  0.00    +0.073 C 
ATOM      4  C   UNL     1     -11.856  12.864  69.446  0.00  0.00    +0.051 C 
ATOM      5  C   UNL     1     -12.684  12.402  70.608  0.00  0.00    +0.049 C 
ATOM      6  N   UNL     1     -10.771  12.060  68.948  0.00  0.00    -0.221 NA
ATOM      7  C   UNL     1     -10.420  12.348  67.599  0.00  0.00    +0.051 C 
ATOM      8  C   UNL     1      -9.955  11.234  66.705  0.00  0.00    +0.049 C 
ENDROOT
BRANCH   2   9
ATOM      9  C   UNL     1      -9.681  14.947  68.011  0.00  0.00    -0.002 A 
ATOM     10  C   UNL     1      -9.456  16.310  68.196  0.00  0.00    +0.065 A 
ATOM     11 CL   UNL     1     -10.654  17.557  67.860  0.00  0.00    -0.082 Cl
ATOM     12  C   UNL     1      -8.120  16.693  68.239  0.00  0.00    +0.068 A 
ATOM     13 CL   UNL     1      -7.694  18.308  68.783  0.00  0.00    -0.081 Cl
ATOM     14  C   UNL     1      -7.135  15.809  67.811  0.00  0.00    +0.012 A 
ATOM     15  C   UNL     1      -7.506  14.594  67.250  0.00  0.00    +0.001 A 
ATOM     16  C   UNL     1      -8.866  14.392  67.053  0.00  0.00    -0.003 A 
ENDBRANCH   2   9
BRANCH   1  17
ATOM     17  C   UNL     1     -11.835  13.182  65.767  0.00  0.00    +0.339 C 
ATOM     18  O   UNL     1     -12.999  13.687  65.740  0.00  0.00    -0.245 OA
BRANCH  17  19
ATOM     19  O   UNL     1     -11.152  13.262  64.548  0.00  0.00    -0.446 OA
BRANCH  19  21
ATOM     20  C   UNL     1     -10.337  11.569  63.172  0.00  0.00    +0.051 C 
ATOM     21  C   UNL     1     -11.450  12.399  63.452  0.00  0.00    +0.209 C 
ENDBRANCH  19  21
ENDBRANCH  17  19
ENDBRANCH   1  17
BRANCH   3  22
ATOM     22  C   UNL     1     -11.997  15.092  70.287  0.00  0.00    +0.339 C 
ATOM     23  O   UNL     1     -12.580  16.063  69.711  0.00  0.00    -0.245 OA
BRANCH  22  24
ATOM     24  O   UNL     1     -11.270  15.500  71.413  0.00  0.00    -0.442 OA
ATOM     25  C   UNL     1     -11.905  15.952  72.608  0.00  0.00    +0.256 C 
ENDBRANCH  22  24
ENDBRANCH   3  22
TORSDOF 6
ENDMDL
MODEL 5
REMARK VINA RESULT:      -5.2      3.067      6.112
REMARK  Name = 
REMARK  6 active torsions:
REMARK  status: ('A' for Active; 'I' for Inactive)
REMARK    1  A    between atoms: C_2  and  O_3
REMARK    2  A    between atoms: O_3  and  C_4
REMARK    3  A    between atoms: C_4  and  C_6
REMARK    4  A    between atoms: C_12  and  C_13
REMARK    5  A    between atoms: C_13  and  O_15
REMARK    6  A    between atoms: C_17  and  C_18
REMARK                            x       y       z     vdW  Elec       q    Type
REMARK                         _______ _______ _______ _____ _____    ______ ____
ROOT
ATOM      1  C   UNL     1      -9.497  16.464  67.581  0.00  0.00    +0.073 C 
ATOM      2  C   UNL     1      -9.617  14.839  67.392  0.00  0.00    +0.082 C 
ATOM      3  C   UNL     1     -10.735  14.574  68.569  0.00  0.00    +0.073 C 
ATOM      4  C   UNL     1     -10.791  15.483  69.512  0.00  0.00    +0.051 C 
ATOM      5  C   UNL     1     -11.156  15.132  70.923  0.00  0.00    +0.049 C 
ATOM      6  N   UNL     1     -11.349  16.646  68.873  0.00  0.00    -0.221 NA
ATOM      7  C   UNL     1     -10.570  17.128  67.784  0.00  0.00    +0.051 C 
ATOM      8  C   UNL     1     -10.501  18.606  67.525  0.00  0.00    +0.049 C 
ENDROOT
BRANCH   2   9
ATOM      9  C   UNL     1     -10.779  14.889  66.229  0.00  0.00    -0.002 A 
ATOM     10  C   UNL     1     -10.867  13.639  65.620  0.00  0.00    +0.065 A 
ATOM     11 CL   UNL     1      -9.651  12.376  65.791  0.00  0.00    -0.082 Cl
ATOM     12  C   UNL     1     -11.721  13.569  64.524  0.00  0.00    +0.068 A 
ATOM     13 CL   UNL     1     -12.169  12.002  63.868  0.00  0.00    -0.081 Cl
ATOM     14  C   UNL     1     -12.178  14.740  63.930  0.00  0.00    +0.012 A 
ATOM     15  C   UNL     1     -11.695  15.965  64.374  0.00  0.00    +0.001 A 
ATOM     16  C   UNL     1     -10.685  15.923  65.327  0.00  0.00    -0.003 A 
ENDBRANCH   2   9
BRANCH   1  17
ATOM     17  C   UNL     1      -8.141  16.985  67.426  0.00  0.00    +0.339 C 
ATOM     18  O   UNL     1      -7.386  16.863  68.438  0.00  0.00    -0.245 OA
BRANCH  17  19
ATOM     19  O   UNL     1      -7.460  16.953  66.202  0.00  0.00    -0.446 OA
BRANCH  19  21
ATOM     20  C   UNL     1      -7.254  19.240  65.809  0.00  0.00    +0.051 C 
ATOM     21  C   UNL     1      -6.575  17.996  65.798  0.00  0.00    +0.209 C 
ENDBRANCH  19  21
ENDBRANCH  17  19
ENDBRANCH   1  17
BRANCH   3  22
ATOM     22  C   UNL     1     -10.793  13.157  68.980  0.00  0.00    +0.339 C 
ATOM     23  O   UNL     1      -9.695  12.536  68.828  0.00  0.00    -0.245 OA
BRANCH  22  24
ATOM     24  O   UNL     1     -11.901  12.368  68.648  0.00  0.00    -0.442 OA
ATOM     25  C   UNL     1     -12.100  11.065  69.193  0.00  0.00    +0.256 C 
ENDBRANCH  22  24
ENDBRANCH   3  22
TORSDOF 6
ENDMDL
MODEL 6
REMARK VINA RESULT:      -5.1      4.562      6.443
REMARK  Name = 
REMARK  6 active torsions:
REMARK  status: ('A' for Active; 'I' for Inactive)
REMARK    1  A    between atoms: C_2  and  O_3
REMARK    2  A    between atoms: O_3  and  C_4
REMARK    3  A    between atoms: C_4  and  C_6
REMARK    4  A    between atoms: C_12  and  C_13
REMARK    5  A    between atoms: C_13  and  O_15
REMARK    6  A    between atoms: C_17  and  C_18
REMARK                            x       y       z     vdW  Elec       q    Type
REMARK                         _______ _______ _______ _____ _____    ______ ____
ROOT
ATOM      1  C   UNL     1     -10.910  13.283  67.372  0.00  0.00    +0.073 C 
ATOM      2  C   UNL     1     -10.108  11.857  67.258  0.00  0.00    +0.082 C 
ATOM      3  C   UNL     1      -8.658  12.388  67.828  0.00  0.00    +0.073 C 
ATOM      4  C   UNL     1      -8.442  13.675  67.714  0.00  0.00    +0.051 C 
ATOM      5  C   UNL     1      -7.065  14.225  67.495  0.00  0.00    +0.049 C 
ATOM      6  N   UNL     1      -9.339  14.288  68.658  0.00  0.00    -0.221 NA
ATOM      7  C   UNL     1     -10.711  14.006  68.408  0.00  0.00    +0.051 C 
ATOM      8  C   UNL     1     -11.744  15.056  68.699  0.00  0.00    +0.049 C 
ENDROOT
BRANCH   2   9
ATOM      9  C   UNL     1     -10.544  11.297  68.742  0.00  0.00    -0.002 A 
ATOM     10  C   UNL     1     -10.325   9.922  68.792  0.00  0.00    +0.065 A 
ATOM     11 CL   UNL     1     -10.034   8.923  67.371  0.00  0.00    -0.082 Cl
ATOM     12  C   UNL     1     -10.773   9.289  69.946  0.00  0.00    +0.068 A 
ATOM     13 CL   UNL     1     -10.279   7.636  70.280  0.00  0.00    -0.081 Cl
ATOM     14  C   UNL     1     -11.641   9.954  70.804  0.00  0.00    +0.012 A 
ATOM     15  C   UNL     1     -12.132  11.203  70.447  0.00  0.00    +0.001 A 
ATOM     16  C   UNL     1     -11.797  11.659  69.178  0.00  0.00    -0.003 A 
ENDBRANCH   2   9
BRANCH   1  17
ATOM     17  C   UNL     1     -11.838  13.537  66.272  0.00  0.00    +0.339 C 
ATOM     18  O   UNL     1     -11.586  14.561  65.566  0.00  0.00    -0.245 OA
BRANCH  17  19
ATOM     19  O   UNL     1     -12.469  12.503  65.569  0.00  0.00    -0.446 OA
BRANCH  19  21
ATOM     20  C   UNL     1     -11.356  11.613  63.727  0.00  0.00    +0.051 C 
ATOM     21  C   UNL     1     -12.440  12.424  64.145  0.00  0.00    +0.209 C 
ENDBRANCH  19  21
ENDBRANCH  17  19
ENDBRANCH   1  17
BRANCH   3  22
ATOM     22  C   UNL     1      -7.552  11.474  67.485  0.00  0.00    +0.339 C 
ATOM     23  O   UNL     1      -7.655  10.958  66.328  0.00  0.00    -0.245 OA
BRANCH  22  24
ATOM     24  O   UNL     1      -7.064  10.564  68.432  0.00  0.00    -0.442 OA
ATOM     25  C   UNL     1      -6.716  10.958  69.758  0.00  0.00    +0.256 C 
ENDBRANCH  22  24
ENDBRANCH   3  22
TORSDOF 6
ENDMDL
MODEL 7
REMARK VINA RESULT:      -5.1      2.376      3.448
REMARK  Name = 
REMARK  6 active torsions:
REMARK  status: ('A' for Active; 'I' for Inactive)
REMARK    1  A    between atoms: C_2  and  O_3
REMARK    2  A    between atoms: O_3  and  C_4
REMARK    3  A    between atoms: C_4  and  C_6
REMARK    4  A    between atoms: C_12  and  C_13
REMARK    5  A    between atoms: C_13  and  O_15
REMARK    6  A    between atoms: C_17  and  C_18
REMARK                            x       y       z     vdW  Elec       q    Type
REMARK                         _______ _______ _______ _____ _____    ______ ____
ROOT
ATOM      1  C   UNL     1     -11.217  13.472  66.971  0.00  0.00    +0.073 C 
ATOM      2  C   UNL     1     -10.428  14.910  66.961  0.00  0.00    +0.082 C 
ATOM      3  C   UNL     1     -10.807  15.366  68.495  0.00  0.00    +0.073 C 
ATOM      4  C   UNL     1     -11.882  14.814  69.001  0.00  0.00    +0.051 C 
ATOM      5  C   UNL     1     -12.757  15.541  69.977  0.00  0.00    +0.049 C 
ATOM      6  N   UNL     1     -11.525  13.436  69.215  0.00  0.00    -0.221 NA
ATOM      7  C   UNL     1     -11.146  12.752  68.025  0.00  0.00    +0.051 C 
ATOM      8  C   UNL     1     -11.491  11.299  67.868  0.00  0.00    +0.049 C 
ENDROOT
BRANCH   2   9
ATOM      9  C   UNL     1      -8.974  14.309  67.445  0.00  0.00    -0.002 A 
ATOM     10  C   UNL     1      -7.981  15.246  67.168  0.00  0.00    +0.065 A 
ATOM     11 CL   UNL     1      -8.207  16.632  66.105  0.00  0.00    -0.082 Cl
ATOM     12  C   UNL     1      -6.678  14.819  67.404  0.00  0.00    +0.068 A 
ATOM     13 CL   UNL     1      -5.366  15.988  67.406  0.00  0.00    -0.081 Cl
ATOM     14  C   UNL     1      -6.420  13.466  67.595  0.00  0.00    +0.012 A 
ATOM     15  C   UNL     1      -7.449  12.546  67.444  0.00  0.00    +0.001 A 
ATOM     16  C   UNL     1      -8.666  13.046  66.997  0.00  0.00    -0.003 A 
ENDBRANCH   2   9
BRANCH   1  17
ATOM     17  C   UNL     1     -11.875  13.142  65.708  0.00  0.00    +0.339 C 
ATOM     18  O   UNL     1     -13.002  13.693  65.517  0.00  0.00    -0.245 OA
BRANCH  17  19
ATOM     19  O   UNL     1     -11.158  12.889  64.532  0.00  0.00    -0.446 OA
BRANCH  19  21
ATOM     20  C   UNL     1     -10.291  10.732  64.394  0.00  0.00    +0.051 C 
ATOM     21  C   UNL     1     -11.234  11.639  63.850  0.00  0.00    +0.209 C 
ENDBRANCH  19  21
ENDBRANCH  17  19
ENDBRANCH   1  17
BRANCH   3  22
ATOM     22  C   UNL     1     -10.613  16.813  68.714  0.00  0.00    +0.339 C 
ATOM     23  O   UNL     1     -11.099  17.539  67.791  0.00  0.00    -0.245 OA
BRANCH  22  24
ATOM     24  O   UNL     1      -9.388  17.300  69.186  0.00  0.00    -0.442 OA
ATOM     25  C   UNL     1      -8.884  18.582  68.815  0.00  0.00    +0.256 C 
ENDBRANCH  22  24
ENDBRANCH   3  22
TORSDOF 6
ENDMDL
MODEL 8
REMARK VINA RESULT:      -5.0      4.533      7.483
REMARK  Name = 
REMARK  6 active torsions:
REMARK  status: ('A' for Active; 'I' for Inactive)
REMARK    1  A    between atoms: C_2  and  O_3
REMARK    2  A    between atoms: O_3  and  C_4
REMARK    3  A    between atoms: C_4  and  C_6
REMARK    4  A    between atoms: C_12  and  C_13
REMARK    5  A    between atoms: C_13  and  O_15
REMARK    6  A    between atoms: C_17  and  C_18
REMARK                            x       y       z     vdW  Elec       q    Type
REMARK                         _______ _______ _______ _____ _____    ______ ____
ROOT
ATOM      1  C   UNL     1     -10.263  12.937  67.298  0.00  0.00    +0.073 C 
ATOM      2  C   UNL     1      -9.221  11.677  67.169  0.00  0.00    +0.082 C 
ATOM      3  C   UNL     1     -10.166  10.549  67.904  0.00  0.00    +0.073 C 
ATOM      4  C   UNL     1     -11.079  11.019  68.718  0.00  0.00    +0.051 C 
ATOM      5  C   UNL     1     -11.515  10.259  69.935  0.00  0.00    +0.049 C 
ATOM      6  N   UNL     1     -12.045  11.658  67.863  0.00  0.00    -0.221 NA
ATOM      7  C   UNL     1     -11.504  12.717  67.082  0.00  0.00    +0.051 C 
ATOM      8  C   UNL     1     -12.353  13.919  66.781  0.00  0.00    +0.049 C 
ENDROOT
BRANCH   2   9
ATOM      9  C   UNL     1      -9.719  11.196  65.677  0.00  0.00    -0.002 A 
ATOM     10  C   UNL     1      -8.754  10.356  65.124  0.00  0.00    +0.065 A 
ATOM     11 CL   UNL     1      -7.117  10.196  65.752  0.00  0.00    -0.082 Cl
ATOM     12  C   UNL     1      -8.981   9.976  63.806  0.00  0.00    +0.068 A 
ATOM     13 CL   UNL     1      -8.030   8.679  63.098  0.00  0.00    -0.081 Cl
ATOM     14  C   UNL     1      -9.928  10.653  63.046  0.00  0.00    +0.012 A 
ATOM     15  C   UNL     1     -10.563  11.767  63.580  0.00  0.00    +0.001 A 
ATOM     16  C   UNL     1     -10.115  12.198  64.822  0.00  0.00    -0.003 A 
ENDBRANCH   2   9
BRANCH   1  17
ATOM     17  C   UNL     1      -9.621  14.217  67.589  0.00  0.00    +0.339 C 
ATOM     18  O   UNL     1      -9.217  14.370  68.781  0.00  0.00    -0.245 OA
BRANCH  17  19
ATOM     19  O   UNL     1      -8.860  14.908  66.637  0.00  0.00    -0.446 OA
BRANCH  19  21
ATOM     20  C   UNL     1     -10.031  16.912  66.458  0.00  0.00    +0.051 C 
ATOM     21  C   UNL     1      -9.441  15.846  65.734  0.00  0.00    +0.209 C 
ENDBRANCH  19  21
ENDBRANCH  17  19
ENDBRANCH   1  17
BRANCH   3  22
ATOM     22  C   UNL     1      -9.394   9.372  68.347  0.00  0.00    +0.339 C 
ATOM     23  O   UNL     1      -8.235   9.657  68.785  0.00  0.00    -0.245 OA
BRANCH  22  24
ATOM     24  O   UNL     1      -9.403   8.192  67.592  0.00  0.00    -0.442 OA
ATOM     25  C   UNL     1     -10.594   7.671  67.006  0.00  0.00    +0.256 C 
ENDBRANCH  22  24
ENDBRANCH   3  22
TORSDOF 6
ENDMDL
MODEL 9
REMARK VINA RESULT:      -4.9      2.926      5.019
REMARK  Name = 
REMARK  6 active torsions:
REMARK  status: ('A' for Active; 'I' for Inactive)
REMARK    1  A    between atoms: C_2  and  O_3
REMARK    2  A    between atoms: O_3  and  C_4
REMARK    3  A    between atoms: C_4  and  C_6
REMARK    4  A    between atoms: C_12  and  C_13
REMARK    5  A    between atoms: C_13  and  O_15
REMARK    6  A    between atoms: C_17  and  C_18
REMARK                            x       y       z     vdW  Elec       q    Type
REMARK                         _______ _______ _______ _____ _____    ______ ____
ROOT
ATOM      1  C   UNL     1      -7.898  17.685  68.147  0.00  0.00    +0.073 C 
ATOM      2  C   UNL     1      -6.742  18.441  69.032  0.00  0.00    +0.082 C 
ATOM      3  C   UNL     1      -5.836  17.110  69.371  0.00  0.00    +0.073 C 
ATOM      4  C   UNL     1      -6.469  15.964  69.315  0.00  0.00    +0.051 C 
ATOM      5  C   UNL     1      -6.102  14.816  70.206  0.00  0.00    +0.049 C 
ATOM      6  N   UNL     1      -6.733  15.755  67.915  0.00  0.00    -0.221 NA
ATOM      7  C   UNL     1      -7.531  16.776  67.325  0.00  0.00    +0.051 C 
ATOM      8  C   UNL     1      -8.510  16.416  66.246  0.00  0.00    +0.049 C 
ENDROOT
BRANCH   2   9
ATOM      9  C   UNL     1      -5.781  18.833  67.755  0.00  0.00    -0.002 A 
ATOM     10  C   UNL     1      -4.898  19.838  68.144  0.00  0.00    +0.065 A 
ATOM     11 CL   UNL     1      -5.083  20.795  69.611  0.00  0.00    -0.082 Cl
ATOM     12  C   UNL     1      -4.109  20.364  67.126  0.00  0.00    +0.068 A 
ATOM     13 CL   UNL     1      -2.744  21.395  67.526  0.00  0.00    -0.081 Cl
ATOM     14  C   UNL     1      -4.432  20.103  65.799  0.00  0.00    +0.012 A 
ATOM     15  C   UNL     1      -5.598  19.407  65.504  0.00  0.00    +0.001 A 
ATOM     16  C   UNL     1      -6.430  19.110  66.576  0.00  0.00    -0.003 A 
ENDBRANCH   2   9
BRANCH   1  17
ATOM     17  C   UNL     1      -9.248  18.201  68.361  0.00  0.00    +0.339 C 
ATOM     18  O   UNL     1     -10.009  17.472  69.068  0.00  0.00    -0.245 OA
BRANCH  17  19
ATOM     19  O   UNL     1      -9.521  19.571  68.461  0.00  0.00    -0.446 OA
BRANCH  19  21
ATOM     20  C   UNL     1     -10.448  19.663  66.326  0.00  0.00    +0.051 C 
ATOM     21  C   UNL     1      -9.734  20.388  67.312  0.00  0.00    +0.209 C 
ENDBRANCH  19  21
ENDBRANCH  17  19
ENDBRANCH   1  17
BRANCH   3  22
ATOM     22  C   UNL     1      -4.919  17.330  70.506  0.00  0.00    +0.339 C 
ATOM     23  O   UNL     1      -5.374  18.130  71.383  0.00  0.00    -0.245 OA
BRANCH  22  24
ATOM     24  O   UNL     1      -3.547  17.506  70.286  0.00  0.00    -0.442 OA
ATOM     25  C   UNL     1      -2.866  16.891  69.194  0.00  0.00    +0.256 C 
ENDBRANCH  22  24
ENDBRANCH   3  22
TORSDOF 6
ENDMDL
