MODEL 1
REMARK VINA RESULT:      -6.9      0.000      0.000
REMARK  Name = 
REMARK  8 active torsions:
REMARK  status: ('A' for Active; 'I' for Inactive)
REMARK    1  A    between atoms: C_2  and  C_3
REMARK    2  A    between atoms: C_5  and  N_6
REMARK    3  A    between atoms: C_5  and  C_46
REMARK    4  A    between atoms: C_7  and  C_9
REMARK    5  A    between atoms: C_16  and  C_17
REMARK    6  A    between atoms: C_38  and  O_39
REMARK    7  A    between atoms: N_48  and  S_49
REMARK    8  A    between atoms: S_49  and  C_52
REMARK                            x       y       z     vdW  Elec       q    Type
REMARK                         _______ _______ _______ _____ _____    ______ ____
ROOT
ATOM      1  C   UNL     1     -10.139   9.678  65.769  0.00  0.00    +0.157 C 
ATOM      2  N   UNL     1      -8.831   8.815  65.646  0.00  0.00    -0.268 N 
ATOM      3  C   UNL     1      -8.188   8.622  64.377  0.00  0.00    +0.246 C 
ATOM      4  C   UNL     1      -6.957   7.593  64.514  0.00  0.00    +0.174 C 
ATOM      5  N   UNL     1      -7.090   7.004  63.057  0.00  0.00    -0.161 NA
ATOM      6  C   UNL     1      -7.796   5.774  63.050  0.00  0.00    +0.421 C 
ATOM      7  O   UNL     1      -7.200   4.778  63.800  0.00  0.00    -0.437 OA
ATOM      8  C   UNL     1      -6.873   5.204  65.254  0.00  0.00    +0.171 C 
ATOM      9  C   UNL     1      -7.652   3.813  65.881  0.00  0.00    +0.044 C 
ATOM     10  C   UNL     1      -7.479   4.214  67.457  0.00  0.00    +0.004 C 
ATOM     11  C   UNL     1      -6.445   5.236  67.635  0.00  0.00    +0.000 C 
ATOM     12  C   UNL     1      -6.635   5.942  68.921  0.00  0.00    +0.000 C 
ATOM     13  C   UNL     1      -5.991   7.290  69.035  0.00  0.00    +0.006 C 
ATOM     14  C   UNL     1      -7.009   8.392  69.356  0.00  0.00    +0.051 C 
ATOM     15  C   UNL     1      -8.070   7.693  70.111  0.00  0.00    +0.112 A 
ATOM     16  C   UNL     1      -9.143   7.247  69.350  0.00  0.00    +0.239 A 
ATOM     17  O   UNL     1      -9.099   7.638  68.007  0.00  0.00    -0.461 OA
ATOM     18  C   UNL     1      -8.980   9.187  68.005  0.00  0.00    +0.189 C 
ATOM     19  N   UNL     1     -10.028   6.456  69.936  0.00  0.00    -0.209 NA
ATOM     20  C   UNL     1     -10.009   6.338  71.291  0.00  0.00    +0.105 A 
ATOM     21  C   UNL     1      -9.240   7.265  71.989  0.00  0.00    +0.099 A 
ATOM     22  C   UNL     1      -9.538   7.542  73.315  0.00  0.00    +0.024 A 
ATOM     23  C   UNL     1     -10.420   6.679  73.954  0.00  0.00    +0.039 A 
ATOM     24  C   UNL     1     -10.833   5.486  73.371  0.00  0.00    +0.140 A 
ATOM     25  C   UNL     1     -10.837   5.483  71.980  0.00  0.00    +0.058 A 
ATOM     26  N   UNL     1      -8.019   7.523  71.457  0.00  0.00    -0.243 NA
ATOM     27  C   UNL     1      -5.973   3.770  65.537  0.00  0.00    +0.047 C 
ATOM     28  O   UNL     1      -8.619   5.517  62.142  0.00  0.00    -0.225 OA
ATOM     29  O   UNL     1      -8.890   8.609  63.362  0.00  0.00    -0.273 OA
ATOM     30  C   UNL     1      -8.083   9.303  66.647  0.00  0.00    +0.137 C 
ATOM     31  C   UNL     1     -10.442   9.263  67.306  0.00  0.00    +0.075 C 
ENDROOT
BRANCH   4  32
ATOM     32  C   UNL     1      -5.832   8.670  64.000  0.00  0.00    +0.027 C 
ATOM     33  C   UNL     1      -4.958   7.890  63.020  0.00  0.00    +0.002 C 
ATOM     34  C   UNL     1      -4.972   9.050  65.130  0.00  0.00    +0.002 C 
ATOM     35  C   UNL     1      -6.503   9.740  63.243  0.00  0.00    +0.002 C 
ENDBRANCH   4  32
BRANCH   1  37
ATOM     36  N   UNL     1     -10.455  12.002  66.563  0.00  0.00    -0.198 NA
ATOM     37  C   UNL     1      -9.457  11.096  66.185  0.00  0.00    +0.260 C 
ATOM     38  O   UNL     1      -8.705  11.563  65.276  0.00  0.00    -0.272 OA
BRANCH  36  40
ATOM     39  C   UNL     1     -11.216  13.447  64.548  0.00  0.00    +0.051 C 
ATOM     40  C   UNL     1     -10.820  13.293  66.137  0.00  0.00    +0.156 C 
ATOM     41  C   UNL     1     -12.378  12.998  65.638  0.00  0.00    +0.036 C 
BRANCH  40  42
ATOM     42  C   UNL     1     -10.732  14.492  66.940  0.00  0.00    +0.291 C 
ATOM     43  N   UNL     1     -11.499  14.748  67.962  0.00  0.00    -0.092 NA
ATOM     44  O   UNL     1      -9.481  15.117  67.030  0.00  0.00    -0.267 OA
BRANCH  43  45
ATOM     45  S   UNL     1     -11.051  15.666  69.321  0.00  0.00    +0.082 S 
ATOM     46  O   UNL     1     -10.987  17.120  68.905  0.00  0.00    -0.151 OA
ATOM     47  O   UNL     1      -9.719  15.322  69.891  0.00  0.00    -0.151 OA
BRANCH  45  48
ATOM     48  C   UNL     1     -12.276  15.624  70.624  0.00  0.00    +0.153 C 
ATOM     49  C   UNL     1     -12.428  14.218  71.226  0.00  0.00    +0.028 C 
ATOM     50  C   UNL     1     -11.719  15.280  71.989  0.00  0.00    +0.028 C 
ENDBRANCH  45  48
ENDBRANCH  43  45
ENDBRANCH  40  42
BRANCH  39  52
ATOM     51  C   UNL     1     -12.361  15.320  64.102  0.00  0.00    -0.005 C 
ATOM     52  C   UNL     1     -11.654  15.032  64.570  0.00  0.00    -0.024 C 
ENDBRANCH  39  52
ENDBRANCH  36  40
ENDBRANCH   1  37
BRANCH  24  53
ATOM     53  O   UNL     1     -10.891   4.300  74.111  0.00  0.00    -0.471 OA
ATOM     54  C   UNL     1     -10.034   4.188  75.224  0.00  0.00    +0.252 C 
ENDBRANCH  24  53
TORSDOF 8
ENDMDL
MODEL 2
REMARK VINA RESULT:      -6.9      2.622      7.336
REMARK  Name = 
REMARK  8 active torsions:
REMARK  status: ('A' for Active; 'I' for Inactive)
REMARK    1  A    between atoms: C_2  and  C_3
REMARK    2  A    between atoms: C_5  and  N_6
REMARK    3  A    between atoms: C_5  and  C_46
REMARK    4  A    between atoms: C_7  and  C_9
REMARK    5  A    between atoms: C_16  and  C_17
REMARK    6  A    between atoms: C_38  and  O_39
REMARK    7  A    between atoms: N_48  and  S_49
REMARK    8  A    between atoms: S_49  and  C_52
REMARK                            x       y       z     vdW  Elec       q    Type
REMARK                         _______ _______ _______ _____ _____    ______ ____
ROOT
ATOM      1  C   UNL     1      -8.055  10.892  69.031  0.00  0.00    +0.157 C 
ATOM      2  N   UNL     1      -8.362   9.351  69.021  0.00  0.00    -0.268 N 
ATOM      3  C   UNL     1      -8.940   8.702  70.165  0.00  0.00    +0.246 C 
ATOM      4  C   UNL     1      -9.020   7.111  69.936  0.00  0.00    +0.174 C 
ATOM      5  N   UNL     1      -8.836   6.732  71.456  0.00  0.00    -0.161 NA
ATOM      6  C   UNL     1      -7.495   6.373  71.750  0.00  0.00    +0.421 C 
ATOM      7  O   UNL     1      -7.035   5.283  71.037  0.00  0.00    -0.437 OA
ATOM      8  C   UNL     1      -7.236   5.410  69.505  0.00  0.00    +0.171 C 
ATOM      9  C   UNL     1      -5.594   5.018  69.214  0.00  0.00    +0.044 C 
ATOM     10  C   UNL     1      -5.647   5.242  67.595  0.00  0.00    +0.004 C 
ATOM     11  C   UNL     1      -7.026   5.228  67.101  0.00  0.00    +0.000 C 
ATOM     12  C   UNL     1      -7.112   5.913  65.792  0.00  0.00    +0.000 C 
ATOM     13  C   UNL     1      -8.469   6.403  65.391  0.00  0.00    +0.006 C 
ATOM     14  C   UNL     1      -8.483   7.913  65.125  0.00  0.00    +0.051 C 
ATOM     15  C   UNL     1      -7.109   8.212  64.672  0.00  0.00    +0.112 A 
ATOM     16  C   UNL     1      -6.237   8.632  65.668  0.00  0.00    +0.239 A 
ATOM     17  O   UNL     1      -6.835   8.818  66.920  0.00  0.00    -0.461 OA
ATOM     18  C   UNL     1      -8.005   9.817  66.702  0.00  0.00    +0.189 C 
ATOM     19  N   UNL     1      -4.953   8.734  65.360  0.00  0.00    -0.209 NA
ATOM     20  C   UNL     1      -4.586   8.696  64.051  0.00  0.00    +0.105 A 
ATOM     21  C   UNL     1      -5.604   8.826  63.111  0.00  0.00    +0.099 A 
ATOM     22  C   UNL     1      -5.306   9.289  61.838  0.00  0.00    +0.024 A 
ATOM     23  C   UNL     1      -3.963   9.341  61.487  0.00  0.00    +0.039 A 
ATOM     24  C   UNL     1      -2.973   8.775  62.283  0.00  0.00    +0.140 A 
ATOM     25  C   UNL     1      -3.273   8.717  63.641  0.00  0.00    +0.058 A 
ATOM     26  N   UNL     1      -6.729   8.114  63.373  0.00  0.00    -0.243 NA
ATOM     27  C   UNL     1      -6.776   3.776  69.246  0.00  0.00    +0.047 C 
ATOM     28  O   UNL     1      -6.957   6.741  72.818  0.00  0.00    -0.225 OA
ATOM     29  O   UNL     1      -8.678   9.151  71.284  0.00  0.00    -0.273 OA
ATOM     30  C   UNL     1      -8.991   9.201  67.846  0.00  0.00    +0.137 C 
ATOM     31  C   UNL     1      -7.221  10.882  67.641  0.00  0.00    +0.075 C 
ENDROOT
BRANCH   4  32
ATOM     32  C   UNL     1     -10.651   7.041  70.094  0.00  0.00    +0.027 C 
ATOM     33  C   UNL     1     -10.896   6.056  71.235  0.00  0.00    +0.002 C 
ATOM     34  C   UNL     1     -11.230   6.443  68.883  0.00  0.00    +0.002 C 
ATOM     35  C   UNL     1     -11.148   8.357  70.529  0.00  0.00    +0.002 C 
ENDBRANCH   4  32
BRANCH   1  37
ATOM     36  N   UNL     1      -9.169  12.620  67.650  0.00  0.00    -0.198 NA
ATOM     37  C   UNL     1      -9.421  11.416  68.319  0.00  0.00    +0.260 C 
ATOM     38  O   UNL     1     -10.390  11.515  69.134  0.00  0.00    -0.272 OA
BRANCH  36  40
ATOM     39  C   UNL     1      -9.136  14.910  68.866  0.00  0.00    +0.051 C 
ATOM     40  C   UNL     1      -9.730  13.909  67.705  0.00  0.00    +0.156 C 
ATOM     41  C   UNL     1      -8.376  14.822  67.399  0.00  0.00    +0.036 C 
BRANCH  40  42
ATOM     42  C   UNL     1     -10.866  14.358  66.930  0.00  0.00    +0.291 C 
ATOM     43  N   UNL     1     -10.851  14.526  65.638  0.00  0.00    -0.092 NA
ATOM     44  O   UNL     1     -12.143  14.056  67.424  0.00  0.00    -0.267 OA
BRANCH  43  45
ATOM     45  S   UNL     1     -12.190  14.334  64.607  0.00  0.00    +0.082 S 
ATOM     46  O   UNL     1     -12.410  15.641  63.875  0.00  0.00    -0.151 OA
ATOM     47  O   UNL     1     -13.465  14.007  65.300  0.00  0.00    -0.151 OA
BRANCH  45  48
ATOM     48  C   UNL     1     -11.902  13.135  63.310  0.00  0.00    +0.153 C 
ATOM     49  C   UNL     1     -11.214  11.867  63.842  0.00  0.00    +0.028 C 
ATOM     50  C   UNL     1     -12.659  11.836  63.488  0.00  0.00    +0.028 C 
ENDBRANCH  45  48
ENDBRANCH  43  45
ENDBRANCH  40  42
BRANCH  39  52
ATOM     51  C   UNL     1      -9.632  17.075  68.578  0.00  0.00    -0.005 C 
ATOM     52  C   UNL     1      -9.985  16.260  68.467  0.00  0.00    -0.024 C 
ENDBRANCH  39  52
ENDBRANCH  36  40
ENDBRANCH   1  37
BRANCH  24  53
ATOM     53  O   UNL     1      -1.938   8.017  61.724  0.00  0.00    -0.471 OA
ATOM     54  C   UNL     1      -2.203   6.661  61.451  0.00  0.00    +0.252 C 
ENDBRANCH  24  53
TORSDOF 8
ENDMDL
MODEL 3
REMARK VINA RESULT:      -6.8      4.337      7.953
REMARK  Name = 
REMARK  8 active torsions:
REMARK  status: ('A' for Active; 'I' for Inactive)
REMARK    1  A    between atoms: C_2  and  C_3
REMARK    2  A    between atoms: C_5  and  N_6
REMARK    3  A    between atoms: C_5  and  C_46
REMARK    4  A    between atoms: C_7  and  C_9
REMARK    5  A    between atoms: C_16  and  C_17
REMARK    6  A    between atoms: C_38  and  O_39
REMARK    7  A    between atoms: N_48  and  S_49
REMARK    8  A    between atoms: S_49  and  C_52
REMARK                            x       y       z     vdW  Elec       q    Type
REMARK                         _______ _______ _______ _____ _____    ______ ____
ROOT
ATOM      1  C   UNL     1      -5.224   8.953  70.122  0.00  0.00    +0.157 C 
ATOM      2  N   UNL     1      -6.240   7.763  70.270  0.00  0.00    -0.268 N 
ATOM      3  C   UNL     1      -5.791   6.445  70.620  0.00  0.00    +0.246 C 
ATOM      4  C   UNL     1      -7.012   5.397  70.569  0.00  0.00    +0.174 C 
ATOM      5  N   UNL     1      -6.130   4.160  70.144  0.00  0.00    -0.161 NA
ATOM      6  C   UNL     1      -6.195   3.924  68.748  0.00  0.00    +0.421 C 
ATOM      7  O   UNL     1      -7.466   3.651  68.279  0.00  0.00    -0.437 OA
ATOM      8  C   UNL     1      -8.522   4.706  68.697  0.00  0.00    +0.171 C 
ATOM      9  C   UNL     1      -9.056   4.874  67.078  0.00  0.00    +0.044 C 
ATOM     10  C   UNL     1     -10.120   6.081  67.372  0.00  0.00    +0.004 C 
ATOM     11  C   UNL     1     -10.451   6.164  68.796  0.00  0.00    +0.000 C 
ATOM     12  C   UNL     1     -10.976   7.507  69.126  0.00  0.00    +0.000 C 
ATOM     13  C   UNL     1     -10.905   7.907  70.568  0.00  0.00    +0.006 C 
ATOM     14  C   UNL     1     -10.106   9.201  70.770  0.00  0.00    +0.051 C 
ATOM     15  C   UNL     1     -10.295   9.943  69.506  0.00  0.00    +0.112 A 
ATOM     16  C   UNL     1      -9.302   9.754  68.554  0.00  0.00    +0.239 A 
ATOM     17  O   UNL     1      -8.220   8.981  68.995  0.00  0.00    -0.461 OA
ATOM     18  C   UNL     1      -7.682   9.672  70.278  0.00  0.00    +0.189 C 
ATOM     19  N   UNL     1      -9.509  10.240  67.341  0.00  0.00    -0.209 NA
ATOM     20  C   UNL     1     -10.528  11.121  67.151  0.00  0.00    +0.105 A 
ATOM     21  C   UNL     1     -11.111  11.659  68.295  0.00  0.00    +0.099 A 
ATOM     22  C   UNL     1     -11.770  12.878  68.219  0.00  0.00    +0.024 A 
ATOM     23  C   UNL     1     -12.045  13.365  66.948  0.00  0.00    +0.039 A 
ATOM     24  C   UNL     1     -11.857  12.592  65.808  0.00  0.00    +0.140 A 
ATOM     25  C   UNL     1     -10.868  11.619  65.915  0.00  0.00    +0.058 A 
ATOM     26  N   UNL     1     -11.346  10.775  69.297  0.00  0.00    -0.243 NA
ATOM     27  C   UNL     1      -9.813   3.735  68.114  0.00  0.00    +0.047 C 
ATOM     28  O   UNL     1      -5.169   3.593  68.109  0.00  0.00    -0.225 OA
ATOM     29  O   UNL     1      -4.665   6.096  70.256  0.00  0.00    -0.273 OA
ATOM     30  C   UNL     1      -7.198   8.310  71.033  0.00  0.00    +0.137 C 
ATOM     31  C   UNL     1      -6.301   9.984  69.486  0.00  0.00    +0.075 C 
ENDROOT
BRANCH   4  32
ATOM     32  C   UNL     1      -6.883   4.974  72.148  0.00  0.00    +0.027 C 
ATOM     33  C   UNL     1      -8.192   5.435  72.788  0.00  0.00    +0.002 C 
ATOM     34  C   UNL     1      -5.806   5.754  72.773  0.00  0.00    +0.002 C 
ATOM     35  C   UNL     1      -6.831   3.506  72.250  0.00  0.00    +0.002 C 
ENDBRANCH   4  32
BRANCH   1  37
ATOM     36  N   UNL     1      -5.192  10.968  71.561  0.00  0.00    -0.198 NA
ATOM     37  C   UNL     1      -5.363   9.579  71.617  0.00  0.00    +0.260 C 
ATOM     38  O   UNL     1      -4.578   9.032  72.451  0.00  0.00    -0.272 OA
BRANCH  36  40
ATOM     39  C   UNL     1      -3.202  12.601  71.246  0.00  0.00    +0.051 C 
ATOM     40  C   UNL     1      -4.327  11.875  72.201  0.00  0.00    +0.156 C 
ATOM     41  C   UNL     1      -4.712  13.265  71.375  0.00  0.00    +0.036 C 
BRANCH  40  42
ATOM     42  C   UNL     1      -4.260  12.101  73.627  0.00  0.00    +0.291 C 
ATOM     43  N   UNL     1      -5.292  12.374  74.375  0.00  0.00    -0.092 NA
ATOM     44  O   UNL     1      -3.232  11.461  74.334  0.00  0.00    -0.267 OA
BRANCH  43  45
ATOM     45  S   UNL     1      -5.458  11.952  76.014  0.00  0.00    +0.082 S 
ATOM     46  O   UNL     1      -6.813  12.433  76.487  0.00  0.00    -0.151 OA
ATOM     47  O   UNL     1      -4.444  12.561  76.917  0.00  0.00    -0.151 OA
BRANCH  45  48
ATOM     48  C   UNL     1      -5.491  10.183  76.276  0.00  0.00    +0.153 C 
ATOM     49  C   UNL     1      -6.813   9.720  76.912  0.00  0.00    +0.028 C 
ATOM     50  C   UNL     1      -6.547   9.455  75.471  0.00  0.00    +0.028 C 
ENDBRANCH  45  48
ENDBRANCH  43  45
ENDBRANCH  40  42
BRANCH  39  52
ATOM     51  C   UNL     1      -2.096  14.335  72.132  0.00  0.00    -0.005 C 
ATOM     52  C   UNL     1      -2.547  13.601  72.375  0.00  0.00    -0.024 C 
ENDBRANCH  39  52
ENDBRANCH  36  40
ENDBRANCH   1  37
BRANCH  24  53
ATOM     53  O   UNL     1     -12.813  12.561  64.786  0.00  0.00    -0.471 OA
ATOM     54  C   UNL     1     -12.374  12.187  63.500  0.00  0.00    +0.252 C 
ENDBRANCH  24  53
TORSDOF 8
ENDMDL
MODEL 4
REMARK VINA RESULT:      -6.7      2.098      2.824
REMARK  Name = 
REMARK  8 active torsions:
REMARK  status: ('A' for Active; 'I' for Inactive)
REMARK    1  A    between atoms: C_2  and  C_3
REMARK    2  A    between atoms: C_5  and  N_6
REMARK    3  A    between atoms: C_5  and  C_46
REMARK    4  A    between atoms: C_7  and  C_9
REMARK    5  A    between atoms: C_16  and  C_17
REMARK    6  A    between atoms: C_38  and  O_39
REMARK    7  A    between atoms: N_48  and  S_49
REMARK    8  A    between atoms: S_49  and  C_52
REMARK                            x       y       z     vdW  Elec       q    Type
REMARK                         _______ _______ _______ _____ _____    ______ ____
ROOT
ATOM      1  C   UNL     1     -10.744  11.315  64.961  0.00  0.00    +0.157 C 
ATOM      2  N   UNL     1      -9.509  10.387  64.673  0.00  0.00    -0.268 N 
ATOM      3  C   UNL     1      -8.959  10.273  63.351  0.00  0.00    +0.246 C 
ATOM      4  C   UNL     1      -7.797   9.159  63.313  0.00  0.00    +0.174 C 
ATOM      5  N   UNL     1      -8.060   8.720  61.821  0.00  0.00    -0.161 NA
ATOM      6  C   UNL     1      -8.848   7.543  61.751  0.00  0.00    +0.421 C 
ATOM      7  O   UNL     1      -8.278   6.445  62.367  0.00  0.00    -0.437 OA
ATOM      8  C   UNL     1      -7.834   6.711  63.828  0.00  0.00    +0.171 C 
ATOM      9  C   UNL     1      -8.668   5.320  64.378  0.00  0.00    +0.044 C 
ATOM     10  C   UNL     1      -8.371   5.559  65.969  0.00  0.00    +0.004 C 
ATOM     11  C   UNL     1      -7.260   6.492  66.169  0.00  0.00    +0.000 C 
ATOM     12  C   UNL     1      -7.321   7.085  67.522  0.00  0.00    +0.000 C 
ATOM     13  C   UNL     1      -6.580   8.372  67.713  0.00  0.00    +0.006 C 
ATOM     14  C   UNL     1      -7.497   9.501  68.199  0.00  0.00    +0.051 C 
ATOM     15  C   UNL     1      -8.555   8.804  68.958  0.00  0.00    +0.112 A 
ATOM     16  C   UNL     1      -9.701   8.501  68.234  0.00  0.00    +0.239 A 
ATOM     17  O   UNL     1      -9.713   9.012  66.931  0.00  0.00    -0.461 OA
ATOM     18  C   UNL     1      -9.486  10.544  67.060  0.00  0.00    +0.189 C 
ATOM     19  N   UNL     1     -10.602   7.715  68.805  0.00  0.00    -0.209 NA
ATOM     20  C   UNL     1     -10.509   7.470  70.140  0.00  0.00    +0.105 A 
ATOM     21  C   UNL     1      -9.636   8.276  70.865  0.00  0.00    +0.099 A 
ATOM     22  C   UNL     1      -9.832   8.446  72.228  0.00  0.00    +0.024 A 
ATOM     23  C   UNL     1     -10.731   7.585  72.844  0.00  0.00    +0.039 A 
ATOM     24  C   UNL     1     -11.261   6.480  72.186  0.00  0.00    +0.140 A 
ATOM     25  C   UNL     1     -11.350   6.608  70.803  0.00  0.00    +0.058 A 
ATOM     26  N   UNL     1      -8.434   8.505  70.277  0.00  0.00    -0.243 NA
ATOM     27  C   UNL     1      -7.020   5.202  63.921  0.00  0.00    +0.047 C 
ATOM     28  O   UNL     1      -9.741   7.425  60.882  0.00  0.00    -0.225 OA
ATOM     29  O   UNL     1      -9.721  10.400  62.389  0.00  0.00    -0.273 OA
ATOM     30  C   UNL     1      -8.668  10.729  65.661  0.00  0.00    +0.137 C 
ATOM     31  C   UNL     1     -10.980  10.778  66.472  0.00  0.00    +0.075 C 
ENDROOT
BRANCH   4  32
ATOM     32  C   UNL     1      -6.634  10.206  62.823  0.00  0.00    +0.027 C 
ATOM     33  C   UNL     1      -5.701   9.376  61.942  0.00  0.00    +0.002 C 
ATOM     34  C   UNL     1      -5.848  10.638  63.987  0.00  0.00    +0.002 C 
ATOM     35  C   UNL     1      -7.246  11.240  61.971  0.00  0.00    +0.002 C 
ENDBRANCH   4  32
BRANCH   1  37
ATOM     36  N   UNL     1     -10.287  12.931  66.781  0.00  0.00    -0.198 NA
ATOM     37  C   UNL     1      -9.941  12.641  65.456  0.00  0.00    +0.260 C 
ATOM     38  O   UNL     1     -10.117  13.635  64.686  0.00  0.00    -0.272 OA
BRANCH  36  40
ATOM     39  C   UNL     1     -12.062  13.793  68.465  0.00  0.00    +0.051 C 
ATOM     40  C   UNL     1     -10.810  14.063  67.433  0.00  0.00    +0.156 C 
ATOM     41  C   UNL     1     -10.507  13.647  69.013  0.00  0.00    +0.036 C 
BRANCH  40  42
ATOM     42  C   UNL     1     -10.434  15.432  67.158  0.00  0.00    +0.291 C 
ATOM     43  N   UNL     1      -9.414  16.036  67.701  0.00  0.00    -0.092 NA
ATOM     44  O   UNL     1     -10.763  15.950  65.897  0.00  0.00    -0.267 OA
BRANCH  43  45
ATOM     45  S   UNL     1      -8.498  17.267  66.970  0.00  0.00    +0.082 S 
ATOM     46  O   UNL     1      -7.902  16.714  65.694  0.00  0.00    -0.151 OA
ATOM     47  O   UNL     1      -7.364  17.769  67.794  0.00  0.00    -0.151 OA
BRANCH  45  48
ATOM     48  C   UNL     1      -9.495  18.654  66.438  0.00  0.00    +0.153 C 
ATOM     49  C   UNL     1     -10.410  19.169  67.561  0.00  0.00    +0.028 C 
ATOM     50  C   UNL     1      -9.202  19.946  67.171  0.00  0.00    +0.028 C 
ENDBRANCH  45  48
ENDBRANCH  43  45
ENDBRANCH  40  42
BRANCH  39  52
ATOM     51  C   UNL     1     -12.355  15.484  69.904  0.00  0.00    -0.005 C 
ATOM     52  C   UNL     1     -12.232  15.327  69.031  0.00  0.00    -0.024 C 
ENDBRANCH  39  52
ENDBRANCH  36  40
ENDBRANCH   1  37
BRANCH  24  53
ATOM     53  O   UNL     1     -11.356   5.236  72.819  0.00  0.00    -0.471 OA
ATOM     54  C   UNL     1     -10.580   5.038  73.978  0.00  0.00    +0.252 C 
ENDBRANCH  24  53
TORSDOF 8
ENDMDL
MODEL 5
REMARK VINA RESULT:      -6.4      2.214      6.760
REMARK  Name = 
REMARK  8 active torsions:
REMARK  status: ('A' for Active; 'I' for Inactive)
REMARK    1  A    between atoms: C_2  and  C_3
REMARK    2  A    between atoms: C_5  and  N_6
REMARK    3  A    between atoms: C_5  and  C_46
REMARK    4  A    between atoms: C_7  and  C_9
REMARK    5  A    between atoms: C_16  and  C_17
REMARK    6  A    between atoms: C_38  and  O_39
REMARK    7  A    between atoms: N_48  and  S_49
REMARK    8  A    between atoms: S_49  and  C_52
REMARK                            x       y       z     vdW  Elec       q    Type
REMARK                         _______ _______ _______ _____ _____    ______ ____
ROOT
ATOM      1  C   UNL     1      -8.767  10.234  69.336  0.00  0.00    +0.157 C 
ATOM      2  N   UNL     1      -9.080   8.753  69.757  0.00  0.00    -0.268 N 
ATOM      3  C   UNL     1      -9.494   8.434  71.095  0.00  0.00    +0.246 C 
ATOM      4  C   UNL     1      -9.613   6.840  71.289  0.00  0.00    +0.174 C 
ATOM      5  N   UNL     1      -9.218   6.845  72.815  0.00  0.00    -0.161 NA
ATOM      6  C   UNL     1      -7.852   6.517  73.006  0.00  0.00    +0.421 C 
ATOM      7  O   UNL     1      -7.501   5.266  72.535  0.00  0.00    -0.437 OA
ATOM      8  C   UNL     1      -7.917   5.015  71.063  0.00  0.00    +0.171 C 
ATOM      9  C   UNL     1      -6.334   4.497  70.661  0.00  0.00    +0.044 C 
ATOM     10  C   UNL     1      -6.614   4.312  69.061  0.00  0.00    +0.004 C 
ATOM     11  C   UNL     1      -8.049   4.231  68.777  0.00  0.00    +0.000 C 
ATOM     12  C   UNL     1      -8.315   4.571  67.362  0.00  0.00    +0.000 C 
ATOM     13  C   UNL     1      -9.714   5.000  67.039  0.00  0.00    +0.006 C 
ATOM     14  C   UNL     1      -9.758   6.395  66.404  0.00  0.00    +0.051 C 
ATOM     15  C   UNL     1      -8.460   6.516  65.708  0.00  0.00    +0.112 A 
ATOM     16  C   UNL     1      -7.453   7.136  66.438  0.00  0.00    +0.239 A 
ATOM     17  O   UNL     1      -7.868   7.651  67.671  0.00  0.00    -0.461 OA
ATOM     18  C   UNL     1      -9.052   8.611  67.369  0.00  0.00    +0.189 C 
ATOM     19  N   UNL     1      -6.225   7.106  65.944  0.00  0.00    -0.209 NA
ATOM     20  C   UNL     1      -6.047   6.728  64.649  0.00  0.00    +0.105 A 
ATOM     21  C   UNL     1      -7.187   6.661  63.854  0.00  0.00    +0.099 A 
ATOM     22  C   UNL     1      -7.070   6.779  62.477  0.00  0.00    +0.024 A 
ATOM     23  C   UNL     1      -5.790   6.687  61.946  0.00  0.00    +0.039 A 
ATOM     24  C   UNL     1      -4.699   6.298  62.717  0.00  0.00    +0.140 A 
ATOM     25  C   UNL     1      -4.805   6.592  64.073  0.00  0.00    +0.058 A 
ATOM     26  N   UNL     1      -8.268   6.082  64.437  0.00  0.00    -0.243 NA
ATOM     27  C   UNL     1      -7.506   3.351  71.165  0.00  0.00    +0.047 C 
ATOM     28  O   UNL     1      -7.165   7.117  73.863  0.00  0.00    -0.225 OA
ATOM     29  O   UNL     1      -9.074   9.136  72.018  0.00  0.00    -0.273 OA
ATOM     30  C   UNL     1      -9.870   8.340  68.754  0.00  0.00    +0.137 C 
ATOM     31  C   UNL     1      -8.138   9.845  67.894  0.00  0.00    +0.075 C 
ENDROOT
BRANCH   4  32
ATOM     32  C   UNL     1     -11.206   6.878  71.678  0.00  0.00    +0.027 C 
ATOM     33  C   UNL     1     -11.406   5.706  72.636  0.00  0.00    +0.002 C 
ATOM     34  C   UNL     1     -12.005   6.590  70.479  0.00  0.00    +0.002 C 
ATOM     35  C   UNL     1     -11.488   8.115  72.424  0.00  0.00    +0.002 C 
ENDBRANCH   4  32
BRANCH   1  37
ATOM     36  N   UNL     1     -10.039  11.424  67.575  0.00  0.00    -0.198 NA
ATOM     37  C   UNL     1     -10.218  10.619  68.707  0.00  0.00    +0.260 C 
ATOM     38  O   UNL     1     -10.994  11.154  69.557  0.00  0.00    -0.272 OA
BRANCH  36  40
ATOM     39  C   UNL     1     -10.518  13.009  65.578  0.00  0.00    +0.051 C 
ATOM     40  C   UNL     1     -10.503  12.696  67.193  0.00  0.00    +0.156 C 
ATOM     41  C   UNL     1     -11.817  12.255  66.274  0.00  0.00    +0.036 C 
BRANCH  40  42
ATOM     42  C   UNL     1     -10.823  13.775  68.101  0.00  0.00    +0.291 C 
ATOM     43  N   UNL     1     -11.915  13.837  68.810  0.00  0.00    -0.092 NA
ATOM     44  O   UNL     1      -9.751  14.457  68.694  0.00  0.00    -0.267 OA
BRANCH  43  45
ATOM     45  S   UNL     1     -12.057  14.583  70.332  0.00  0.00    +0.082 S 
ATOM     46  O   UNL     1     -12.681  15.947  70.129  0.00  0.00    -0.151 OA
ATOM     47  O   UNL     1     -10.766  14.800  71.040  0.00  0.00    -0.151 OA
BRANCH  45  48
ATOM     48  C   UNL     1     -13.188  13.728  71.422  0.00  0.00    +0.153 C 
ATOM     49  C   UNL     1     -13.232  14.365  72.820  0.00  0.00    +0.028 C 
ATOM     50  C   UNL     1     -14.365  14.565  71.877  0.00  0.00    +0.028 C 
ENDBRANCH  45  48
ENDBRANCH  43  45
ENDBRANCH  40  42
BRANCH  39  52
ATOM     51  C   UNL     1     -11.367  14.962  64.886  0.00  0.00    -0.005 C 
ATOM     52  C   UNL     1     -11.214  14.497  65.635  0.00  0.00    -0.024 C 
ENDBRANCH  39  52
ENDBRANCH  36  40
ENDBRANCH   1  37
BRANCH  24  53
ATOM     53  O   UNL     1      -3.758   5.384  62.232  0.00  0.00    -0.471 OA
ATOM     54  C   UNL     1      -3.557   4.205  62.978  0.00  0.00    +0.252 C 
ENDBRANCH  24  53
TORSDOF 8
ENDMDL
MODEL 6
REMARK VINA RESULT:      -6.4      5.101      7.111
REMARK  Name = 
REMARK  8 active torsions:
REMARK  status: ('A' for Active; 'I' for Inactive)
REMARK    1  A    between atoms: C_2  and  C_3
REMARK    2  A    between atoms: C_5  and  N_6
REMARK    3  A    between atoms: C_5  and  C_46
REMARK    4  A    between atoms: C_7  and  C_9
REMARK    5  A    between atoms: C_16  and  C_17
REMARK    6  A    between atoms: C_38  and  O_39
REMARK    7  A    between atoms: N_48  and  S_49
REMARK    8  A    between atoms: S_49  and  C_52
REMARK                            x       y       z     vdW  Elec       q    Type
REMARK                         _______ _______ _______ _____ _____    ______ ____
ROOT
ATOM      1  C   UNL     1      -9.123  14.883  68.590  0.00  0.00    +0.157 C 
ATOM      2  N   UNL     1      -8.883  13.376  68.216  0.00  0.00    -0.268 N 
ATOM      3  C   UNL     1      -9.863  12.628  67.480  0.00  0.00    +0.246 C 
ATOM      4  C   UNL     1      -9.425  11.084  67.355  0.00  0.00    +0.174 C 
ATOM      5  N   UNL     1     -10.895  10.512  67.344  0.00  0.00    -0.161 NA
ATOM      6  C   UNL     1     -11.285  10.040  68.623  0.00  0.00    +0.421 C 
ATOM      7  O   UNL     1     -10.493   9.020  69.114  0.00  0.00    -0.437 OA
ATOM      8  C   UNL     1      -8.977   9.345  69.098  0.00  0.00    +0.171 C 
ATOM      9  C   UNL     1      -8.821   8.894  70.743  0.00  0.00    +0.044 C 
ATOM     10  C   UNL     1      -7.248   9.317  70.889  0.00  0.00    +0.004 C 
ATOM     11  C   UNL     1      -6.608   9.446  69.578  0.00  0.00    +0.000 C 
ATOM     12  C   UNL     1      -5.396  10.290  69.676  0.00  0.00    +0.000 C 
ATOM     13  C   UNL     1      -4.915  10.905  68.398  0.00  0.00    +0.006 C 
ATOM     14  C   UNL     1      -4.845  12.435  68.483  0.00  0.00    +0.051 C 
ATOM     15  C   UNL     1      -4.587  12.704  69.913  0.00  0.00    +0.112 A 
ATOM     16  C   UNL     1      -5.718  12.947  70.682  0.00  0.00    +0.239 A 
ATOM     17  O   UNL     1      -6.910  13.013  69.951  0.00  0.00    -0.461 OA
ATOM     18  C   UNL     1      -6.695  14.100  68.861  0.00  0.00    +0.189 C 
ATOM     19  N   UNL     1      -5.569  13.008  71.996  0.00  0.00    -0.209 NA
ATOM     20  C   UNL     1      -4.313  13.109  72.511  0.00  0.00    +0.105 A 
ATOM     21  C   UNL     1      -3.292  13.413  71.616  0.00  0.00    +0.099 A 
ATOM     22  C   UNL     1      -2.129  14.009  72.081  0.00  0.00    +0.024 A 
ATOM     23  C   UNL     1      -1.938  14.023  73.456  0.00  0.00    +0.039 A 
ATOM     24  C   UNL     1      -2.758  13.307  74.320  0.00  0.00    +0.140 A 
ATOM     25  C   UNL     1      -4.056  13.101  73.862  0.00  0.00    +0.058 A 
ATOM     26  N   UNL     1      -3.336  12.743  70.437  0.00  0.00    -0.243 NA
ATOM     27  C   UNL     1      -8.564   7.731  69.510  0.00  0.00    +0.047 C 
ATOM     28  O   UNL     1     -12.445  10.242  69.051  0.00  0.00    -0.225 OA
ATOM     29  O   UNL     1     -11.053  12.920  67.630  0.00  0.00    -0.273 OA
ATOM     30  C   UNL     1      -7.636  13.408  67.722  0.00  0.00    +0.137 C 
ATOM     31  C   UNL     1      -7.844  14.993  69.578  0.00  0.00    +0.075 C 
ENDROOT
BRANCH   4  32
ATOM     32  C   UNL     1      -9.393  11.093  65.716  0.00  0.00    +0.027 C 
ATOM     33  C   UNL     1     -10.167   9.844  65.298  0.00  0.00    +0.002 C 
ATOM     34  C   UNL     1      -8.009  10.910  65.257  0.00  0.00    +0.002 C 
ATOM     35  C   UNL     1     -10.141  12.263  65.227  0.00  0.00    +0.002 C 
ENDBRANCH   4  32
BRANCH   1  37
ATOM     36  N   UNL     1      -8.237  16.951  67.554  0.00  0.00    -0.198 NA
ATOM     37  C   UNL     1      -8.339  15.571  67.341  0.00  0.00    +0.260 C 
ATOM     38  O   UNL     1      -8.869  15.297  66.220  0.00  0.00    -0.272 OA
BRANCH  36  40
ATOM     39  C   UNL     1     -10.226  18.252  66.516  0.00  0.00    +0.051 C 
ATOM     40  C   UNL     1      -8.618  18.088  66.818  0.00  0.00    +0.156 C 
ATOM     41  C   UNL     1      -9.600  18.834  67.932  0.00  0.00    +0.036 C 
BRANCH  40  42
ATOM     42  C   UNL     1      -7.707  19.023  66.196  0.00  0.00    +0.291 C 
ATOM     43  N   UNL     1      -7.089  19.978  66.832  0.00  0.00    -0.092 NA
ATOM     44  O   UNL     1      -7.006  18.584  65.064  0.00  0.00    -0.267 OA
BRANCH  43  45
ATOM     45  S   UNL     1      -5.563  20.605  66.423  0.00  0.00    +0.082 S 
ATOM     46  O   UNL     1      -5.435  21.976  67.052  0.00  0.00    -0.151 OA
ATOM     47  O   UNL     1      -5.334  20.777  64.963  0.00  0.00    -0.151 OA
BRANCH  45  48
ATOM     48  C   UNL     1      -4.213  19.662  67.122  0.00  0.00    +0.153 C 
ATOM     49  C   UNL     1      -4.155  19.788  68.653  0.00  0.00    +0.028 C 
ATOM     50  C   UNL     1      -4.650  18.531  68.029  0.00  0.00    +0.028 C 
ENDBRANCH  45  48
ENDBRANCH  43  45
ENDBRANCH  40  42
BRANCH  39  52
ATOM     51  C   UNL     1     -10.925  20.176  65.607  0.00  0.00    -0.005 C 
ATOM     52  C   UNL     1     -10.175  19.714  65.766  0.00  0.00    -0.024 C 
ENDBRANCH  39  52
ENDBRANCH  36  40
ENDBRANCH   1  37
BRANCH  24  53
ATOM     53  O   UNL     1      -2.223  12.563  75.378  0.00  0.00    -0.471 OA
ATOM     54  C   UNL     1      -2.837  11.330  75.677  0.00  0.00    +0.252 C 
ENDBRANCH  24  53
TORSDOF 8
ENDMDL
MODEL 7
REMARK VINA RESULT:      -6.3      4.713      9.809
REMARK  Name = 
REMARK  8 active torsions:
REMARK  status: ('A' for Active; 'I' for Inactive)
REMARK    1  A    between atoms: C_2  and  C_3
REMARK    2  A    between atoms: C_5  and  N_6
REMARK    3  A    between atoms: C_5  and  C_46
REMARK    4  A    between atoms: C_7  and  C_9
REMARK    5  A    between atoms: C_16  and  C_17
REMARK    6  A    between atoms: C_38  and  O_39
REMARK    7  A    between atoms: N_48  and  S_49
REMARK    8  A    between atoms: S_49  and  C_52
REMARK                            x       y       z     vdW  Elec       q    Type
REMARK                         _______ _______ _______ _____ _____    ______ ____
ROOT
ATOM      1  C   UNL     1      -5.904  11.489  68.612  0.00  0.00    +0.157 C 
ATOM      2  N   UNL     1      -7.425  11.444  68.217  0.00  0.00    -0.268 N 
ATOM      3  C   UNL     1      -8.100  10.193  68.009  0.00  0.00    +0.246 C 
ATOM      4  C   UNL     1      -9.602  10.439  67.484  0.00  0.00    +0.174 C 
ATOM      5  N   UNL     1      -9.676   9.120  66.622  0.00  0.00    -0.161 NA
ATOM      6  C   UNL     1      -9.419   9.374  65.250  0.00  0.00    +0.421 C 
ATOM      7  O   UNL     1     -10.310  10.252  64.663  0.00  0.00    -0.437 OA
ATOM      8  C   UNL     1     -10.471  11.586  65.437  0.00  0.00    +0.171 C 
ATOM      9  C   UNL     1     -10.196  12.495  64.012  0.00  0.00    +0.044 C 
ATOM     10  C   UNL     1     -10.222  13.961  64.735  0.00  0.00    +0.004 C 
ATOM     11  C   UNL     1     -10.857  13.894  66.054  0.00  0.00    +0.000 C 
ATOM     12  C   UNL     1     -10.440  15.042  66.887  0.00  0.00    +0.000 C 
ATOM     13  C   UNL     1     -10.599  14.876  68.367  0.00  0.00    +0.006 C 
ATOM     14  C   UNL     1      -9.272  15.055  69.115  0.00  0.00    +0.051 C 
ATOM     15  C   UNL     1      -8.501  15.984  68.264  0.00  0.00    +0.112 A 
ATOM     16  C   UNL     1      -7.640  15.380  67.357  0.00  0.00    +0.239 A 
ATOM     17  O   UNL     1      -7.555  13.988  67.481  0.00  0.00    -0.461 OA
ATOM     18  C   UNL     1      -7.154  13.703  68.955  0.00  0.00    +0.189 C 
ATOM     19  N   UNL     1      -7.066  16.148  66.445  0.00  0.00    -0.209 NA
ATOM     20  C   UNL     1      -7.118  17.499  66.597  0.00  0.00    +0.105 A 
ATOM     21  C   UNL     1      -7.533  17.975  67.837  0.00  0.00    +0.099 A 
ATOM     22  C   UNL     1      -7.156  19.245  68.245  0.00  0.00    +0.024 A 
ATOM     23  C   UNL     1      -6.609  20.078  67.278  0.00  0.00    +0.039 A 
ATOM     24  C   UNL     1      -6.617  19.743  65.928  0.00  0.00    +0.140 A 
ATOM     25  C   UNL     1      -6.618  18.377  65.663  0.00  0.00    +0.058 A 
ATOM     26  N   UNL     1      -8.601  17.333  68.375  0.00  0.00    -0.243 NA
ATOM     27  C   UNL     1     -11.796  12.066  64.456  0.00  0.00    +0.047 C 
ATOM     28  O   UNL     1      -8.731   8.577  64.573  0.00  0.00    -0.225 OA
ATOM     29  O   UNL     1      -7.445   9.241  67.578  0.00  0.00    -0.273 OA
ATOM     30  C   UNL     1      -7.966  12.296  69.100  0.00  0.00    +0.137 C 
ATOM     31  C   UNL     1      -5.752  13.090  68.417  0.00  0.00    +0.075 C 
ENDROOT
BRANCH   4  32
ATOM     32  C   UNL     1     -10.307   9.675  68.752  0.00  0.00    +0.027 C 
ATOM     33  C   UNL     1     -11.504  10.549  69.124  0.00  0.00    +0.002 C 
ATOM     34  C   UNL     1      -9.391   9.696  69.902  0.00  0.00    +0.002 C 
ATOM     35  C   UNL     1     -10.829   8.375  68.301  0.00  0.00    +0.002 C 
ENDBRANCH   4  32
BRANCH   1  37
ATOM     36  N   UNL     1      -5.139  12.515  70.732  0.00  0.00    -0.198 NA
ATOM     37  C   UNL     1      -6.075  11.605  70.226  0.00  0.00    +0.260 C 
ATOM     38  O   UNL     1      -6.011  10.478  70.807  0.00  0.00    -0.272 OA
BRANCH  36  40
ATOM     39  C   UNL     1      -2.885  13.501  71.552  0.00  0.00    +0.051 C 
ATOM     40  C   UNL     1      -4.134  12.443  71.714  0.00  0.00    +0.156 C 
ATOM     41  C   UNL     1      -4.253  13.971  72.356  0.00  0.00    +0.036 C 
BRANCH  40  42
ATOM     42  C   UNL     1      -4.046  11.434  72.745  0.00  0.00    +0.291 C 
ATOM     43  N   UNL     1      -4.935  11.265  73.683  0.00  0.00    -0.092 NA
ATOM     44  O   UNL     1      -3.351  10.256  72.437  0.00  0.00    -0.267 OA
BRANCH  43  45
ATOM     45  S   UNL     1      -5.308   9.782  74.428  0.00  0.00    +0.082 S 
ATOM     46  O   UNL     1      -6.476  10.008  75.364  0.00  0.00    -0.151 OA
ATOM     47  O   UNL     1      -4.207   9.203  75.244  0.00  0.00    -0.151 OA
BRANCH  45  48
ATOM     48  C   UNL     1      -5.891   8.549  73.270  0.00  0.00    +0.153 C 
ATOM     49  C   UNL     1      -6.243   7.225  73.969  0.00  0.00    +0.028 C 
ATOM     50  C   UNL     1      -7.328   8.124  73.488  0.00  0.00    +0.028 C 
ENDBRANCH  45  48
ENDBRANCH  43  45
ENDBRANCH  40  42
BRANCH  39  52
ATOM     51  C   UNL     1      -1.938  13.733  73.568  0.00  0.00    -0.005 C 
ATOM     52  C   UNL     1      -2.076  13.119  72.931  0.00  0.00    -0.024 C 
ENDBRANCH  39  52
ENDBRANCH  36  40
ENDBRANCH   1  37
BRANCH  24  53
ATOM     53  O   UNL     1      -6.953  20.684  64.949  0.00  0.00    -0.471 OA
ATOM     54  C   UNL     1      -6.129  20.754  63.808  0.00  0.00    +0.252 C 
ENDBRANCH  24  53
TORSDOF 8
ENDMDL
MODEL 8
REMARK VINA RESULT:      -6.3      4.809      9.967
REMARK  Name = 
REMARK  8 active torsions:
REMARK  status: ('A' for Active; 'I' for Inactive)
REMARK    1  A    between atoms: C_2  and  C_3
REMARK    2  A    between atoms: C_5  and  N_6
REMARK    3  A    between atoms: C_5  and  C_46
REMARK    4  A    between atoms: C_7  and  C_9
REMARK    5  A    between atoms: C_16  and  C_17
REMARK    6  A    between atoms: C_38  and  O_39
REMARK    7  A    between atoms: N_48  and  S_49
REMARK    8  A    between atoms: S_49  and  C_52
REMARK                            x       y       z     vdW  Elec       q    Type
REMARK                         _______ _______ _______ _____ _____    ______ ____
ROOT
ATOM      1  C   UNL     1      -5.966  11.482  68.445  0.00  0.00    +0.157 C 
ATOM      2  N   UNL     1      -7.502  11.525  68.117  0.00  0.00    -0.268 N 
ATOM      3  C   UNL     1      -8.248  10.318  67.896  0.00  0.00    +0.246 C 
ATOM      4  C   UNL     1      -9.757  10.656  67.448  0.00  0.00    +0.174 C 
ATOM      5  N   UNL     1      -9.934   9.376  66.543  0.00  0.00    -0.161 NA
ATOM      6  C   UNL     1      -9.725   9.669  65.172  0.00  0.00    +0.421 C 
ATOM      7  O   UNL     1     -10.595  10.611  64.657  0.00  0.00    -0.437 OA
ATOM      8  C   UNL     1     -10.656  11.920  65.486  0.00  0.00    +0.171 C 
ATOM      9  C   UNL     1     -10.398  12.869  64.083  0.00  0.00    +0.044 C 
ATOM     10  C   UNL     1     -10.319  14.306  64.859  0.00  0.00    +0.004 C 
ATOM     11  C   UNL     1     -10.899  14.219  66.201  0.00  0.00    +0.000 C 
ATOM     12  C   UNL     1     -10.389  15.314  67.056  0.00  0.00    +0.000 C 
ATOM     13  C   UNL     1     -10.492  15.099  68.535  0.00  0.00    +0.006 C 
ATOM     14  C   UNL     1      -9.126  15.185  69.228  0.00  0.00    +0.051 C 
ATOM     15  C   UNL     1      -8.348  16.108  68.376  0.00  0.00    +0.112 A 
ATOM     16  C   UNL     1      -7.557  15.497  67.411  0.00  0.00    +0.239 A 
ATOM     17  O   UNL     1      -7.537  14.099  67.481  0.00  0.00    -0.461 OA
ATOM     18  C   UNL     1      -7.087  13.739  68.924  0.00  0.00    +0.189 C 
ATOM     19  N   UNL     1      -6.986  16.272  66.502  0.00  0.00    -0.209 NA
ATOM     20  C   UNL     1      -6.963  17.617  66.704  0.00  0.00    +0.105 A 
ATOM     21  C   UNL     1      -7.300  18.064  67.978  0.00  0.00    +0.099 A 
ATOM     22  C   UNL     1      -6.843  19.298  68.414  0.00  0.00    +0.024 A 
ATOM     23  C   UNL     1      -6.297  20.140  67.454  0.00  0.00    +0.039 A 
ATOM     24  C   UNL     1      -6.381  19.858  66.094  0.00  0.00    +0.140 A 
ATOM     25  C   UNL     1      -6.462  18.504  65.781  0.00  0.00    +0.058 A 
ATOM     26  N   UNL     1      -8.375  17.455  68.541  0.00  0.00    -0.243 NA
ATOM     27  C   UNL     1     -11.996  12.501  64.583  0.00  0.00    +0.047 C 
ATOM     28  O   UNL     1      -9.107   8.867  64.436  0.00  0.00    -0.225 OA
ATOM     29  O   UNL     1      -7.661   9.352  67.401  0.00  0.00    -0.273 OA
ATOM     30  C   UNL     1      -7.961  12.369  69.055  0.00  0.00    +0.137 C 
ATOM     31  C   UNL     1      -5.742  13.081  68.301  0.00  0.00    +0.075 C 
ENDROOT
BRANCH   4  32
ATOM     32  C   UNL     1     -10.444   9.879  68.719  0.00  0.00    +0.027 C 
ATOM     33  C   UNL     1     -11.670  10.716  69.077  0.00  0.00    +0.002 C 
ATOM     34  C   UNL     1      -9.535   9.939  69.873  0.00  0.00    +0.002 C 
ATOM     35  C   UNL     1     -10.921   8.559  68.275  0.00  0.00    +0.002 C 
ENDBRANCH   4  32
BRANCH   1  37
ATOM     36  N   UNL     1      -4.773  11.648  70.609  0.00  0.00    -0.198 NA
ATOM     37  C   UNL     1      -6.061  11.544  70.068  0.00  0.00    +0.260 C 
ATOM     38  O   UNL     1      -6.709  10.569  70.558  0.00  0.00    -0.272 OA
BRANCH  36  40
ATOM     39  C   UNL     1      -2.872   9.914  70.933  0.00  0.00    +0.051 C 
ATOM     40  C   UNL     1      -4.040  10.897  71.546  0.00  0.00    +0.156 C 
ATOM     41  C   UNL     1      -2.516  11.496  71.261  0.00  0.00    +0.036 C 
BRANCH  40  42
ATOM     42  C   UNL     1      -4.329  10.816  72.960  0.00  0.00    +0.291 C 
ATOM     43  N   UNL     1      -4.170  11.802  73.798  0.00  0.00    -0.092 NA
ATOM     44  O   UNL     1      -5.323   9.915  73.365  0.00  0.00    -0.267 OA
BRANCH  43  45
ATOM     45  S   UNL     1      -5.095  12.057  75.202  0.00  0.00    +0.082 S 
ATOM     46  O   UNL     1      -5.895  10.801  75.471  0.00  0.00    -0.151 OA
ATOM     47  O   UNL     1      -6.071  13.177  75.106  0.00  0.00    -0.151 OA
BRANCH  45  48
ATOM     48  C   UNL     1      -4.092  12.276  76.666  0.00  0.00    +0.153 C 
ATOM     49  C   UNL     1      -2.812  11.425  76.619  0.00  0.00    +0.028 C 
ATOM     50  C   UNL     1      -2.735  12.895  76.402  0.00  0.00    +0.028 C 
ENDBRANCH  45  48
ENDBRANCH  43  45
ENDBRANCH  40  42
BRANCH  39  52
ATOM     51  C   UNL     1      -1.938   8.534  72.429  0.00  0.00    -0.005 C 
ATOM     52  C   UNL     1      -2.257   9.367  72.356  0.00  0.00    -0.024 C 
ENDBRANCH  39  52
ENDBRANCH  36  40
ENDBRANCH   1  37
BRANCH  24  53
ATOM     53  O   UNL     1      -6.712  20.851  65.166  0.00  0.00    -0.471 OA
ATOM     54  C   UNL     1      -6.142  20.751  63.881  0.00  0.00    +0.252 C 
ENDBRANCH  24  53
TORSDOF 8
ENDMDL
MODEL 9
REMARK VINA RESULT:      -6.3      3.909      9.903
REMARK  Name = 
REMARK  8 active torsions:
REMARK  status: ('A' for Active; 'I' for Inactive)
REMARK    1  A    between atoms: C_2  and  C_3
REMARK    2  A    between atoms: C_5  and  N_6
REMARK    3  A    between atoms: C_5  and  C_46
REMARK    4  A    between atoms: C_7  and  C_9
REMARK    5  A    between atoms: C_16  and  C_17
REMARK    6  A    between atoms: C_38  and  O_39
REMARK    7  A    between atoms: N_48  and  S_49
REMARK    8  A    between atoms: S_49  and  C_52
REMARK                            x       y       z     vdW  Elec       q    Type
REMARK                         _______ _______ _______ _____ _____    ______ ____
ROOT
ATOM      1  C   UNL     1      -8.062   8.613  71.395  0.00  0.00    +0.157 C 
ATOM      2  N   UNL     1      -6.847   9.504  70.948  0.00  0.00    -0.268 N 
ATOM      3  C   UNL     1      -5.682   9.640  71.776  0.00  0.00    +0.246 C 
ATOM      4  C   UNL     1      -4.658  10.711  71.147  0.00  0.00    +0.174 C 
ATOM      5  N   UNL     1      -4.089  11.206  72.532  0.00  0.00    -0.161 NA
ATOM      6  C   UNL     1      -4.705  12.412  72.952  0.00  0.00    +0.421 C 
ATOM      7  O   UNL     1      -4.529  13.469  72.079  0.00  0.00    -0.437 OA
ATOM      8  C   UNL     1      -4.926  13.141  70.617  0.00  0.00    +0.171 C 
ATOM      9  C   UNL     1      -5.904  14.544  70.524  0.00  0.00    +0.044 C 
ATOM     10  C   UNL     1      -6.494  14.245  69.028  0.00  0.00    +0.004 C 
ATOM     11  C   UNL     1      -5.668  13.266  68.317  0.00  0.00    +0.000 C 
ATOM     12  C   UNL     1      -6.442  12.634  67.226  0.00  0.00    +0.000 C 
ATOM     13  C   UNL     1      -5.930  11.315  66.734  0.00  0.00    +0.006 C 
ATOM     14  C   UNL     1      -6.983  10.205  66.855  0.00  0.00    +0.051 C 
ATOM     15  C   UNL     1      -8.272  10.917  66.734  0.00  0.00    +0.112 A 
ATOM     16  C   UNL     1      -8.860  11.284  67.938  0.00  0.00    +0.239 A 
ATOM     17  O   UNL     1      -8.191  10.814  69.074  0.00  0.00    -0.461 OA
ATOM     18  C   UNL     1      -8.088   9.272  68.915  0.00  0.00    +0.189 C 
ATOM     19  N   UNL     1      -9.914  12.083  67.891  0.00  0.00    -0.209 NA
ATOM     20  C   UNL     1     -10.535  12.283  66.696  0.00  0.00    +0.105 A 
ATOM     21  C   UNL     1     -10.187  11.424  65.659  0.00  0.00    +0.099 A 
ATOM     22  C   UNL     1     -11.074  11.219  64.612  0.00  0.00    +0.024 A 
ATOM     23  C   UNL     1     -12.150  12.092  64.522  0.00  0.00    +0.039 A 
ATOM     24  C   UNL     1     -12.238  13.235  65.309  0.00  0.00    +0.140 A 
ATOM     25  C   UNL     1     -11.587  13.154  66.536  0.00  0.00    +0.058 A 
ATOM     26  N   UNL     1      -8.859  11.169  65.537  0.00  0.00    -0.243 NA
ATOM     27  C   UNL     1      -4.261  14.616  70.041  0.00  0.00    +0.047 C 
ATOM     28  O   UNL     1      -5.004  12.590  74.155  0.00  0.00    -0.225 OA
ATOM     29  O   UNL     1      -5.825   9.570  73.000  0.00  0.00    -0.273 OA
ATOM     30  C   UNL     1      -6.659   9.101  69.682  0.00  0.00    +0.137 C 
ATOM     31  C   UNL     1      -9.051   9.111  70.211  0.00  0.00    +0.075 C 
ENDROOT
BRANCH   4  32
ATOM     32  C   UNL     1      -3.427   9.638  70.999  0.00  0.00    +0.027 C 
ATOM     33  C   UNL     1      -2.221  10.332  71.629  0.00  0.00    +0.002 C 
ATOM     34  C   UNL     1      -3.114   9.450  69.576  0.00  0.00    +0.002 C 
ATOM     35  C   UNL     1      -3.727   8.447  71.811  0.00  0.00    +0.002 C 
ENDBRANCH   4  32
BRANCH   1  37
ATOM     36  N   UNL     1      -8.809   6.477  70.390  0.00  0.00    -0.198 NA
ATOM     37  C   UNL     1      -7.659   7.244  70.613  0.00  0.00    +0.260 C 
ATOM     38  O   UNL     1      -6.754   6.586  71.213  0.00  0.00    -0.272 OA
BRANCH  36  40
ATOM     39  C   UNL     1      -9.646   4.892  72.265  0.00  0.00    +0.051 C 
ATOM     40  C   UNL     1      -9.186   5.159  70.708  0.00  0.00    +0.156 C 
ATOM     41  C   UNL     1     -10.764   5.416  71.163  0.00  0.00    +0.036 C 
BRANCH  40  42
ATOM     42  C   UNL     1      -9.061   4.019  69.827  0.00  0.00    +0.291 C 
ATOM     43  N   UNL     1      -9.528   3.979  68.611  0.00  0.00    -0.092 NA
ATOM     44  O   UNL     1      -7.954   3.179  70.012  0.00  0.00    -0.267 OA
BRANCH  43  45
ATOM     45  S   UNL     1      -8.856   3.084  67.330  0.00  0.00    +0.082 S 
ATOM     46  O   UNL     1      -9.281   1.641  67.493  0.00  0.00    -0.151 OA
ATOM     47  O   UNL     1      -7.369   3.093  67.280  0.00  0.00    -0.151 OA
BRANCH  45  48
ATOM     48  C   UNL     1      -9.500   3.566  65.732  0.00  0.00    +0.153 C 
ATOM     49  C   UNL     1      -9.250   5.054  65.436  0.00  0.00    +0.028 C 
ATOM     50  C   UNL     1      -8.442   4.013  64.745  0.00  0.00    +0.028 C 
ENDBRANCH  45  48
ENDBRANCH  43  45
ENDBRANCH  40  42
BRANCH  39  52
ATOM     51  C   UNL     1     -10.388   2.852  72.814  0.00  0.00    -0.005 C 
ATOM     52  C   UNL     1     -10.077   3.313  72.113  0.00  0.00    -0.024 C 
ENDBRANCH  39  52
ENDBRANCH  36  40
ENDBRANCH   1  37
BRANCH  24  53
ATOM     53  O   UNL     1     -12.634  14.462  64.765  0.00  0.00    -0.471 OA
ATOM     54  C   UNL     1     -11.630  15.426  64.542  0.00  0.00    +0.252 C 
ENDBRANCH  24  53
TORSDOF 8
ENDMDL
