MODEL 1
REMARK VINA RESULT:      -7.0      0.000      0.000
REMARK  Name = 
REMARK  1 active torsions:
REMARK  status: ('A' for Active; 'I' for Inactive)
REMARK    1  A    between atoms: C_2  and  C_3
REMARK                            x       y       z     vdW  Elec       q    Type
REMARK                         _______ _______ _______ _____ _____    ______ ____
ROOT
ATOM      1  O   UNL     1     -10.556  18.600  66.762  0.00  0.00    -0.275 OA
ATOM      2  C   UNL     1     -10.035  17.811  67.182  0.00  0.00    +0.226 C 
ATOM      3  N   UNL     1     -10.526  16.495  67.029  0.00  0.00    -0.269 N 
ATOM      4  C   UNL     1     -10.647  15.773  65.791  0.00  0.00    +0.118 C 
ATOM      5  C   UNL     1      -9.756  14.380  66.042  0.00  0.00    +0.117 C 
ATOM      6  N   UNL     1     -10.832  13.743  67.042  0.00  0.00    -0.274 N 
ATOM      7  C   UNL     1     -10.403  12.382  67.369  0.00  0.00    +0.098 C 
ATOM      8  C   UNL     1      -9.513  11.783  66.304  0.00  0.00    +0.048 C 
ATOM      9  C   UNL     1     -10.073  12.242  64.988  0.00  0.00    -0.023 A 
ATOM     10  C   UNL     1     -10.750  11.353  64.158  0.00  0.00    -0.004 A 
ATOM     11  C   UNL     1     -11.865  11.727  63.441  0.00  0.00    -0.000 A 
ATOM     12  C   UNL     1     -12.355  13.019  63.585  0.00  0.00    -0.000 A 
ATOM     13  C   UNL     1     -11.725  13.851  64.503  0.00  0.00    -0.003 A 
ATOM     14  C   UNL     1     -11.118  14.554  68.166  0.00  0.00    +0.246 C 
ATOM     15  O   UNL     1     -11.531  14.002  69.229  0.00  0.00    -0.273 OA
ATOM     16  C   UNL     1     -10.413  13.580  64.771  0.00  0.00    -0.007 A 
ATOM     17  C   UNL     1     -11.408  16.013  68.089  0.00  0.00    +0.179 C 
ENDROOT
BRANCH   2  18
ATOM     18  C   UNL     1      -9.290  18.099  68.449  0.00  0.00    +0.077 C 
ATOM     19  C   UNL     1      -8.080  17.197  68.595  0.00  0.00    +0.009 C 
ATOM     20  C   UNL     1      -7.187  17.483  67.395  0.00  0.00    +0.000 C 
ATOM     21  C   UNL     1      -6.741  18.916  67.472  0.00  0.00    +0.000 C 
ATOM     22  C   UNL     1      -7.888  19.880  67.423  0.00  0.00    +0.000 C 
ATOM     23  C   UNL     1      -8.911  19.564  68.499  0.00  0.00    +0.009 C 
ENDBRANCH   2  18
TORSDOF 1
ENDMDL
MODEL 2
REMARK VINA RESULT:      -7.0      1.517      6.495
REMARK  Name = 
REMARK  1 active torsions:
REMARK  status: ('A' for Active; 'I' for Inactive)
REMARK    1  A    between atoms: C_2  and  C_3
REMARK                            x       y       z     vdW  Elec       q    Type
REMARK                         _______ _______ _______ _____ _____    ______ ____
ROOT
ATOM      1  O   UNL     1      -9.428  12.797  66.469  0.00  0.00    -0.275 OA
ATOM      2  C   UNL     1     -10.128  13.557  66.415  0.00  0.00    +0.226 C 
ATOM      3  N   UNL     1      -9.851  14.801  67.024  0.00  0.00    -0.269 N 
ATOM      4  C   UNL     1      -8.811  15.719  66.645  0.00  0.00    +0.118 C 
ATOM      5  C   UNL     1      -9.621  17.146  66.323  0.00  0.00    +0.117 C 
ATOM      6  N   UNL     1      -9.939  17.438  67.865  0.00  0.00    -0.274 N 
ATOM      7  C   UNL     1     -10.562  18.760  67.961  0.00  0.00    +0.098 C 
ATOM      8  C   UNL     1     -10.197  19.658  66.801  0.00  0.00    +0.048 C 
ATOM      9  C   UNL     1      -8.752  19.382  66.500  0.00  0.00    -0.023 A 
ATOM     10  C   UNL     1      -7.770  20.312  66.828  0.00  0.00    -0.004 A 
ATOM     11  C   UNL     1      -6.538  19.934  67.313  0.00  0.00    -0.000 A 
ATOM     12  C   UNL     1      -6.283  18.584  67.524  0.00  0.00    -0.000 A 
ATOM     13  C   UNL     1      -7.319  17.686  67.292  0.00  0.00    -0.003 A 
ATOM     14  C   UNL     1     -10.658  16.402  68.506  0.00  0.00    +0.246 C 
ATOM     15  O   UNL     1     -11.378  16.688  69.509  0.00  0.00    -0.273 OA
ATOM     16  C   UNL     1      -8.271  18.074  66.391  0.00  0.00    -0.007 A 
ATOM     17  C   UNL     1     -10.311  14.958  68.401  0.00  0.00    +0.179 C 
ENDROOT
BRANCH   2  18
ATOM     18  C   UNL     1     -11.566  13.140  66.380  0.00  0.00    +0.077 C 
ATOM     19  C   UNL     1     -12.423  14.170  65.669  0.00  0.00    +0.009 C 
ATOM     20  C   UNL     1     -11.880  14.271  64.250  0.00  0.00    +0.000 C 
ATOM     21  C   UNL     1     -12.062  12.938  63.581  0.00  0.00    +0.000 C 
ATOM     22  C   UNL     1     -11.316  11.838  64.274  0.00  0.00    +0.000 C 
ATOM     23  C   UNL     1     -11.687  11.771  65.745  0.00  0.00    +0.009 C 
ENDBRANCH   2  18
TORSDOF 1
ENDMDL
MODEL 3
REMARK VINA RESULT:      -7.0      2.638      4.793
REMARK  Name = 
REMARK  1 active torsions:
REMARK  status: ('A' for Active; 'I' for Inactive)
REMARK    1  A    between atoms: C_2  and  C_3
REMARK                            x       y       z     vdW  Elec       q    Type
REMARK                         _______ _______ _______ _____ _____    ______ ____
ROOT
ATOM      1  O   UNL     1     -11.959  13.443  70.922  0.00  0.00    -0.275 OA
ATOM      2  C   UNL     1     -12.293  14.076  70.175  0.00  0.00    +0.226 C 
ATOM      3  N   UNL     1     -11.680  14.032  68.903  0.00  0.00    -0.269 N 
ATOM      4  C   UNL     1     -11.702  12.923  67.988  0.00  0.00    +0.118 C 
ATOM      5  C   UNL     1     -12.353  13.563  66.586  0.00  0.00    +0.117 C 
ATOM      6  N   UNL     1     -11.040  14.410  66.235  0.00  0.00    -0.274 N 
ATOM      7  C   UNL     1     -11.231  15.024  64.919  0.00  0.00    +0.098 C 
ATOM      8  C   UNL     1     -12.223  14.267  64.064  0.00  0.00    +0.048 C 
ATOM      9  C   UNL     1     -11.976  12.810  64.333  0.00  0.00    -0.023 A 
ATOM     10  C   UNL     1     -11.361  12.008  63.376  0.00  0.00    -0.004 A 
ATOM     11  C   UNL     1     -10.452  11.031  63.717  0.00  0.00    -0.000 A 
ATOM     12  C   UNL     1     -10.106  10.870  65.054  0.00  0.00    -0.000 A 
ATOM     13  C   UNL     1     -10.653  11.756  65.975  0.00  0.00    -0.003 A 
ATOM     14  C   UNL     1     -10.654  15.312  67.253  0.00  0.00    +0.246 C 
ATOM     15  O   UNL     1      -9.987  16.342  66.937  0.00  0.00    -0.273 OA
ATOM     16  C   UNL     1     -11.850  12.324  65.638  0.00  0.00    -0.007 A 
ATOM     17  C   UNL     1     -10.565  14.953  68.696  0.00  0.00    +0.179 C 
ENDROOT
BRANCH   2  18
ATOM     18  C   UNL     1     -12.819  15.408  70.613  0.00  0.00    +0.077 C 
ATOM     19  C   UNL     1     -14.184  15.276  71.261  0.00  0.00    +0.009 C 
ATOM     20  C   UNL     1     -13.995  14.372  72.472  0.00  0.00    +0.000 C 
ATOM     21  C   UNL     1     -13.063  15.057  73.430  0.00  0.00    +0.000 C 
ATOM     22  C   UNL     1     -11.709  15.308  72.837  0.00  0.00    +0.000 C 
ATOM     23  C   UNL     1     -11.820  16.076  71.533  0.00  0.00    +0.009 C 
ENDBRANCH   2  18
TORSDOF 1
ENDMDL
MODEL 4
REMARK VINA RESULT:      -6.9      1.364      1.790
REMARK  Name = 
REMARK  1 active torsions:
REMARK  status: ('A' for Active; 'I' for Inactive)
REMARK    1  A    between atoms: C_2  and  C_3
REMARK                            x       y       z     vdW  Elec       q    Type
REMARK                         _______ _______ _______ _____ _____    ______ ____
ROOT
ATOM      1  O   UNL     1      -8.779  19.441  65.808  0.00  0.00    -0.275 OA
ATOM      2  C   UNL     1      -8.590  18.761  66.565  0.00  0.00    +0.226 C 
ATOM      3  N   UNL     1      -9.479  17.682  66.767  0.00  0.00    -0.269 N 
ATOM      4  C   UNL     1      -9.730  16.605  65.847  0.00  0.00    +0.118 C 
ATOM      5  C   UNL     1      -9.381  15.226  66.727  0.00  0.00    +0.117 C 
ATOM      6  N   UNL     1     -10.689  15.350  67.643  0.00  0.00    -0.274 N 
ATOM      7  C   UNL     1     -10.769  14.156  68.488  0.00  0.00    +0.098 C 
ATOM      8  C   UNL     1     -10.044  12.972  67.890  0.00  0.00    +0.048 C 
ATOM      9  C   UNL     1     -10.306  13.029  66.412  0.00  0.00    -0.023 A 
ATOM     10  C   UNL     1     -11.169  12.117  65.810  0.00  0.00    -0.004 A 
ATOM     11  C   UNL     1     -12.030  12.483  64.800  0.00  0.00    -0.000 A 
ATOM     12  C   UNL     1     -12.069  13.812  64.399  0.00  0.00    -0.000 A 
ATOM     13  C   UNL     1     -11.277  14.721  65.090  0.00  0.00    -0.003 A 
ATOM     14  C   UNL     1     -10.780  16.574  68.346  0.00  0.00    +0.246 C 
ATOM     15  O   UNL     1     -11.442  16.611  69.426  0.00  0.00    -0.273 OA
ATOM     16  C   UNL     1     -10.158  14.219  65.694  0.00  0.00    -0.007 A 
ATOM     17  C   UNL     1     -10.557  17.910  67.726  0.00  0.00    +0.179 C 
ENDROOT
BRANCH   2  18
ATOM     18  C   UNL     1      -7.902  19.292  67.784  0.00  0.00    +0.077 C 
ATOM     19  C   UNL     1      -7.027  18.234  68.430  0.00  0.00    +0.009 C 
ATOM     20  C   UNL     1      -5.993  17.839  67.383  0.00  0.00    +0.000 C 
ATOM     21  C   UNL     1      -5.153  19.046  67.074  0.00  0.00    +0.000 C 
ATOM     22  C   UNL     1      -5.957  20.178  66.510  0.00  0.00    +0.000 C 
ATOM     23  C   UNL     1      -7.113  20.534  67.427  0.00  0.00    +0.009 C 
ENDBRANCH   2  18
TORSDOF 1
ENDMDL
MODEL 5
REMARK VINA RESULT:      -6.5      1.411      6.665
REMARK  Name = 
REMARK  1 active torsions:
REMARK  status: ('A' for Active; 'I' for Inactive)
REMARK    1  A    between atoms: C_2  and  C_3
REMARK                            x       y       z     vdW  Elec       q    Type
REMARK                         _______ _______ _______ _____ _____    ______ ____
ROOT
ATOM      1  O   UNL     1     -10.369  13.995  68.611  0.00  0.00    -0.275 OA
ATOM      2  C   UNL     1     -10.404  14.627  67.793  0.00  0.00    +0.226 C 
ATOM      3  N   UNL     1      -9.845  15.921  67.890  0.00  0.00    -0.269 N 
ATOM      4  C   UNL     1      -8.455  16.232  68.084  0.00  0.00    +0.118 C 
ATOM      5  C   UNL     1      -8.069  17.211  66.784  0.00  0.00    +0.117 C 
ATOM      6  N   UNL     1      -8.894  18.464  67.345  0.00  0.00    -0.274 N 
ATOM      7  C   UNL     1      -8.646  19.606  66.463  0.00  0.00    +0.098 C 
ATOM      8  C   UNL     1      -7.334  19.491  65.719  0.00  0.00    +0.048 C 
ATOM      9  C   UNL     1      -6.356  18.897  66.693  0.00  0.00    -0.023 A 
ATOM     10  C   UNL     1      -5.350  19.679  67.252  0.00  0.00    -0.004 A 
ATOM     11  C   UNL     1      -4.963  19.542  68.566  0.00  0.00    -0.000 A 
ATOM     12  C   UNL     1      -5.627  18.624  69.370  0.00  0.00    -0.000 A 
ATOM     13  C   UNL     1      -6.699  17.934  68.816  0.00  0.00    -0.003 A 
ATOM     14  C   UNL     1     -10.261  18.189  67.580  0.00  0.00    +0.246 C 
ATOM     15  O   UNL     1     -11.093  19.144  67.538  0.00  0.00    -0.273 OA
ATOM     16  C   UNL     1      -6.686  17.776  67.459  0.00  0.00    -0.007 A 
ATOM     17  C   UNL     1     -10.757  16.985  68.303  0.00  0.00    +0.179 C 
ENDROOT
BRANCH   2  18
ATOM     18  C   UNL     1     -11.587  14.481  66.885  0.00  0.00    +0.077 C 
ATOM     19  C   UNL     1     -11.271  14.970  65.484  0.00  0.00    +0.009 C 
ATOM     20  C   UNL     1     -10.123  14.106  64.980  0.00  0.00    +0.000 C 
ATOM     21  C   UNL     1     -10.602  12.684  64.905  0.00  0.00    +0.000 C 
ATOM     22  C   UNL     1     -11.020  12.146  66.240  0.00  0.00    +0.000 C 
ATOM     23  C   UNL     1     -12.059  13.043  66.887  0.00  0.00    +0.009 C 
ENDBRANCH   2  18
TORSDOF 1
ENDMDL
MODEL 6
REMARK VINA RESULT:      -6.5      2.070      3.678
REMARK  Name = 
REMARK  1 active torsions:
REMARK  status: ('A' for Active; 'I' for Inactive)
REMARK    1  A    between atoms: C_2  and  C_3
REMARK                            x       y       z     vdW  Elec       q    Type
REMARK                         _______ _______ _______ _____ _____    ______ ____
ROOT
ATOM      1  O   UNL     1      -6.506  19.529  65.330  0.00  0.00    -0.275 OA
ATOM      2  C   UNL     1      -6.905  19.391  66.274  0.00  0.00    +0.226 C 
ATOM      3  N   UNL     1      -8.062  18.597  66.430  0.00  0.00    -0.269 N 
ATOM      4  C   UNL     1      -8.165  17.186  66.169  0.00  0.00    +0.118 C 
ATOM      5  C   UNL     1      -8.699  16.540  67.616  0.00  0.00    +0.117 C 
ATOM      6  N   UNL     1     -10.177  17.136  67.461  0.00  0.00    -0.274 N 
ATOM      7  C   UNL     1     -10.996  16.618  68.560  0.00  0.00    +0.098 C 
ATOM      8  C   UNL     1     -10.469  15.313  69.110  0.00  0.00    +0.048 C 
ATOM      9  C   UNL     1      -9.980  14.529  67.925  0.00  0.00    -0.023 A 
ATOM     10  C   UNL     1     -10.691  13.424  67.465  0.00  0.00    -0.004 A 
ATOM     11  C   UNL     1     -10.827  13.150  66.123  0.00  0.00    -0.000 A 
ATOM     12  C   UNL     1     -10.274  14.027  65.198  0.00  0.00    -0.000 A 
ATOM     13  C   UNL     1      -9.665  15.179  65.682  0.00  0.00    -0.003 A 
ATOM     14  C   UNL     1     -10.214  18.543  67.314  0.00  0.00    +0.246 C 
ATOM     15  O   UNL     1     -11.256  19.167  67.670  0.00  0.00    -0.273 OA
ATOM     16  C   UNL     1      -9.166  15.116  66.953  0.00  0.00    -0.007 A 
ATOM     17  C   UNL     1      -9.338  19.306  66.382  0.00  0.00    +0.179 C 
ENDROOT
BRANCH   2  18
ATOM     18  C   UNL     1      -6.741  20.523  67.241  0.00  0.00    +0.077 C 
ATOM     19  C   UNL     1      -6.706  20.026  68.673  0.00  0.00    +0.009 C 
ATOM     20  C   UNL     1      -5.510  19.087  68.770  0.00  0.00    +0.000 C 
ATOM     21  C   UNL     1      -4.265  19.883  68.498  0.00  0.00    +0.000 C 
ATOM     22  C   UNL     1      -4.256  20.488  67.127  0.00  0.00    +0.000 C 
ATOM     23  C   UNL     1      -5.503  21.321  66.891  0.00  0.00    +0.009 C 
ENDBRANCH   2  18
TORSDOF 1
ENDMDL
MODEL 7
REMARK VINA RESULT:      -6.4      2.042      3.210
REMARK  Name = 
REMARK  1 active torsions:
REMARK  status: ('A' for Active; 'I' for Inactive)
REMARK    1  A    between atoms: C_2  and  C_3
REMARK                            x       y       z     vdW  Elec       q    Type
REMARK                         _______ _______ _______ _____ _____    ______ ____
ROOT
ATOM      1  O   UNL     1      -8.106  17.154  65.750  0.00  0.00    -0.275 OA
ATOM      2  C   UNL     1      -8.977  16.942  66.267  0.00  0.00    +0.226 C 
ATOM      3  N   UNL     1      -9.491  15.626  66.250  0.00  0.00    -0.269 N 
ATOM      4  C   UNL     1      -8.861  14.461  66.811  0.00  0.00    +0.118 C 
ATOM      5  C   UNL     1      -9.995  13.860  67.884  0.00  0.00    +0.117 C 
ATOM      6  N   UNL     1     -10.967  13.333  66.726  0.00  0.00    -0.274 N 
ATOM      7  C   UNL     1     -12.063  12.589  67.354  0.00  0.00    +0.098 C 
ATOM      8  C   UNL     1     -11.685  12.035  68.709  0.00  0.00    +0.048 C 
ATOM      9  C   UNL     1     -10.260  11.576  68.588  0.00  0.00    -0.023 A 
ATOM     10  C   UNL     1      -9.954  10.219  68.549  0.00  0.00    -0.004 A 
ATOM     11  C   UNL     1      -8.965   9.716  67.733  0.00  0.00    -0.000 A 
ATOM     12  C   UNL     1      -8.281  10.585  66.892  0.00  0.00    -0.000 A 
ATOM     13  C   UNL     1      -8.680  11.916  66.873  0.00  0.00    -0.003 A 
ATOM     14  C   UNL     1     -11.383  14.341  65.826  0.00  0.00    +0.246 C 
ATOM     15  O   UNL     1     -12.479  14.195  65.208  0.00  0.00    -0.273 OA
ATOM     16  C   UNL     1      -9.284  12.388  68.004  0.00  0.00    -0.007 A 
ATOM     17  C   UNL     1     -10.462  15.331  65.200  0.00  0.00    +0.179 C 
ENDROOT
BRANCH   2  18
ATOM     18  C   UNL     1      -9.983  18.047  66.365  0.00  0.00    +0.077 C 
ATOM     19  C   UNL     1     -10.807  17.932  67.632  0.00  0.00    +0.009 C 
ATOM     20  C   UNL     1      -9.823  18.025  68.791  0.00  0.00    +0.000 C 
ATOM     21  C   UNL     1      -9.176  19.381  68.750  0.00  0.00    +0.000 C 
ATOM     22  C   UNL     1      -8.407  19.614  67.484  0.00  0.00    +0.000 C 
ATOM     23  C   UNL     1      -9.283  19.386  66.266  0.00  0.00    +0.009 C 
ENDBRANCH   2  18
TORSDOF 1
ENDMDL
MODEL 8
REMARK VINA RESULT:      -6.2      3.825      7.377
REMARK  Name = 
REMARK  1 active torsions:
REMARK  status: ('A' for Active; 'I' for Inactive)
REMARK    1  A    between atoms: C_2  and  C_3
REMARK                            x       y       z     vdW  Elec       q    Type
REMARK                         _______ _______ _______ _____ _____    ______ ____
ROOT
ATOM      1  O   UNL     1     -10.126   7.543  68.309  0.00  0.00    -0.275 OA
ATOM      2  C   UNL     1     -10.216   8.420  68.850  0.00  0.00    +0.226 C 
ATOM      3  N   UNL     1     -10.058   9.661  68.193  0.00  0.00    -0.269 N 
ATOM      4  C   UNL     1     -10.914  10.192  67.167  0.00  0.00    +0.118 C 
ATOM      5  C   UNL     1     -11.410  11.671  67.773  0.00  0.00    +0.117 C 
ATOM      6  N   UNL     1      -9.977  12.356  67.566  0.00  0.00    -0.274 N 
ATOM      7  C   UNL     1     -10.101  13.779  67.892  0.00  0.00    +0.098 C 
ATOM      8  C   UNL     1     -11.516  14.289  67.735  0.00  0.00    +0.048 C 
ATOM      9  C   UNL     1     -12.069  13.610  66.514  0.00  0.00    -0.023 A 
ATOM     10  C   UNL     1     -12.257  14.322  65.333  0.00  0.00    -0.004 A 
ATOM     11  C   UNL     1     -11.999  13.768  64.098  0.00  0.00    -0.000 A 
ATOM     12  C   UNL     1     -11.494  12.475  64.033  0.00  0.00    -0.000 A 
ATOM     13  C   UNL     1     -11.213  11.829  65.231  0.00  0.00    -0.003 A 
ATOM     14  C   UNL     1      -8.923  11.691  68.233  0.00  0.00    +0.246 C 
ATOM     15  O   UNL     1      -7.894  12.352  68.563  0.00  0.00    -0.273 OA
ATOM     16  C   UNL     1     -11.928  12.233  66.324  0.00  0.00    -0.007 A 
ATOM     17  C   UNL     1      -8.708  10.218  68.190  0.00  0.00    +0.179 C 
ENDROOT
BRANCH   2  18
ATOM     18  C   UNL     1      -9.786   8.369  70.284  0.00  0.00    +0.077 C 
ATOM     19  C   UNL     1     -10.511   9.410  71.115  0.00  0.00    +0.009 C 
ATOM     20  C   UNL     1     -11.995   9.084  71.009  0.00  0.00    +0.000 C 
ATOM     21  C   UNL     1     -12.222   7.728  71.616  0.00  0.00    +0.000 C 
ATOM     22  C   UNL     1     -11.469   6.645  70.905  0.00  0.00    +0.000 C 
ATOM     23  C   UNL     1      -9.989   6.971  70.829  0.00  0.00    +0.009 C 
ENDBRANCH   2  18
TORSDOF 1
ENDMDL
MODEL 9
REMARK VINA RESULT:      -6.2      1.295      1.853
REMARK  Name = 
REMARK  1 active torsions:
REMARK  status: ('A' for Active; 'I' for Inactive)
REMARK    1  A    between atoms: C_2  and  C_3
REMARK                            x       y       z     vdW  Elec       q    Type
REMARK                         _______ _______ _______ _____ _____    ______ ____
ROOT
ATOM      1  O   UNL     1     -10.563  17.350  65.522  0.00  0.00    -0.275 OA
ATOM      2  C   UNL     1     -10.246  16.899  66.398  0.00  0.00    +0.226 C 
ATOM      3  N   UNL     1     -10.537  15.535  66.622  0.00  0.00    -0.269 N 
ATOM      4  C   UNL     1     -10.037  14.424  65.857  0.00  0.00    +0.118 C 
ATOM      5  C   UNL     1      -9.281  13.455  66.991  0.00  0.00    +0.117 C 
ATOM      6  N   UNL     1     -10.657  12.967  67.649  0.00  0.00    -0.274 N 
ATOM      7  C   UNL     1     -10.346  11.943  68.650  0.00  0.00    +0.098 C 
ATOM      8  C   UNL     1      -9.035  11.242  68.375  0.00  0.00    +0.048 C 
ATOM      9  C   UNL     1      -8.958  11.074  66.884  0.00  0.00    -0.023 A 
ATOM     10  C   UNL     1      -9.128   9.821  66.303  0.00  0.00    -0.004 A 
ATOM     11  C   UNL     1      -9.812   9.651  65.120  0.00  0.00    -0.000 A 
ATOM     12  C   UNL     1     -10.388  10.759  64.511  0.00  0.00    -0.000 A 
ATOM     13  C   UNL     1     -10.296  11.980  65.168  0.00  0.00    -0.003 A 
ATOM     14  C   UNL     1     -11.470  14.023  68.123  0.00  0.00    +0.246 C 
ATOM     15  O   UNL     1     -12.290  13.790  69.060  0.00  0.00    -0.273 OA
ATOM     16  C   UNL     1      -9.238  12.136  66.019  0.00  0.00    -0.007 A 
ATOM     17  C   UNL     1     -11.776  15.254  67.342  0.00  0.00    +0.179 C 
ENDROOT
BRANCH   2  18
ATOM     18  C   UNL     1     -10.180  17.772  67.613  0.00  0.00    +0.077 C 
ATOM     19  C   UNL     1      -8.893  17.551  68.384  0.00  0.00    +0.009 C 
ATOM     20  C   UNL     1      -7.759  17.905  67.431  0.00  0.00    +0.000 C 
ATOM     21  C   UNL     1      -7.875  19.362  67.083  0.00  0.00    +0.000 C 
ATOM     22  C   UNL     1      -9.165  19.688  66.392  0.00  0.00    +0.000 C 
ATOM     23  C   UNL     1     -10.354  19.222  67.212  0.00  0.00    +0.009 C 
ENDBRANCH   2  18
TORSDOF 1
ENDMDL
