MODEL 1
REMARK VINA RESULT:      -4.3      0.000      0.000
REMARK  Name = 
REMARK  1 active torsions:
REMARK  status: ('A' for Active; 'I' for Inactive)
REMARK    1  A    between atoms: N_2  and  C_3
REMARK                            x       y       z     vdW  Elec       q    Type
REMARK                         _______ _______ _______ _____ _____    ______ ____
ROOT
ATOM      1  C   UNL     1     -11.050  12.300  66.714  0.00  0.00    +0.059 C 
ATOM      2  C   UNL     1     -10.913  13.595  67.197  0.00  0.00    +0.014 C 
ATOM      3  C   UNL     1     -11.846  13.784  68.390  0.00  0.00    +0.001 C 
ATOM      4  C   UNL     1      -9.562  14.126  67.605  0.00  0.00    +0.001 C 
ATOM      5  C   UNL     1     -11.562  14.660  66.161  0.00  0.00    +0.001 C 
ATOM      6  C   UNL     1     -12.646  13.639  65.534  0.00  0.00    +0.001 C 
ATOM      7  C   UNL     1     -10.451  14.420  65.004  0.00  0.00    +0.000 C 
ATOM      8  C   UNL     1     -10.511  13.111  64.547  0.00  0.00    +0.001 C 
ATOM      9  C   UNL     1     -11.746  12.327  65.250  0.00  0.00    +0.015 C 
ATOM     10  C   UNL     1      -9.723  11.587  66.482  0.00  0.00    +0.017 C 
ENDROOT
BRANCH   1  12
ATOM     11  C   UNL     1     -11.214  10.320  67.862  0.00  0.00    +0.107 C 
ATOM     12  N   UNL     1     -11.842  11.374  67.521  0.00  0.00    -0.219 NA
ENDBRANCH   1  12
TORSDOF 1
ENDMDL
MODEL 2
REMARK VINA RESULT:      -4.2      4.865      6.329
REMARK  Name = 
REMARK  1 active torsions:
REMARK  status: ('A' for Active; 'I' for Inactive)
REMARK    1  A    between atoms: N_2  and  C_3
REMARK                            x       y       z     vdW  Elec       q    Type
REMARK                         _______ _______ _______ _____ _____    ______ ____
ROOT
ATOM      1  C   UNL     1      -9.343  17.820  66.852  0.00  0.00    +0.059 C 
ATOM      2  C   UNL     1      -9.468  19.172  67.147  0.00  0.00    +0.014 C 
ATOM      3  C   UNL     1     -10.237  19.859  66.022  0.00  0.00    +0.001 C 
ATOM      4  C   UNL     1     -10.086  19.622  68.446  0.00  0.00    +0.001 C 
ATOM      5  C   UNL     1      -8.036  19.919  67.005  0.00  0.00    +0.001 C 
ATOM      6  C   UNL     1      -7.428  18.903  65.905  0.00  0.00    +0.001 C 
ATOM      7  C   UNL     1      -7.364  19.172  68.278  0.00  0.00    +0.000 C 
ATOM      8  C   UNL     1      -7.290  17.805  68.046  0.00  0.00    +0.001 C 
ATOM      9  C   UNL     1      -7.792  17.463  66.542  0.00  0.00    +0.015 C 
ATOM     10  C   UNL     1      -9.713  16.902  68.011  0.00  0.00    +0.017 C 
ENDROOT
BRANCH   1  12
ATOM     11  C   UNL     1     -10.245  16.054  65.698  0.00  0.00    +0.107 C 
ATOM     12  N   UNL     1     -10.109  17.320  65.712  0.00  0.00    -0.219 NA
ENDBRANCH   1  12
TORSDOF 1
ENDMDL
MODEL 3
REMARK VINA RESULT:      -4.2      5.349      6.602
REMARK  Name = 
REMARK  1 active torsions:
REMARK  status: ('A' for Active; 'I' for Inactive)
REMARK    1  A    between atoms: N_2  and  C_3
REMARK                            x       y       z     vdW  Elec       q    Type
REMARK                         _______ _______ _______ _____ _____    ______ ____
ROOT
ATOM      1  C   UNL     1      -8.320  18.141  67.540  0.00  0.00    +0.059 C 
ATOM      2  C   UNL     1      -7.991  19.431  67.143  0.00  0.00    +0.014 C 
ATOM      3  C   UNL     1      -7.039  20.041  68.168  0.00  0.00    +0.001 C 
ATOM      4  C   UNL     1      -7.400  19.690  65.780  0.00  0.00    +0.001 C 
ATOM      5  C   UNL     1      -9.263  20.421  67.317  0.00  0.00    +0.001 C 
ATOM      6  C   UNL     1      -9.954  19.593  68.521  0.00  0.00    +0.001 C 
ATOM      7  C   UNL     1     -10.140  19.727  66.142  0.00  0.00    +0.000 C 
ATOM      8  C   UNL     1     -10.426  18.410  66.474  0.00  0.00    +0.001 C 
ATOM      9  C   UNL     1      -9.883  18.076  67.966  0.00  0.00    +0.015 C 
ATOM     10  C   UNL     1      -8.193  17.105  66.429  0.00  0.00    +0.017 C 
ENDROOT
BRANCH   1  12
ATOM     11  C   UNL     1      -7.678  16.322  68.782  0.00  0.00    +0.107 C 
ATOM     12  N   UNL     1      -7.571  17.585  68.665  0.00  0.00    -0.219 NA
ENDBRANCH   1  12
TORSDOF 1
ENDMDL
MODEL 4
REMARK VINA RESULT:      -4.2      5.656      7.278
REMARK  Name = 
REMARK  1 active torsions:
REMARK  status: ('A' for Active; 'I' for Inactive)
REMARK    1  A    between atoms: N_2  and  C_3
REMARK                            x       y       z     vdW  Elec       q    Type
REMARK                         _______ _______ _______ _____ _____    ______ ____
ROOT
ATOM      1  C   UNL     1      -7.983  19.262  66.597  0.00  0.00    +0.059 C 
ATOM      2  C   UNL     1      -7.991  18.112  67.376  0.00  0.00    +0.014 C 
ATOM      3  C   UNL     1      -7.447  16.948  66.553  0.00  0.00    +0.001 C 
ATOM      4  C   UNL     1      -7.285  18.080  68.708  0.00  0.00    +0.001 C 
ATOM      5  C   UNL     1      -9.510  17.600  67.618  0.00  0.00    +0.001 C 
ATOM      6  C   UNL     1     -10.113  18.222  66.254  0.00  0.00    +0.001 C 
ATOM      7  C   UNL     1      -9.932  18.859  68.550  0.00  0.00    +0.000 C 
ATOM      8  C   UNL     1      -9.866  20.037  67.820  0.00  0.00    +0.001 C 
ATOM      9  C   UNL     1      -9.504  19.719  66.271  0.00  0.00    +0.015 C 
ATOM     10  C   UNL     1      -7.372  20.472  67.293  0.00  0.00    +0.017 C 
ENDROOT
BRANCH   1  12
ATOM     11  C   UNL     1      -6.611  20.213  65.022  0.00  0.00    +0.107 C 
ATOM     12  N   UNL     1      -7.300  19.181  65.307  0.00  0.00    -0.219 NA
ENDBRANCH   1  12
TORSDOF 1
ENDMDL
MODEL 5
REMARK VINA RESULT:      -4.2      1.444      2.510
REMARK  Name = 
REMARK  1 active torsions:
REMARK  status: ('A' for Active; 'I' for Inactive)
REMARK    1  A    between atoms: N_2  and  C_3
REMARK                            x       y       z     vdW  Elec       q    Type
REMARK                         _______ _______ _______ _____ _____    ______ ____
ROOT
ATOM      1  C   UNL     1     -11.369  13.724  66.896  0.00  0.00    +0.059 C 
ATOM      2  C   UNL     1     -10.159  13.624  66.221  0.00  0.00    +0.014 C 
ATOM      3  C   UNL     1      -9.299  14.840  66.557  0.00  0.00    +0.001 C 
ATOM      4  C   UNL     1      -9.285  12.407  66.384  0.00  0.00    +0.001 C 
ATOM      5  C   UNL     1     -10.372  13.862  64.632  0.00  0.00    +0.001 C 
ATOM      6  C   UNL     1     -11.678  14.803  64.780  0.00  0.00    +0.001 C 
ATOM      7  C   UNL     1     -11.208  12.491  64.399  0.00  0.00    +0.000 C 
ATOM      8  C   UNL     1     -12.394  12.527  65.119  0.00  0.00    +0.001 C 
ATOM      9  C   UNL     1     -12.573  13.970  65.838  0.00  0.00    +0.015 C 
ATOM     10  C   UNL     1     -11.771  12.450  67.628  0.00  0.00    +0.017 C 
ENDROOT
BRANCH   1  12
ATOM     11  C   UNL     1     -11.926  14.392  69.019  0.00  0.00    +0.107 C 
ATOM     12  N   UNL     1     -11.484  14.787  67.893  0.00  0.00    -0.219 NA
ENDBRANCH   1  12
TORSDOF 1
ENDMDL
MODEL 6
REMARK VINA RESULT:      -4.1      5.663      7.207
REMARK  Name = 
REMARK  1 active torsions:
REMARK  status: ('A' for Active; 'I' for Inactive)
REMARK    1  A    between atoms: N_2  and  C_3
REMARK                            x       y       z     vdW  Elec       q    Type
REMARK                         _______ _______ _______ _____ _____    ______ ____
ROOT
ATOM      1  C   UNL     1      -7.951  18.924  68.022  0.00  0.00    +0.059 C 
ATOM      2  C   UNL     1      -8.178  18.638  66.682  0.00  0.00    +0.014 C 
ATOM      3  C   UNL     1      -7.490  19.695  65.823  0.00  0.00    +0.001 C 
ATOM      4  C   UNL     1      -7.809  17.293  66.109  0.00  0.00    +0.001 C 
ATOM      5  C   UNL     1      -9.726  18.924  66.294  0.00  0.00    +0.001 C 
ATOM      6  C   UNL     1      -9.970  20.062  67.415  0.00  0.00    +0.001 C 
ATOM      7  C   UNL     1     -10.319  17.709  67.189  0.00  0.00    +0.000 C 
ATOM      8  C   UNL     1     -10.046  17.927  68.532  0.00  0.00    +0.001 C 
ATOM      9  C   UNL     1      -9.337  19.372  68.734  0.00  0.00    +0.015 C 
ATOM     10  C   UNL     1      -7.486  17.723  68.837  0.00  0.00    +0.017 C 
ENDROOT
BRANCH   1  12
ATOM     11  C   UNL     1      -6.442  19.876  69.465  0.00  0.00    +0.107 C 
ATOM     12  N   UNL     1      -6.985  19.980  68.318  0.00  0.00    -0.219 NA
ENDBRANCH   1  12
TORSDOF 1
ENDMDL
MODEL 7
REMARK VINA RESULT:      -4.1      1.606      3.232
REMARK  Name = 
REMARK  1 active torsions:
REMARK  status: ('A' for Active; 'I' for Inactive)
REMARK    1  A    between atoms: N_2  and  C_3
REMARK                            x       y       z     vdW  Elec       q    Type
REMARK                         _______ _______ _______ _____ _____    ______ ____
ROOT
ATOM      1  C   UNL     1     -10.388  13.947  66.381  0.00  0.00    +0.059 C 
ATOM      2  C   UNL     1     -10.700  12.610  66.592  0.00  0.00    +0.014 C 
ATOM      3  C   UNL     1      -9.412  11.830  66.839  0.00  0.00    +0.001 C 
ATOM      4  C   UNL     1     -11.674  12.208  67.671  0.00  0.00    +0.001 C 
ATOM      5  C   UNL     1     -11.189  11.915  65.212  0.00  0.00    +0.001 C 
ATOM      6  C   UNL     1     -10.355  12.891  64.231  0.00  0.00    +0.001 C 
ATOM      7  C   UNL     1     -12.571  12.759  65.115  0.00  0.00    +0.000 C 
ATOM      8  C   UNL     1     -12.296  14.112  64.975  0.00  0.00    +0.001 C 
ATOM      9  C   UNL     1     -10.696  14.349  64.840  0.00  0.00    +0.015 C 
ATOM     10  C   UNL     1     -11.240  14.913  67.195  0.00  0.00    +0.017 C 
ENDROOT
BRANCH   1  12
ATOM     11  C   UNL     1      -8.771  15.575  66.374  0.00  0.00    +0.107 C 
ATOM     12  N   UNL     1      -9.007  14.351  66.635  0.00  0.00    -0.219 NA
ENDBRANCH   1  12
TORSDOF 1
ENDMDL
MODEL 8
REMARK VINA RESULT:      -4.1      4.351      5.720
REMARK  Name = 
REMARK  1 active torsions:
REMARK  status: ('A' for Active; 'I' for Inactive)
REMARK    1  A    between atoms: N_2  and  C_3
REMARK                            x       y       z     vdW  Elec       q    Type
REMARK                         _______ _______ _______ _____ _____    ______ ____
ROOT
ATOM      1  C   UNL     1      -9.682  17.316  67.443  0.00  0.00    +0.059 C 
ATOM      2  C   UNL     1      -8.344  17.685  67.400  0.00  0.00    +0.014 C 
ATOM      3  C   UNL     1      -7.644  17.169  68.655  0.00  0.00    +0.001 C 
ATOM      4  C   UNL     1      -7.478  17.307  66.225  0.00  0.00    +0.001 C 
ATOM      5  C   UNL     1      -8.186  19.282  67.628  0.00  0.00    +0.001 C 
ATOM      6  C   UNL     1      -9.531  19.457  68.506  0.00  0.00    +0.001 C 
ATOM      7  C   UNL     1      -8.878  19.690  66.219  0.00  0.00    +0.000 C 
ATOM      8  C   UNL     1     -10.202  19.272  66.198  0.00  0.00    +0.001 C 
ATOM      9  C   UNL     1     -10.611  18.632  67.632  0.00  0.00    +0.015 C 
ATOM     10  C   UNL     1     -10.188  16.687  66.150  0.00  0.00    +0.017 C 
ENDROOT
BRANCH   1  12
ATOM     11  C   UNL     1     -11.325  16.123  68.512  0.00  0.00    +0.107 C 
ATOM     12  N   UNL     1     -10.079  16.387  68.499  0.00  0.00    -0.219 NA
ENDBRANCH   1  12
TORSDOF 1
ENDMDL
MODEL 9
REMARK VINA RESULT:      -4.1      4.973      6.723
REMARK  Name = 
REMARK  1 active torsions:
REMARK  status: ('A' for Active; 'I' for Inactive)
REMARK    1  A    between atoms: N_2  and  C_3
REMARK                            x       y       z     vdW  Elec       q    Type
REMARK                         _______ _______ _______ _____ _____    ______ ____
ROOT
ATOM      1  C   UNL     1      -8.345  18.400  66.603  0.00  0.00    +0.059 C 
ATOM      2  C   UNL     1      -9.696  18.077  66.638  0.00  0.00    +0.014 C 
ATOM      3  C   UNL     1     -10.494  19.201  65.982  0.00  0.00    +0.001 C 
ATOM      4  C   UNL     1     -10.193  16.780  66.052  0.00  0.00    +0.001 C 
ATOM      5  C   UNL     1     -10.264  18.177  68.153  0.00  0.00    +0.001 C 
ATOM      6  C   UNL     1      -9.203  19.288  68.655  0.00  0.00    +0.001 C 
ATOM      7  C   UNL     1      -9.416  16.908  68.702  0.00  0.00    +0.000 C 
ATOM      8  C   UNL     1      -8.055  17.169  68.614  0.00  0.00    +0.001 C 
ATOM      9  C   UNL     1      -7.806  18.689  68.105  0.00  0.00    +0.015 C 
ATOM     10  C   UNL     1      -7.456  17.269  66.100  0.00  0.00    +0.017 C 
ENDROOT
BRANCH   1  12
ATOM     11  C   UNL     1      -6.760  19.538  65.395  0.00  0.00    +0.107 C 
ATOM     12  N   UNL     1      -7.965  19.565  65.806  0.00  0.00    -0.219 NA
ENDBRANCH   1  12
TORSDOF 1
ENDMDL
