MODEL 1
REMARK VINA RESULT:      -7.1      0.000      0.000
REMARK  Name = 
REMARK  6 active torsions:
REMARK  status: ('A' for Active; 'I' for Inactive)
REMARK    1  A    between atoms: O_2  and  C_3
REMARK    2  A    between atoms: C_8  and  O_9
REMARK    3  A    between atoms: C_13  and  C_14
REMARK    4  A    between atoms: C_14  and  C_15
REMARK    5  A    between atoms: N_18  and  C_19
REMARK    6  A    between atoms: C_19  and  C_20
REMARK                            x       y       z     vdW  Elec       q    Type
REMARK                         _______ _______ _______ _____ _____    ______ ____
ROOT
ATOM      1  C   UNL     1      -7.332  19.006  68.454  0.00  0.00    +0.172 A 
ATOM      2  C   UNL     1      -8.038  19.984  67.764  0.00  0.00    +0.172 A 
ATOM      3  C   UNL     1      -9.212  19.557  67.166  0.00  0.00    +0.043 A 
ATOM      4  C   UNL     1      -9.480  18.210  66.939  0.00  0.00    +0.034 A 
ATOM      5  C   UNL     1     -10.391  17.655  65.984  0.00  0.00    +0.173 C 
ATOM      6  C   UNL     1     -10.246  16.050  66.129  0.00  0.00    +0.066 C 
ATOM      7  C   UNL     1      -8.628  16.143  66.438  0.00  0.00    +0.034 C 
ATOM      8  O   UNL     1     -10.883  18.128  64.914  0.00  0.00    -0.291 OA
ATOM      9  C   UNL     1      -8.612  17.255  67.402  0.00  0.00    -0.016 A 
ATOM     10  C   UNL     1      -7.681  17.668  68.316  0.00  0.00    +0.036 A 
ENDROOT
BRANCH   1  12
ATOM     11  C   UNL     1      -5.683  19.170  69.517  0.00  0.00    +0.253 C 
ATOM     12  O   UNL     1      -6.155  19.389  69.107  0.00  0.00    -0.468 OA
ENDBRANCH   1  12
BRANCH   2  13
ATOM     13  O   UNL     1      -7.343  21.113  67.317  0.00  0.00    -0.468 OA
ATOM     14  C   UNL     1      -6.403  20.943  66.257  0.00  0.00    +0.253 C 
ENDBRANCH   2  13
BRANCH   6  15
ATOM     15  C   UNL     1     -10.632  16.088  67.734  0.00  0.00    +0.008 C 
BRANCH  15  16
ATOM     16  C   UNL     1     -11.449  14.831  67.879  0.00  0.00    +0.003 C 
ATOM     17  C   UNL     1     -10.664  13.579  67.508  0.00  0.00    +0.017 C 
ATOM     18  C   UNL     1     -11.674  12.441  67.561  0.00  0.00    +0.072 C 
ATOM     19  N   UNL     1     -11.973  12.161  68.951  0.00  0.00    -0.269 NA
ATOM     20  C   UNL     1     -11.728  13.266  69.830  0.00  0.00    +0.072 C 
ATOM     21  C   UNL     1     -11.997  14.614  69.251  0.00  0.00    +0.017 C 
BRANCH  19  22
ATOM     22  C   UNL     1     -11.102  11.056  69.336  0.00  0.00    +0.099 C 
BRANCH  22  23
ATOM     23  C   UNL     1     -11.606  10.330  70.521  0.00  0.00    -0.006 A 
ATOM     24  C   UNL     1     -10.764   9.404  71.092  0.00  0.00    -0.003 A 
ATOM     25  C   UNL     1     -11.226   8.377  71.902  0.00  0.00    -0.000 A 
ATOM     26  C   UNL     1     -12.512   8.451  72.420  0.00  0.00    -0.000 A 
ATOM     27  C   UNL     1     -13.369   9.331  71.789  0.00  0.00    -0.000 A 
ATOM     28  C   UNL     1     -12.937  10.244  70.835  0.00  0.00    -0.003 A 
ENDBRANCH  22  23
ENDBRANCH  19  22
ENDBRANCH  15  16
ENDBRANCH   6  15
TORSDOF 6
ENDMDL
MODEL 2
REMARK VINA RESULT:      -7.0      4.254      8.998
REMARK  Name = 
REMARK  6 active torsions:
REMARK  status: ('A' for Active; 'I' for Inactive)
REMARK    1  A    between atoms: O_2  and  C_3
REMARK    2  A    between atoms: C_8  and  O_9
REMARK    3  A    between atoms: C_13  and  C_14
REMARK    4  A    between atoms: C_14  and  C_15
REMARK    5  A    between atoms: N_18  and  C_19
REMARK    6  A    between atoms: C_19  and  C_20
REMARK                            x       y       z     vdW  Elec       q    Type
REMARK                         _______ _______ _______ _____ _____    ______ ____
ROOT
ATOM      1  C   UNL     1      -9.415  10.327  64.761  0.00  0.00    +0.172 A 
ATOM      2  C   UNL     1      -9.668  10.847  63.498  0.00  0.00    +0.172 A 
ATOM      3  C   UNL     1     -10.179  12.135  63.479  0.00  0.00    +0.043 A 
ATOM      4  C   UNL     1     -10.749  12.722  64.604  0.00  0.00    +0.034 A 
ATOM      5  C   UNL     1     -11.674  13.814  64.639  0.00  0.00    +0.173 C 
ATOM      6  C   UNL     1     -12.033  14.028  66.202  0.00  0.00    +0.066 C 
ATOM      7  C   UNL     1     -11.963  12.411  66.523  0.00  0.00    +0.034 C 
ATOM      8  O   UNL     1     -12.467  14.275  63.763  0.00  0.00    -0.291 OA
ATOM      9  C   UNL     1     -10.728  12.058  65.804  0.00  0.00    -0.016 A 
ATOM     10  C   UNL     1      -9.887  10.983  65.891  0.00  0.00    +0.036 A 
ENDROOT
BRANCH   1  12
ATOM     11  C   UNL     1      -8.664   8.579  65.268  0.00  0.00    +0.253 C 
ATOM     12  O   UNL     1      -8.867   9.042  64.839  0.00  0.00    -0.468 OA
ENDBRANCH   1  12
BRANCH   2  13
ATOM     13  O   UNL     1      -9.864   9.954  62.439  0.00  0.00    -0.468 OA
ATOM     14  C   UNL     1      -8.874   9.907  61.412  0.00  0.00    +0.253 C 
ENDBRANCH   2  13
BRANCH   6  15
ATOM     15  C   UNL     1     -10.449  14.256  66.609  0.00  0.00    +0.008 C 
BRANCH  15  16
ATOM     16  C   UNL     1     -10.311  15.749  66.466  0.00  0.00    +0.003 C 
ATOM     17  C   UNL     1     -10.628  16.491  67.758  0.00  0.00    +0.017 C 
ATOM     18  C   UNL     1     -10.592  17.968  67.392  0.00  0.00    +0.072 C 
ATOM     19  N   UNL     1      -9.209  18.356  67.201  0.00  0.00    -0.269 NA
ATOM     20  C   UNL     1      -8.343  17.265  66.867  0.00  0.00    +0.072 C 
ATOM     21  C   UNL     1      -8.956  16.197  66.026  0.00  0.00    +0.017 C 
BRANCH  19  22
ATOM     22  C   UNL     1      -8.771  18.929  68.470  0.00  0.00    +0.099 C 
BRANCH  22  23
ATOM     23  C   UNL     1      -7.430  19.541  68.375  0.00  0.00    -0.006 A 
ATOM     24  C   UNL     1      -6.628  19.466  69.491  0.00  0.00    -0.003 A 
ATOM     25  C   UNL     1      -5.563  20.329  69.703  0.00  0.00    -0.000 A 
ATOM     26  C   UNL     1      -5.079  21.079  68.640  0.00  0.00    -0.000 A 
ATOM     27  C   UNL     1      -5.925  21.208  67.556  0.00  0.00    -0.000 A 
ATOM     28  C   UNL     1      -7.097  20.473  67.428  0.00  0.00    -0.003 A 
ENDBRANCH  22  23
ENDBRANCH  19  22
ENDBRANCH  15  16
ENDBRANCH   6  15
TORSDOF 6
ENDMDL
MODEL 3
REMARK VINA RESULT:      -7.0      3.478      8.952
REMARK  Name = 
REMARK  6 active torsions:
REMARK  status: ('A' for Active; 'I' for Inactive)
REMARK    1  A    between atoms: O_2  and  C_3
REMARK    2  A    between atoms: C_8  and  O_9
REMARK    3  A    between atoms: C_13  and  C_14
REMARK    4  A    between atoms: C_14  and  C_15
REMARK    5  A    between atoms: N_18  and  C_19
REMARK    6  A    between atoms: C_19  and  C_20
REMARK                            x       y       z     vdW  Elec       q    Type
REMARK                         _______ _______ _______ _____ _____    ______ ____
ROOT
ATOM      1  C   UNL     1     -12.333  12.898  70.428  0.00  0.00    +0.172 A 
ATOM      2  C   UNL     1     -11.904  11.605  70.149  0.00  0.00    +0.172 A 
ATOM      3  C   UNL     1     -11.147  11.468  68.997  0.00  0.00    +0.043 A 
ATOM      4  C   UNL     1     -11.129  12.441  68.002  0.00  0.00    +0.034 A 
ATOM      5  C   UNL     1     -10.773  12.269  66.626  0.00  0.00    +0.173 C 
ATOM      6  C   UNL     1     -10.989  13.717  65.938  0.00  0.00    +0.066 C 
ATOM      7  C   UNL     1     -12.301  14.058  66.879  0.00  0.00    +0.034 C 
ATOM      8  O   UNL     1     -10.747  11.240  65.884  0.00  0.00    -0.291 OA
ATOM      9  C   UNL     1     -11.798  13.622  68.192  0.00  0.00    -0.016 A 
ATOM     10  C   UNL     1     -12.203  13.896  69.470  0.00  0.00    +0.036 A 
ENDROOT
BRANCH   1  12
ATOM     11  C   UNL     1     -13.372  13.569  71.959  0.00  0.00    +0.253 C 
ATOM     12  O   UNL     1     -13.073  13.101  71.597  0.00  0.00    -0.468 OA
ENDBRANCH   1  12
BRANCH   2  13
ATOM     13  O   UNL     1     -12.616  10.536  70.703  0.00  0.00    -0.468 OA
ATOM     14  C   UNL     1     -11.898   9.597  71.501  0.00  0.00    +0.253 C 
ENDBRANCH   2  13
BRANCH   6  15
ATOM     15  C   UNL     1      -9.949  14.452  66.989  0.00  0.00    +0.008 C 
BRANCH  15  16
ATOM     16  C   UNL     1      -9.744  15.790  66.327  0.00  0.00    +0.003 C 
ATOM     17  C   UNL     1     -10.425  16.925  67.081  0.00  0.00    +0.017 C 
ATOM     18  C   UNL     1     -10.248  18.154  66.201  0.00  0.00    +0.072 C 
ATOM     19  N   UNL     1      -8.866  18.579  66.282  0.00  0.00    -0.269 NA
ATOM     20  C   UNL     1      -7.961  17.534  66.661  0.00  0.00    +0.072 C 
ATOM     21  C   UNL     1      -8.310  16.174  66.159  0.00  0.00    +0.017 C 
BRANCH  19  22
ATOM     22  C   UNL     1      -8.824  19.624  67.299  0.00  0.00    +0.099 C 
BRANCH  22  23
ATOM     23  C   UNL     1      -7.444  19.932  67.730  0.00  0.00    -0.006 A 
ATOM     24  C   UNL     1      -7.109  19.615  69.027  0.00  0.00    -0.003 A 
ATOM     25  C   UNL     1      -6.044  20.210  69.687  0.00  0.00    -0.000 A 
ATOM     26  C   UNL     1      -5.091  20.898  68.949  0.00  0.00    -0.000 A 
ATOM     27  C   UNL     1      -5.468  21.275  67.675  0.00  0.00    -0.000 A 
ATOM     28  C   UNL     1      -6.637  20.824  67.075  0.00  0.00    -0.003 A 
ENDBRANCH  22  23
ENDBRANCH  19  22
ENDBRANCH  15  16
ENDBRANCH   6  15
TORSDOF 6
ENDMDL
MODEL 4
REMARK VINA RESULT:      -6.9      3.458      9.289
REMARK  Name = 
REMARK  6 active torsions:
REMARK  status: ('A' for Active; 'I' for Inactive)
REMARK    1  A    between atoms: O_2  and  C_3
REMARK    2  A    between atoms: C_8  and  O_9
REMARK    3  A    between atoms: C_13  and  C_14
REMARK    4  A    between atoms: C_14  and  C_15
REMARK    5  A    between atoms: N_18  and  C_19
REMARK    6  A    between atoms: C_19  and  C_20
REMARK                            x       y       z     vdW  Elec       q    Type
REMARK                         _______ _______ _______ _____ _____    ______ ____
ROOT
ATOM      1  C   UNL     1     -11.219  12.508  66.662  0.00  0.00    +0.172 A 
ATOM      2  C   UNL     1     -11.590  12.734  65.342  0.00  0.00    +0.172 A 
ATOM      3  C   UNL     1     -11.137  13.923  64.795  0.00  0.00    +0.043 A 
ATOM      4  C   UNL     1     -10.683  14.976  65.584  0.00  0.00    +0.034 A 
ATOM      5  C   UNL     1     -10.605  16.360  65.224  0.00  0.00    +0.173 C 
ATOM      6  C   UNL     1     -10.061  17.121  66.543  0.00  0.00    +0.066 C 
ATOM      7  C   UNL     1     -10.885  16.116  67.561  0.00  0.00    +0.034 C 
ATOM      8  O   UNL     1     -11.211  17.036  64.337  0.00  0.00    -0.291 OA
ATOM      9  C   UNL     1     -10.582  14.816  66.941  0.00  0.00    -0.016 A 
ATOM     10  C   UNL     1     -10.655  13.533  67.411  0.00  0.00    +0.036 A 
ENDROOT
BRANCH   1  12
ATOM     11  C   UNL     1     -11.525  10.922  67.787  0.00  0.00    +0.253 C 
ATOM     12  O   UNL     1     -11.620  11.306  67.255  0.00  0.00    -0.468 OA
ENDBRANCH   1  12
BRANCH   2  13
ATOM     13  O   UNL     1     -12.714  12.067  64.845  0.00  0.00    -0.468 OA
ATOM     14  C   UNL     1     -12.786  11.832  63.439  0.00  0.00    +0.253 C 
ENDBRANCH   2  13
BRANCH   6  15
ATOM     15  C   UNL     1      -8.698  16.191  66.605  0.00  0.00    +0.008 C 
BRANCH  15  16
ATOM     16  C   UNL     1      -7.616  17.229  66.456  0.00  0.00    +0.003 C 
ATOM     17  C   UNL     1      -8.109  18.636  66.770  0.00  0.00    +0.017 C 
ATOM     18  C   UNL     1      -6.947  19.555  66.420  0.00  0.00    +0.072 C 
ATOM     19  N   UNL     1      -5.924  19.404  67.435  0.00  0.00    -0.269 NA
ATOM     20  C   UNL     1      -5.978  18.151  68.128  0.00  0.00    +0.072 C 
ATOM     21  C   UNL     1      -6.414  16.985  67.308  0.00  0.00    +0.017 C 
BRANCH  19  22
ATOM     22  C   UNL     1      -6.145  20.480  68.394  0.00  0.00    +0.099 C 
BRANCH  22  23
ATOM     23  C   UNL     1      -4.888  20.938  69.022  0.00  0.00    -0.006 A 
ATOM     24  C   UNL     1      -3.752  20.904  68.246  0.00  0.00    -0.003 A 
ATOM     25  C   UNL     1      -2.477  20.887  68.791  0.00  0.00    -0.000 A 
ATOM     26  C   UNL     1      -2.308  21.232  70.125  0.00  0.00    -0.000 A 
ATOM     27  C   UNL     1      -3.443  21.190  70.910  0.00  0.00    -0.000 A 
ATOM     28  C   UNL     1      -4.716  21.021  70.379  0.00  0.00    -0.003 A 
ENDBRANCH  22  23
ENDBRANCH  19  22
ENDBRANCH  15  16
ENDBRANCH   6  15
TORSDOF 6
ENDMDL
MODEL 5
REMARK VINA RESULT:      -6.8      2.281      3.929
REMARK  Name = 
REMARK  6 active torsions:
REMARK  status: ('A' for Active; 'I' for Inactive)
REMARK    1  A    between atoms: O_2  and  C_3
REMARK    2  A    between atoms: C_8  and  O_9
REMARK    3  A    between atoms: C_13  and  C_14
REMARK    4  A    between atoms: C_14  and  C_15
REMARK    5  A    between atoms: N_18  and  C_19
REMARK    6  A    between atoms: C_19  and  C_20
REMARK                            x       y       z     vdW  Elec       q    Type
REMARK                         _______ _______ _______ _____ _____    ______ ____
ROOT
ATOM      1  C   UNL     1      -8.606  15.842  66.769  0.00  0.00    +0.172 A 
ATOM      2  C   UNL     1      -9.733  16.593  66.457  0.00  0.00    +0.172 A 
ATOM      3  C   UNL     1     -10.937  15.912  66.530  0.00  0.00    +0.043 A 
ATOM      4  C   UNL     1     -11.003  14.522  66.538  0.00  0.00    +0.034 A 
ATOM      5  C   UNL     1     -12.122  13.703  66.179  0.00  0.00    +0.173 C 
ATOM      6  C   UNL     1     -11.607  12.177  66.325  0.00  0.00    +0.066 C 
ATOM      7  C   UNL     1     -10.088  12.555  65.801  0.00  0.00    +0.034 C 
ATOM      8  O   UNL     1     -13.141  13.937  65.460  0.00  0.00    -0.291 OA
ATOM      9  C   UNL     1      -9.847  13.785  66.572  0.00  0.00    -0.016 A 
ATOM     10  C   UNL     1      -8.702  14.461  66.893  0.00  0.00    +0.036 A 
ENDROOT
BRANCH   1  12
ATOM     11  C   UNL     1      -6.743  16.446  66.970  0.00  0.00    +0.253 C 
ATOM     12  O   UNL     1      -7.365  16.487  66.744  0.00  0.00    -0.468 OA
ENDBRANCH   1  12
BRANCH   2  13
ATOM     13  O   UNL     1      -9.572  17.735  65.666  0.00  0.00    -0.468 OA
ATOM     14  C   UNL     1     -10.155  18.953  66.124  0.00  0.00    +0.253 C 
ENDBRANCH   2  13
BRANCH   6  15
ATOM     15  C   UNL     1     -11.196  12.390  67.910  0.00  0.00    +0.008 C 
BRANCH  15  16
ATOM     16  C   UNL     1     -11.405  11.006  68.466  0.00  0.00    +0.003 C 
ATOM     17  C   UNL     1     -10.099  10.338  68.875  0.00  0.00    +0.017 C 
ATOM     18  C   UNL     1     -10.479   8.915  69.259  0.00  0.00    +0.072 C 
ATOM     19  N   UNL     1     -11.162   8.954  70.536  0.00  0.00    -0.269 NA
ATOM     20  C   UNL     1     -11.768  10.220  70.829  0.00  0.00    +0.072 C 
ATOM     21  C   UNL     1     -12.312  10.955  69.651  0.00  0.00    +0.017 C 
BRANCH  19  22
ATOM     22  C   UNL     1     -10.147   8.677  71.546  0.00  0.00    +0.099 C 
BRANCH  22  23
ATOM     23  C   UNL     1     -10.525   7.552  72.426  0.00  0.00    -0.006 A 
ATOM     24  C   UNL     1      -9.828   7.420  73.606  0.00  0.00    -0.003 A 
ATOM     25  C   UNL     1      -9.765   6.222  74.304  0.00  0.00    -0.000 A 
ATOM     26  C   UNL     1     -10.670   5.214  74.000  0.00  0.00    -0.000 A 
ATOM     27  C   UNL     1     -11.307   5.321  72.779  0.00  0.00    -0.000 A 
ATOM     28  C   UNL     1     -11.222   6.458  71.986  0.00  0.00    -0.003 A 
ENDBRANCH  22  23
ENDBRANCH  19  22
ENDBRANCH  15  16
ENDBRANCH   6  15
TORSDOF 6
ENDMDL
MODEL 6
REMARK VINA RESULT:      -6.7      2.885      4.007
REMARK  Name = 
REMARK  6 active torsions:
REMARK  status: ('A' for Active; 'I' for Inactive)
REMARK    1  A    between atoms: O_2  and  C_3
REMARK    2  A    between atoms: C_8  and  O_9
REMARK    3  A    between atoms: C_13  and  C_14
REMARK    4  A    between atoms: C_14  and  C_15
REMARK    5  A    between atoms: N_18  and  C_19
REMARK    6  A    between atoms: C_19  and  C_20
REMARK                            x       y       z     vdW  Elec       q    Type
REMARK                         _______ _______ _______ _____ _____    ______ ____
ROOT
ATOM      1  C   UNL     1      -4.923  19.887  68.293  0.00  0.00    +0.172 A 
ATOM      2  C   UNL     1      -5.496  20.218  69.515  0.00  0.00    +0.172 A 
ATOM      3  C   UNL     1      -6.781  19.741  69.715  0.00  0.00    +0.043 A 
ATOM      4  C   UNL     1      -7.581  19.303  68.663  0.00  0.00    +0.034 A 
ATOM      5  C   UNL     1      -9.009  19.204  68.641  0.00  0.00    +0.173 C 
ATOM      6  C   UNL     1      -9.385  18.693  67.153  0.00  0.00    +0.066 C 
ATOM      7  C   UNL     1      -8.159  19.554  66.460  0.00  0.00    +0.034 C 
ATOM      8  O   UNL     1      -9.904  19.779  69.333  0.00  0.00    -0.291 OA
ATOM      9  C   UNL     1      -7.065  19.243  67.394  0.00  0.00    -0.016 A 
ATOM     10  C   UNL     1      -5.705  19.338  67.284  0.00  0.00    +0.036 A 
ENDROOT
BRANCH   1  12
ATOM     11  C   UNL     1      -2.980  20.118  68.073  0.00  0.00    +0.253 C 
ATOM     12  O   UNL     1      -3.613  20.314  68.050  0.00  0.00    -0.468 OA
ENDBRANCH   1  12
BRANCH   2  13
ATOM     13  O   UNL     1      -5.001  21.332  70.200  0.00  0.00    -0.468 OA
ATOM     14  C   UNL     1      -4.373  21.116  71.463  0.00  0.00    +0.253 C 
ENDBRANCH   2  13
BRANCH   6  15
ATOM     15  C   UNL     1      -8.452  17.339  67.304  0.00  0.00    +0.008 C 
BRANCH  15  16
ATOM     16  C   UNL     1      -9.494  16.251  67.294  0.00  0.00    +0.003 C 
ATOM     17  C   UNL     1      -9.152  15.107  68.241  0.00  0.00    +0.017 C 
ATOM     18  C   UNL     1     -10.213  14.046  67.988  0.00  0.00    +0.072 C 
ATOM     19  N   UNL     1     -11.460  14.501  68.568  0.00  0.00    -0.269 NA
ATOM     20  C   UNL     1     -11.545  15.924  68.714  0.00  0.00    +0.072 C 
ATOM     21  C   UNL     1     -10.867  16.717  67.650  0.00  0.00    +0.017 C 
BRANCH  19  22
ATOM     22  C   UNL     1     -11.538  13.889  69.890  0.00  0.00    +0.099 C 
BRANCH  22  23
ATOM     23  C   UNL     1     -12.258  14.740  70.860  0.00  0.00    -0.006 A 
ATOM     24  C   UNL     1     -11.518  15.283  71.886  0.00  0.00    -0.003 A 
ATOM     25  C   UNL     1     -12.094  15.724  73.068  0.00  0.00    -0.000 A 
ATOM     26  C   UNL     1     -13.466  15.930  73.114  0.00  0.00    -0.000 A 
ATOM     27  C   UNL     1     -14.204  15.319  72.121  0.00  0.00    -0.000 A 
ATOM     28  C   UNL     1     -13.618  14.709  71.019  0.00  0.00    -0.003 A 
ENDBRANCH  22  23
ENDBRANCH  19  22
ENDBRANCH  15  16
ENDBRANCH   6  15
TORSDOF 6
ENDMDL
MODEL 7
REMARK VINA RESULT:      -6.6      4.861     10.189
REMARK  Name = 
REMARK  6 active torsions:
REMARK  status: ('A' for Active; 'I' for Inactive)
REMARK    1  A    between atoms: O_2  and  C_3
REMARK    2  A    between atoms: C_8  and  O_9
REMARK    3  A    between atoms: C_13  and  C_14
REMARK    4  A    between atoms: C_14  and  C_15
REMARK    5  A    between atoms: N_18  and  C_19
REMARK    6  A    between atoms: C_19  and  C_20
REMARK                            x       y       z     vdW  Elec       q    Type
REMARK                         _______ _______ _______ _____ _____    ______ ____
ROOT
ATOM      1  C   UNL     1     -10.775   6.214  67.513  0.00  0.00    +0.172 A 
ATOM      2  C   UNL     1     -10.802   5.981  68.882  0.00  0.00    +0.172 A 
ATOM      3  C   UNL     1     -10.874   7.115  69.675  0.00  0.00    +0.043 A 
ATOM      4  C   UNL     1     -10.565   8.381  69.187  0.00  0.00    +0.034 A 
ATOM      5  C   UNL     1     -10.177   9.533  69.944  0.00  0.00    +0.173 C 
ATOM      6  C   UNL     1      -9.891  10.693  68.853  0.00  0.00    +0.066 C 
ATOM      7  C   UNL     1      -9.272   9.623  67.760  0.00  0.00    +0.034 C 
ATOM      8  O   UNL     1      -9.676   9.650  71.104  0.00  0.00    -0.291 OA
ATOM      9  C   UNL     1     -10.270   8.546  67.858  0.00  0.00    -0.016 A 
ATOM     10  C   UNL     1     -10.584   7.503  67.030  0.00  0.00    +0.036 A 
ENDROOT
BRANCH   1  12
ATOM     11  C   UNL     1     -10.486   4.886  66.089  0.00  0.00    +0.253 C 
ATOM     12  O   UNL     1     -10.736   5.104  66.663  0.00  0.00    -0.468 OA
ENDBRANCH   1  12
BRANCH   2  13
ATOM     13  O   UNL     1     -10.286   4.772  69.360  0.00  0.00    -0.468 OA
ATOM     14  C   UNL     1      -9.360   4.822  70.444  0.00  0.00    +0.253 C 
ENDBRANCH   2  13
BRANCH   6  15
ATOM     15  C   UNL     1     -11.412  10.575  68.222  0.00  0.00    +0.008 C 
BRANCH  15  16
ATOM     16  C   UNL     1     -11.712  12.012  67.884  0.00  0.00    +0.003 C 
ATOM     17  C   UNL     1     -11.093  12.987  68.878  0.00  0.00    +0.017 C 
ATOM     18  C   UNL     1     -11.621  14.358  68.478  0.00  0.00    +0.072 C 
ATOM     19  N   UNL     1     -10.952  14.766  67.259  0.00  0.00    -0.269 NA
ATOM     20  C   UNL     1     -10.441  13.673  66.485  0.00  0.00    +0.072 C 
ATOM     21  C   UNL     1     -11.258  12.427  66.523  0.00  0.00    +0.017 C 
BRANCH  19  22
ATOM     22  C   UNL     1      -9.835  15.608  67.674  0.00  0.00    +0.099 C 
BRANCH  22  23
ATOM     23  C   UNL     1     -10.164  17.047  67.612  0.00  0.00    -0.006 A 
ATOM     24  C   UNL     1     -10.410  17.579  66.367  0.00  0.00    -0.003 A 
ATOM     25  C   UNL     1     -10.307  18.937  66.103  0.00  0.00    -0.000 A 
ATOM     26  C   UNL     1     -10.272  19.830  67.165  0.00  0.00    -0.000 A 
ATOM     27  C   UNL     1      -9.951  19.295  68.397  0.00  0.00    -0.000 A 
ATOM     28  C   UNL     1      -9.872  17.925  68.621  0.00  0.00    -0.003 A 
ENDBRANCH  22  23
ENDBRANCH  19  22
ENDBRANCH  15  16
ENDBRANCH   6  15
TORSDOF 6
ENDMDL
MODEL 8
REMARK VINA RESULT:      -6.6      2.925      5.058
REMARK  Name = 
REMARK  6 active torsions:
REMARK  status: ('A' for Active; 'I' for Inactive)
REMARK    1  A    between atoms: O_2  and  C_3
REMARK    2  A    between atoms: C_8  and  O_9
REMARK    3  A    between atoms: C_13  and  C_14
REMARK    4  A    between atoms: C_14  and  C_15
REMARK    5  A    between atoms: N_18  and  C_19
REMARK    6  A    between atoms: C_19  and  C_20
REMARK                            x       y       z     vdW  Elec       q    Type
REMARK                         _______ _______ _______ _____ _____    ______ ____
ROOT
ATOM      1  C   UNL     1     -10.937  16.184  68.164  0.00  0.00    +0.172 A 
ATOM      2  C   UNL     1     -11.287  15.570  69.360  0.00  0.00    +0.172 A 
ATOM      3  C   UNL     1     -11.266  14.185  69.344  0.00  0.00    +0.043 A 
ATOM      4  C   UNL     1     -11.272  13.458  68.157  0.00  0.00    +0.034 A 
ATOM      5  C   UNL     1     -11.681  12.098  67.974  0.00  0.00    +0.173 C 
ATOM      6  C   UNL     1     -11.527  11.809  66.390  0.00  0.00    +0.066 C 
ATOM      7  C   UNL     1     -11.988  13.341  65.984  0.00  0.00    +0.034 C 
ATOM      8  O   UNL     1     -12.437  11.345  68.660  0.00  0.00    -0.291 OA
ATOM      9  C   UNL     1     -11.199  14.114  66.956  0.00  0.00    -0.016 A 
ATOM     10  C   UNL     1     -10.828  15.430  67.002  0.00  0.00    +0.036 A 
ENDROOT
BRANCH   1  12
ATOM     11  C   UNL     1     -10.563  18.098  67.903  0.00  0.00    +0.253 C 
ATOM     12  O   UNL     1     -10.909  17.582  68.133  0.00  0.00    -0.468 OA
ENDBRANCH   1  12
BRANCH   2  13
ATOM     13  O   UNL     1     -12.063  16.291  70.275  0.00  0.00    -0.468 OA
ATOM     14  C   UNL     1     -12.963  15.563  71.108  0.00  0.00    +0.253 C 
ENDBRANCH   2  13
BRANCH   6  15
ATOM     15  C   UNL     1      -9.926  12.211  66.398  0.00  0.00    +0.008 C 
BRANCH  15  16
ATOM     16  C   UNL     1      -9.273  10.855  66.480  0.00  0.00    +0.003 C 
ATOM     17  C   UNL     1      -8.535  10.642  67.796  0.00  0.00    +0.017 C 
ATOM     18  C   UNL     1      -7.819   9.308  67.642  0.00  0.00    +0.072 C 
ATOM     19  N   UNL     1      -8.805   8.249  67.721  0.00  0.00    -0.269 NA
ATOM     20  C   UNL     1     -10.132   8.668  67.380  0.00  0.00    +0.072 C 
ATOM     21  C   UNL     1     -10.220   9.712  66.319  0.00  0.00    +0.017 C 
BRANCH  19  22
ATOM     22  C   UNL     1      -8.800   7.794  69.106  0.00  0.00    +0.099 C 
BRANCH  22  23
ATOM     23  C   UNL     1     -10.132   7.901  69.737  0.00  0.00    -0.006 A 
ATOM     24  C   UNL     1     -10.382   9.032  70.482  0.00  0.00    -0.003 A 
ATOM     25  C   UNL     1     -11.374   9.081  71.450  0.00  0.00    -0.000 A 
ATOM     26  C   UNL     1     -12.353   8.097  71.465  0.00  0.00    -0.000 A 
ATOM     27  C   UNL     1     -12.058   6.939  70.775  0.00  0.00    -0.000 A 
ATOM     28  C   UNL     1     -10.952   6.824  69.940  0.00  0.00    -0.003 A 
ENDBRANCH  22  23
ENDBRANCH  19  22
ENDBRANCH  15  16
ENDBRANCH   6  15
TORSDOF 6
ENDMDL
MODEL 9
REMARK VINA RESULT:      -6.5      1.839      2.867
REMARK  Name = 
REMARK  6 active torsions:
REMARK  status: ('A' for Active; 'I' for Inactive)
REMARK    1  A    between atoms: O_2  and  C_3
REMARK    2  A    between atoms: C_8  and  O_9
REMARK    3  A    between atoms: C_13  and  C_14
REMARK    4  A    between atoms: C_14  and  C_15
REMARK    5  A    between atoms: N_18  and  C_19
REMARK    6  A    between atoms: C_19  and  C_20
REMARK                            x       y       z     vdW  Elec       q    Type
REMARK                         _______ _______ _______ _____ _____    ______ ____
ROOT
ATOM      1  C   UNL     1      -8.108  17.678  66.459  0.00  0.00    +0.172 A 
ATOM      2  C   UNL     1      -8.563  18.274  67.629  0.00  0.00    +0.172 A 
ATOM      3  C   UNL     1      -9.394  17.486  68.410  0.00  0.00    +0.043 A 
ATOM      4  C   UNL     1     -10.030  16.355  67.907  0.00  0.00    +0.034 A 
ATOM      5  C   UNL     1     -11.205  15.719  68.422  0.00  0.00    +0.173 C 
ATOM      6  C   UNL     1     -11.513  14.496  67.410  0.00  0.00    +0.066 C 
ATOM      7  C   UNL     1     -11.003  15.349  66.094  0.00  0.00    +0.034 C 
ATOM      8  O   UNL     1     -12.142  16.151  69.161  0.00  0.00    -0.291 OA
ATOM      9  C   UNL     1      -9.764  15.935  66.630  0.00  0.00    -0.016 A 
ATOM     10  C   UNL     1      -8.667  16.483  66.023  0.00  0.00    +0.036 A 
ENDROOT
BRANCH   1  12
ATOM     11  C   UNL     1      -6.597  18.517  65.516  0.00  0.00    +0.253 C 
ATOM     12  O   UNL     1      -7.239  18.416  65.648  0.00  0.00    -0.468 OA
ENDBRANCH   1  12
BRANCH   2  13
ATOM     13  O   UNL     1      -8.581  19.671  67.700  0.00  0.00    -0.468 OA
ATOM     14  C   UNL     1      -9.785  20.344  67.335  0.00  0.00    +0.253 C 
ENDBRANCH   2  13
BRANCH   6  15
ATOM     15  C   UNL     1     -10.023  13.826  67.650  0.00  0.00    +0.008 C 
BRANCH  15  16
ATOM     16  C   UNL     1     -10.371  12.374  67.845  0.00  0.00    +0.003 C 
ATOM     17  C   UNL     1      -9.242  11.586  68.498  0.00  0.00    +0.017 C 
ATOM     18  C   UNL     1      -9.699  10.134  68.473  0.00  0.00    +0.072 C 
ATOM     19  N   UNL     1     -10.742   9.967  69.465  0.00  0.00    -0.269 NA
ATOM     20  C   UNL     1     -11.428  11.182  69.793  0.00  0.00    +0.072 C 
ATOM     21  C   UNL     1     -11.596  12.144  68.666  0.00  0.00    +0.017 C 
BRANCH  19  22
ATOM     22  C   UNL     1     -10.081   9.465  70.665  0.00  0.00    +0.099 C 
BRANCH  22  23
ATOM     23  C   UNL     1     -10.725   8.243  71.189  0.00  0.00    -0.006 A 
ATOM     24  C   UNL     1     -10.732   8.077  72.556  0.00  0.00    -0.003 A 
ATOM     25  C   UNL     1     -10.899   6.837  73.155  0.00  0.00    -0.000 A 
ATOM     26  C   UNL     1     -11.389   5.782  72.398  0.00  0.00    -0.000 A 
ATOM     27  C   UNL     1     -11.308   5.930  71.028  0.00  0.00    -0.000 A 
ATOM     28  C   UNL     1     -10.958   7.132  70.423  0.00  0.00    -0.003 A 
ENDBRANCH  22  23
ENDBRANCH  19  22
ENDBRANCH  15  16
ENDBRANCH   6  15
TORSDOF 6
ENDMDL
