MODEL 1
REMARK VINA RESULT:      -5.6      0.000      0.000
REMARK  Name = 
REMARK  7 active torsions:
REMARK  status: ('A' for Active; 'I' for Inactive)
REMARK    1  A    between atoms: C_2  and  C_3
REMARK    2  A    between atoms: C_3  and  C_4
REMARK    3  A    between atoms: C_3  and  C_6
REMARK    4  A    between atoms: C_6  and  N_7
REMARK    5  A    between atoms: C_6  and  C_11
REMARK    6  A    between atoms: C_12  and  N_13
REMARK    7  A    between atoms: C_18  and  C_19
REMARK                            x       y       z     vdW  Elec       q    Type
REMARK                         _______ _______ _______ _____ _____    ______ ____
ROOT
ATOM      1  C   UNL     1     -11.970  15.317  69.013  0.00  0.00    +0.091 C 
ATOM      2  C   UNL     1     -12.484  15.801  70.531  0.00  0.00    +0.168 C 
ATOM      3  O   UNL     1     -11.310  16.647  70.944  0.00  0.00    -0.222 OA
ATOM      4  C   UNL     1     -11.845  14.475  71.372  0.00  0.00    +0.137 C 
ATOM      5  C   UNL     1     -12.675  13.493  70.384  0.00  0.00    +0.057 C 
ATOM      6  C   UNL     1     -11.367  13.824  69.460  0.00  0.00    +0.186 C 
ENDROOT
BRANCH   6   7
ATOM      7  N   UNL     1     -11.969  13.117  68.205  0.00  0.00    -0.090 NA
ATOM      8  C   UNL     1     -11.429  12.027  67.807  0.00  0.00    +0.534 C 
ATOM      9  N   UNL     1     -12.064  10.856  68.346  0.00  0.00    +0.135 NA
ATOM     10  N   UNL     1     -11.167  11.928  66.397  0.00  0.00    +0.135 NA
ENDBRANCH   6   7
BRANCH   4  11
ATOM     11  C   UNL     1     -12.976  14.485  72.488  0.00  0.00    +0.367 C 
ATOM     12  O   UNL     1     -13.956  13.555  72.230  0.00  0.00    -0.246 OA
ATOM     13  O   UNL     1     -12.856  15.137  73.520  0.00  0.00    -0.246 OA
ENDBRANCH   4  11
BRANCH   1  14
ATOM     14  C   UNL     1     -10.441  16.013  68.989  0.00  0.00    +0.101 C 
BRANCH  14  15
ATOM     15  N   UNL     1     -10.868  17.136  67.991  0.00  0.00    -0.207 NA
ATOM     16  C   UNL     1     -10.275  18.383  68.038  0.00  0.00    +0.242 C 
ATOM     17  O   UNL     1      -9.362  18.647  68.834  0.00  0.00    -0.273 OA
ATOM     18  C   UNL     1     -10.740  19.562  67.252  0.00  0.00    +0.096 C 
ENDBRANCH  14  15
BRANCH  14  19
ATOM     19  C   UNL     1      -9.921  15.007  67.814  0.00  0.00    +0.020 C 
BRANCH  19  21
ATOM     20  C   UNL     1     -10.354  15.518  65.741  0.00  0.00    +0.000 C 
ATOM     21  C   UNL     1     -10.380  15.662  66.513  0.00  0.00    +0.002 C 
ENDBRANCH  19  21
BRANCH  19  22
ATOM     22  C   UNL     1      -8.426  15.329  67.811  0.00  0.00    +0.002 C 
ATOM     23  C   UNL     1      -8.048  15.331  69.289  0.00  0.00    +0.000 C 
ENDBRANCH  19  22
ENDBRANCH  14  19
ENDBRANCH   1  14
TORSDOF 7
ENDMDL
MODEL 2
REMARK VINA RESULT:      -5.3      1.929      4.787
REMARK  Name = 
REMARK  7 active torsions:
REMARK  status: ('A' for Active; 'I' for Inactive)
REMARK    1  A    between atoms: C_2  and  C_3
REMARK    2  A    between atoms: C_3  and  C_4
REMARK    3  A    between atoms: C_3  and  C_6
REMARK    4  A    between atoms: C_6  and  N_7
REMARK    5  A    between atoms: C_6  and  C_11
REMARK    6  A    between atoms: C_12  and  N_13
REMARK    7  A    between atoms: C_18  and  C_19
REMARK                            x       y       z     vdW  Elec       q    Type
REMARK                         _______ _______ _______ _____ _____    ______ ____
ROOT
ATOM      1  C   UNL     1     -10.851  14.411  69.340  0.00  0.00    +0.091 C 
ATOM      2  C   UNL     1     -11.605  14.227  70.823  0.00  0.00    +0.168 C 
ATOM      3  O   UNL     1     -12.626  13.181  70.465  0.00  0.00    -0.222 OA
ATOM      4  C   UNL     1     -12.756  15.451  70.596  0.00  0.00    +0.137 C 
ATOM      5  C   UNL     1     -11.545  16.487  70.298  0.00  0.00    +0.057 C 
ATOM      6  C   UNL     1     -11.698  15.762  68.839  0.00  0.00    +0.186 C 
ENDROOT
BRANCH   6   7
ATOM      7  N   UNL     1     -10.417  16.451  68.269  0.00  0.00    -0.090 NA
ATOM      8  C   UNL     1     -10.556  17.289  67.312  0.00  0.00    +0.534 C 
ATOM      9  N   UNL     1     -10.667  18.648  67.767  0.00  0.00    +0.135 NA
ATOM     10  N   UNL     1      -9.655  17.138  66.202  0.00  0.00    +0.135 NA
ENDBRANCH   6   7
BRANCH   4  11
ATOM     11  C   UNL     1     -12.838  15.824  72.139  0.00  0.00    +0.367 C 
ATOM     12  O   UNL     1     -11.802  16.644  72.521  0.00  0.00    -0.246 OA
ATOM     13  O   UNL     1     -13.816  15.535  72.820  0.00  0.00    -0.246 OA
ENDBRANCH   4  11
BRANCH   1  14
ATOM     14  C   UNL     1     -11.793  13.381  68.405  0.00  0.00    +0.101 C 
BRANCH  14  15
ATOM     15  N   UNL     1     -10.746  12.224  68.465  0.00  0.00    -0.207 NA
ATOM     16  C   UNL     1     -11.155  10.910  68.596  0.00  0.00    +0.242 C 
ATOM     17  O   UNL     1     -12.353  10.595  68.631  0.00  0.00    -0.273 OA
ATOM     18  C   UNL     1     -10.231   9.765  68.841  0.00  0.00    +0.096 C 
ENDBRANCH  14  15
BRANCH  14  19
ATOM     19  C   UNL     1     -11.209  13.992  67.010  0.00  0.00    +0.020 C 
BRANCH  19  21
ATOM     20  C   UNL     1      -9.191  13.429  66.413  0.00  0.00    +0.000 C 
ATOM     21  C   UNL     1      -9.844  13.329  66.837  0.00  0.00    +0.002 C 
ENDBRANCH  19  21
BRANCH  19  22
ATOM     22  C   UNL     1     -12.055  13.227  65.992  0.00  0.00    +0.002 C 
ATOM     23  C   UNL     1     -12.407  14.278  64.944  0.00  0.00    +0.000 C 
ENDBRANCH  19  22
ENDBRANCH  14  19
ENDBRANCH   1  14
TORSDOF 7
ENDMDL
MODEL 3
REMARK VINA RESULT:      -5.3      2.939      5.431
REMARK  Name = 
REMARK  7 active torsions:
REMARK  status: ('A' for Active; 'I' for Inactive)
REMARK    1  A    between atoms: C_2  and  C_3
REMARK    2  A    between atoms: C_3  and  C_4
REMARK    3  A    between atoms: C_3  and  C_6
REMARK    4  A    between atoms: C_6  and  N_7
REMARK    5  A    between atoms: C_6  and  C_11
REMARK    6  A    between atoms: C_12  and  N_13
REMARK    7  A    between atoms: C_18  and  C_19
REMARK                            x       y       z     vdW  Elec       q    Type
REMARK                         _______ _______ _______ _____ _____    ______ ____
ROOT
ATOM      1  C   UNL     1     -11.304  14.945  66.895  0.00  0.00    +0.091 C 
ATOM      2  C   UNL     1     -10.721  16.242  66.011  0.00  0.00    +0.168 C 
ATOM      3  O   UNL     1      -9.556  15.583  65.323  0.00  0.00    -0.222 OA
ATOM      4  C   UNL     1      -9.692  16.839  67.219  0.00  0.00    +0.137 C 
ATOM      5  C   UNL     1     -10.962  16.901  68.223  0.00  0.00    +0.057 C 
ATOM      6  C   UNL     1     -10.555  15.322  68.341  0.00  0.00    +0.186 C 
ENDROOT
BRANCH   6   7
ATOM      7  N   UNL     1     -11.824  14.969  69.180  0.00  0.00    -0.090 NA
ATOM      8  C   UNL     1     -11.680  14.761  70.435  0.00  0.00    +0.534 C 
ATOM      9  N   UNL     1     -11.903  15.939  71.229  0.00  0.00    +0.135 NA
ATOM     10  N   UNL     1     -12.333  13.594  70.962  0.00  0.00    +0.135 NA
ENDBRANCH   6   7
BRANCH   4  11
ATOM     11  C   UNL     1      -9.840  18.354  66.764  0.00  0.00    +0.367 C 
ATOM     12  O   UNL     1     -10.821  19.006  67.474  0.00  0.00    -0.246 OA
ATOM     13  O   UNL     1      -9.041  18.877  65.994  0.00  0.00    -0.246 OA
ENDBRANCH   4  11
BRANCH   1  14
ATOM     14  C   UNL     1     -10.148  13.789  66.510  0.00  0.00    +0.101 C 
BRANCH  14  15
ATOM     15  N   UNL     1     -11.174  12.882  65.759  0.00  0.00    -0.207 NA
ATOM     16  C   UNL     1     -10.967  12.526  64.440  0.00  0.00    +0.242 C 
ATOM     17  O   UNL     1      -9.952  12.871  63.817  0.00  0.00    -0.273 OA
ATOM     18  C   UNL     1     -11.973  11.820  63.595  0.00  0.00    +0.096 C 
ENDBRANCH  14  15
BRANCH  14  19
ATOM     19  C   UNL     1     -10.336  13.019  67.935  0.00  0.00    +0.020 C 
BRANCH  19  21
ATOM     20  C   UNL     1     -11.682  11.308  68.012  0.00  0.00    +0.000 C 
ATOM     21  C   UNL     1     -11.386  11.944  67.660  0.00  0.00    +0.002 C 
ENDBRANCH  19  21
BRANCH  19  22
ATOM     22  C   UNL     1      -9.051  12.190  67.978  0.00  0.00    +0.002 C 
ATOM     23  C   UNL     1      -8.018  13.082  67.297  0.00  0.00    +0.000 C 
ENDBRANCH  19  22
ENDBRANCH  14  19
ENDBRANCH   1  14
TORSDOF 7
ENDMDL
MODEL 4
REMARK VINA RESULT:      -5.2      3.359      5.697
REMARK  Name = 
REMARK  7 active torsions:
REMARK  status: ('A' for Active; 'I' for Inactive)
REMARK    1  A    between atoms: C_2  and  C_3
REMARK    2  A    between atoms: C_3  and  C_4
REMARK    3  A    between atoms: C_3  and  C_6
REMARK    4  A    between atoms: C_6  and  N_7
REMARK    5  A    between atoms: C_6  and  C_11
REMARK    6  A    between atoms: C_12  and  N_13
REMARK    7  A    between atoms: C_18  and  C_19
REMARK                            x       y       z     vdW  Elec       q    Type
REMARK                         _______ _______ _______ _____ _____    ______ ____
ROOT
ATOM      1  C   UNL     1     -10.280  13.096  66.226  0.00  0.00    +0.091 C 
ATOM      2  C   UNL     1      -9.609  14.616  66.021  0.00  0.00    +0.168 C 
ATOM      3  O   UNL     1      -9.149  14.887  67.428  0.00  0.00    -0.222 OA
ATOM      4  C   UNL     1     -11.038  15.485  66.304  0.00  0.00    +0.137 C 
ATOM      5  C   UNL     1     -11.753  14.625  65.131  0.00  0.00    +0.057 C 
ATOM      6  C   UNL     1     -11.869  13.586  66.389  0.00  0.00    +0.186 C 
ENDROOT
BRANCH   6   7
ATOM      7  N   UNL     1     -12.402  12.425  65.490  0.00  0.00    -0.090 NA
ATOM      8  C   UNL     1     -11.932  12.313  64.305  0.00  0.00    +0.534 C 
ATOM      9  N   UNL     1     -10.820  11.405  64.224  0.00  0.00    +0.135 NA
ATOM     10  N   UNL     1     -12.898  12.117  63.257  0.00  0.00    +0.135 NA
ENDBRANCH   6   7
BRANCH   4  11
ATOM     11  C   UNL     1     -10.643  16.681  65.335  0.00  0.00    +0.367 C 
ATOM     12  O   UNL     1     -11.366  16.649  64.165  0.00  0.00    -0.246 OA
ATOM     13  O   UNL     1      -9.907  17.591  65.701  0.00  0.00    -0.246 OA
ENDBRANCH   4  11
BRANCH   1  14
ATOM     14  C   UNL     1     -10.087  12.914  67.885  0.00  0.00    +0.101 C 
BRANCH  14  15
ATOM     15  N   UNL     1      -9.061  11.747  67.729  0.00  0.00    -0.207 NA
ATOM     16  C   UNL     1      -7.782  11.859  68.241  0.00  0.00    +0.242 C 
ATOM     17  O   UNL     1      -7.412  12.860  68.873  0.00  0.00    -0.273 OA
ATOM     18  C   UNL     1      -6.688  10.879  67.985  0.00  0.00    +0.096 C 
ENDBRANCH  14  15
BRANCH  14  19
ATOM     19  C   UNL     1     -11.375  11.920  68.001  0.00  0.00    +0.020 C 
BRANCH  19  21
ATOM     20  C   UNL     1     -11.055   9.777  67.782  0.00  0.00    +0.000 C 
ATOM     21  C   UNL     1     -10.808  10.522  67.763  0.00  0.00    +0.002 C 
ENDBRANCH  19  21
BRANCH  19  22
ATOM     22  C   UNL     1     -11.588  11.913  69.516  0.00  0.00    +0.002 C 
ATOM     23  C   UNL     1     -11.919  13.365  69.846  0.00  0.00    +0.000 C 
ENDBRANCH  19  22
ENDBRANCH  14  19
ENDBRANCH   1  14
TORSDOF 7
ENDMDL
MODEL 5
REMARK VINA RESULT:      -5.1      3.489      6.106
REMARK  Name = 
REMARK  7 active torsions:
REMARK  status: ('A' for Active; 'I' for Inactive)
REMARK    1  A    between atoms: C_2  and  C_3
REMARK    2  A    between atoms: C_3  and  C_4
REMARK    3  A    between atoms: C_3  and  C_6
REMARK    4  A    between atoms: C_6  and  N_7
REMARK    5  A    between atoms: C_6  and  C_11
REMARK    6  A    between atoms: C_12  and  N_13
REMARK    7  A    between atoms: C_18  and  C_19
REMARK                            x       y       z     vdW  Elec       q    Type
REMARK                         _______ _______ _______ _____ _____    ______ ____
ROOT
ATOM      1  C   UNL     1     -11.804  14.024  67.191  0.00  0.00    +0.091 C 
ATOM      2  C   UNL     1     -12.091  12.807  66.078  0.00  0.00    +0.168 C 
ATOM      3  O   UNL     1     -11.187  11.737  66.627  0.00  0.00    -0.222 OA
ATOM      4  C   UNL     1     -10.890  13.280  64.977  0.00  0.00    +0.137 C 
ATOM      5  C   UNL     1     -11.563  14.753  64.929  0.00  0.00    +0.057 C 
ATOM      6  C   UNL     1     -10.673  14.867  66.296  0.00  0.00    +0.186 C 
ENDROOT
BRANCH   6   7
ATOM      7  N   UNL     1     -11.284  16.252  66.680  0.00  0.00    -0.090 NA
ATOM      8  C   UNL     1     -10.499  17.260  66.754  0.00  0.00    +0.534 C 
ATOM      9  N   UNL     1     -10.435  18.014  65.532  0.00  0.00    +0.135 NA
ATOM     10  N   UNL     1     -10.642  18.089  67.921  0.00  0.00    +0.135 NA
ENDBRANCH   6   7
BRANCH   4  11
ATOM     11  C   UNL     1     -11.684  12.757  63.704  0.00  0.00    +0.367 C 
ATOM     12  O   UNL     1     -12.523  13.721  63.195  0.00  0.00    -0.246 OA
ATOM     13  O   UNL     1     -11.419  11.683  63.176  0.00  0.00    -0.246 OA
ENDBRANCH   4  11
BRANCH   1  14
ATOM     14  C   UNL     1     -10.624  13.286  68.131  0.00  0.00    +0.101 C 
BRANCH  14  15
ATOM     15  N   UNL     1     -11.594  13.062  69.334  0.00  0.00    -0.207 NA
ATOM     16  C   UNL     1     -11.661  11.834  69.965  0.00  0.00    +0.242 C 
ATOM     17  O   UNL     1     -10.936  10.885  69.636  0.00  0.00    -0.273 OA
ATOM     18  C   UNL     1     -12.678  11.477  70.996  0.00  0.00    +0.096 C 
ENDBRANCH  14  15
BRANCH  14  19
ATOM     19  C   UNL     1     -10.073  14.715  68.692  0.00  0.00    +0.020 C 
BRANCH  19  21
ATOM     20  C   UNL     1     -10.976  15.529  70.500  0.00  0.00    +0.000 C 
ATOM     21  C   UNL     1     -10.848  14.947  69.987  0.00  0.00    +0.002 C 
ENDBRANCH  19  21
BRANCH  19  22
ATOM     22  C   UNL     1      -8.702  14.297  69.225  0.00  0.00    +0.002 C 
ATOM     23  C   UNL     1      -7.773  15.417  68.764  0.00  0.00    +0.000 C 
ENDBRANCH  19  22
ENDBRANCH  14  19
ENDBRANCH   1  14
TORSDOF 7
ENDMDL
MODEL 6
REMARK VINA RESULT:      -5.0      3.038      5.460
REMARK  Name = 
REMARK  7 active torsions:
REMARK  status: ('A' for Active; 'I' for Inactive)
REMARK    1  A    between atoms: C_2  and  C_3
REMARK    2  A    between atoms: C_3  and  C_4
REMARK    3  A    between atoms: C_3  and  C_6
REMARK    4  A    between atoms: C_6  and  N_7
REMARK    5  A    between atoms: C_6  and  C_11
REMARK    6  A    between atoms: C_12  and  N_13
REMARK    7  A    between atoms: C_18  and  C_19
REMARK                            x       y       z     vdW  Elec       q    Type
REMARK                         _______ _______ _______ _____ _____    ______ ____
ROOT
ATOM      1  C   UNL     1     -10.888  15.371  67.305  0.00  0.00    +0.091 C 
ATOM      2  C   UNL     1     -12.016  14.353  66.603  0.00  0.00    +0.168 C 
ATOM      3  O   UNL     1     -11.651  13.059  67.279  0.00  0.00    -0.222 OA
ATOM      4  C   UNL     1     -11.071  13.935  65.257  0.00  0.00    +0.137 C 
ATOM      5  C   UNL     1     -10.915  15.513  64.920  0.00  0.00    +0.057 C 
ATOM      6  C   UNL     1      -9.765  15.328  66.069  0.00  0.00    +0.186 C 
ENDROOT
BRANCH   6   7
ATOM      7  N   UNL     1      -9.489  16.862  66.159  0.00  0.00    -0.090 NA
ATOM      8  C   UNL     1     -10.481  17.645  66.363  0.00  0.00    +0.534 C 
ATOM      9  N   UNL     1     -10.682  17.947  67.754  0.00  0.00    +0.135 NA
ATOM     10  N   UNL     1     -10.556  18.805  65.517  0.00  0.00    +0.135 NA
ENDBRANCH   6   7
BRANCH   4  11
ATOM     11  C   UNL     1     -12.318  13.742  64.292  0.00  0.00    +0.367 C 
ATOM     12  O   UNL     1     -12.654  14.913  63.652  0.00  0.00    -0.246 OA
ATOM     13  O   UNL     1     -12.780  12.632  64.050  0.00  0.00    -0.246 OA
ENDBRANCH   4  11
BRANCH   1  14
ATOM     14  C   UNL     1     -10.029  14.261  68.227  0.00  0.00    +0.101 C 
BRANCH  14  15
ATOM     15  N   UNL     1     -10.191  15.091  69.541  0.00  0.00    -0.207 NA
ATOM     16  C   UNL     1     -11.259  14.867  70.389  0.00  0.00    +0.242 C 
ATOM     17  O   UNL     1     -12.100  13.983  70.168  0.00  0.00    -0.273 OA
ATOM     18  C   UNL     1     -11.592  15.726  71.562  0.00  0.00    +0.096 C 
ENDBRANCH  14  15
BRANCH  14  19
ATOM     19  C   UNL     1      -8.596  14.937  67.841  0.00  0.00    +0.020 C 
BRANCH  19  21
ATOM     20  C   UNL     1      -7.342  15.707  69.447  0.00  0.00    +0.000 C 
ATOM     21  C   UNL     1      -8.002  15.377  69.177  0.00  0.00    +0.002 C 
ENDBRANCH  19  21
BRANCH  19  22
ATOM     22  C   UNL     1      -7.770  13.688  67.532  0.00  0.00    +0.002 C 
ATOM     23  C   UNL     1      -8.581  12.552  68.150  0.00  0.00    +0.000 C 
ENDBRANCH  19  22
ENDBRANCH  14  19
ENDBRANCH   1  14
TORSDOF 7
ENDMDL
MODEL 7
REMARK VINA RESULT:      -4.9      3.293      4.853
REMARK  Name = 
REMARK  7 active torsions:
REMARK  status: ('A' for Active; 'I' for Inactive)
REMARK    1  A    between atoms: C_2  and  C_3
REMARK    2  A    between atoms: C_3  and  C_4
REMARK    3  A    between atoms: C_3  and  C_6
REMARK    4  A    between atoms: C_6  and  N_7
REMARK    5  A    between atoms: C_6  and  C_11
REMARK    6  A    between atoms: C_12  and  N_13
REMARK    7  A    between atoms: C_18  and  C_19
REMARK                            x       y       z     vdW  Elec       q    Type
REMARK                         _______ _______ _______ _____ _____    ______ ____
ROOT
ATOM      1  C   UNL     1      -9.995  14.045  66.570  0.00  0.00    +0.091 C 
ATOM      2  C   UNL     1     -10.418  14.128  64.953  0.00  0.00    +0.168 C 
ATOM      3  O   UNL     1     -10.704  15.601  64.836  0.00  0.00    -0.222 OA
ATOM      4  C   UNL     1     -12.069  13.810  65.180  0.00  0.00    +0.137 C 
ATOM      5  C   UNL     1     -11.664  12.448  65.961  0.00  0.00    +0.057 C 
ATOM      6  C   UNL     1     -11.482  13.552  67.153  0.00  0.00    +0.186 C 
ENDROOT
BRANCH   6   7
ATOM      7  N   UNL     1     -10.843  12.516  68.132  0.00  0.00    -0.090 NA
ATOM      8  C   UNL     1     -11.610  11.654  68.685  0.00  0.00    +0.534 C 
ATOM      9  N   UNL     1     -11.677  10.414  67.961  0.00  0.00    +0.135 NA
ATOM     10  N   UNL     1     -11.440  11.472  70.101  0.00  0.00    +0.135 NA
ENDBRANCH   6   7
BRANCH   4  11
ATOM     11  C   UNL     1     -12.243  13.082  63.778  0.00  0.00    +0.367 C 
ATOM     12  O   UNL     1     -12.021  11.727  63.876  0.00  0.00    -0.246 OA
ATOM     13  O   UNL     1     -12.690  13.669  62.799  0.00  0.00    -0.246 OA
ENDBRANCH   4  11
BRANCH   1  14
ATOM     14  C   UNL     1     -10.261  15.641  67.022  0.00  0.00    +0.101 C 
BRANCH  14  15
ATOM     15  N   UNL     1      -8.752  16.022  66.902  0.00  0.00    -0.207 NA
ATOM     16  C   UNL     1      -8.373  17.241  66.371  0.00  0.00    +0.242 C 
ATOM     17  O   UNL     1      -9.203  18.088  66.012  0.00  0.00    -0.273 OA
ATOM     18  C   UNL     1      -6.965  17.614  66.053  0.00  0.00    +0.096 C 
ENDBRANCH  14  15
BRANCH  14  19
ATOM     19  C   UNL     1     -10.163  15.285  68.612  0.00  0.00    +0.020 C 
BRANCH  19  21
ATOM     20  C   UNL     1      -8.156  15.097  69.436  0.00  0.00    +0.000 C 
ATOM     21  C   UNL     1      -8.680  15.420  68.947  0.00  0.00    +0.002 C 
ENDBRANCH  19  21
BRANCH  19  22
ATOM     22  C   UNL     1     -10.735  16.566  69.221  0.00  0.00    +0.002 C 
ATOM     23  C   UNL     1     -11.582  16.069  70.389  0.00  0.00    +0.000 C 
ENDBRANCH  19  22
ENDBRANCH  14  19
ENDBRANCH   1  14
TORSDOF 7
ENDMDL
MODEL 8
REMARK VINA RESULT:      -4.9      3.292      4.991
REMARK  Name = 
REMARK  7 active torsions:
REMARK  status: ('A' for Active; 'I' for Inactive)
REMARK    1  A    between atoms: C_2  and  C_3
REMARK    2  A    between atoms: C_3  and  C_4
REMARK    3  A    between atoms: C_3  and  C_6
REMARK    4  A    between atoms: C_6  and  N_7
REMARK    5  A    between atoms: C_6  and  C_11
REMARK    6  A    between atoms: C_12  and  N_13
REMARK    7  A    between atoms: C_18  and  C_19
REMARK                            x       y       z     vdW  Elec       q    Type
REMARK                         _______ _______ _______ _____ _____    ______ ____
ROOT
ATOM      1  C   UNL     1      -9.637  15.379  67.388  0.00  0.00    +0.091 C 
ATOM      2  C   UNL     1      -9.999  14.537  65.987  0.00  0.00    +0.168 C 
ATOM      3  O   UNL     1      -9.770  15.622  64.969  0.00  0.00    -0.222 OA
ATOM      4  C   UNL     1     -11.661  14.874  65.995  0.00  0.00    +0.137 C 
ATOM      5  C   UNL     1     -11.743  14.255  67.491  0.00  0.00    +0.057 C 
ATOM      6  C   UNL     1     -11.206  15.767  67.812  0.00  0.00    +0.186 C 
ENDROOT
BRANCH   6   7
ATOM      7  N   UNL     1     -10.961  15.450  69.322  0.00  0.00    -0.090 NA
ATOM      8  C   UNL     1     -11.935  15.599  70.138  0.00  0.00    +0.534 C 
ATOM      9  N   UNL     1     -12.675  14.386  70.358  0.00  0.00    +0.135 NA
ATOM     10  N   UNL     1     -11.640  16.309  71.353  0.00  0.00    +0.135 NA
ENDBRANCH   6   7
BRANCH   4  11
ATOM     11  C   UNL     1     -12.062  13.507  65.291  0.00  0.00    +0.367 C 
ATOM     12  O   UNL     1     -12.172  12.479  66.199  0.00  0.00    -0.246 OA
ATOM     13  O   UNL     1     -12.392  13.463  64.111  0.00  0.00    -0.246 OA
ENDBRANCH   4  11
BRANCH   1  14
ATOM     14  C   UNL     1      -9.353  16.904  66.746  0.00  0.00    +0.101 C 
BRANCH  14  15
ATOM     15  N   UNL     1      -7.836  16.878  67.119  0.00  0.00    -0.207 NA
ATOM     16  C   UNL     1      -6.892  17.420  66.268  0.00  0.00    +0.242 C 
ATOM     17  O   UNL     1      -7.206  17.980  65.208  0.00  0.00    -0.273 OA
ATOM     18  C   UNL     1      -5.419  17.281  66.454  0.00  0.00    +0.096 C 
ENDBRANCH  14  15
BRANCH  14  19
ATOM     19  C   UNL     1      -9.797  17.650  68.127  0.00  0.00    +0.020 C 
BRANCH  19  21
ATOM     20  C   UNL     1      -8.431  19.122  68.971  0.00  0.00    +0.000 C 
ATOM     21  C   UNL     1      -8.593  18.508  68.509  0.00  0.00    +0.002 C 
ENDBRANCH  19  21
BRANCH  19  22
ATOM     22  C   UNL     1     -10.763  18.701  67.580  0.00  0.00    +0.002 C 
ATOM     23  C   UNL     1     -10.410  18.787  66.098  0.00  0.00    +0.000 C 
ENDBRANCH  19  22
ENDBRANCH  14  19
ENDBRANCH   1  14
TORSDOF 7
ENDMDL
MODEL 9
REMARK VINA RESULT:      -4.9      2.870      4.745
REMARK  Name = 
REMARK  7 active torsions:
REMARK  status: ('A' for Active; 'I' for Inactive)
REMARK    1  A    between atoms: C_2  and  C_3
REMARK    2  A    between atoms: C_3  and  C_4
REMARK    3  A    between atoms: C_3  and  C_6
REMARK    4  A    between atoms: C_6  and  N_7
REMARK    5  A    between atoms: C_6  and  C_11
REMARK    6  A    between atoms: C_12  and  N_13
REMARK    7  A    between atoms: C_18  and  C_19
REMARK                            x       y       z     vdW  Elec       q    Type
REMARK                         _______ _______ _______ _____ _____    ______ ____
ROOT
ATOM      1  C   UNL     1     -11.665  12.684  67.655  0.00  0.00    +0.091 C 
ATOM      2  C   UNL     1     -11.641  14.355  67.577  0.00  0.00    +0.168 C 
ATOM      3  O   UNL     1     -10.308  14.563  66.910  0.00  0.00    -0.222 OA
ATOM      4  C   UNL     1     -10.935  14.599  69.100  0.00  0.00    +0.137 C 
ATOM      5  C   UNL     1     -12.130  13.722  69.755  0.00  0.00    +0.057 C 
ATOM      6  C   UNL     1     -11.131  12.537  69.231  0.00  0.00    +0.186 C 
ENDROOT
BRANCH   6   7
ATOM      7  N   UNL     1     -12.160  11.408  69.558  0.00  0.00    -0.090 NA
ATOM      8  C   UNL     1     -12.108  10.858  70.713  0.00  0.00    +0.534 C 
ATOM      9  N   UNL     1     -12.993  11.468  71.667  0.00  0.00    +0.135 NA
ATOM     10  N   UNL     1     -12.161   9.421  70.732  0.00  0.00    +0.135 NA
ENDBRANCH   6   7
BRANCH   4  11
ATOM     11  C   UNL     1     -11.669  15.985  69.351  0.00  0.00    +0.367 C 
ATOM     12  O   UNL     1     -12.655  15.875  70.304  0.00  0.00    -0.246 OA
ATOM     13  O   UNL     1     -11.257  17.030  68.859  0.00  0.00    -0.246 OA
ENDBRANCH   4  11
BRANCH   1  14
ATOM     14  C   UNL     1     -10.145  12.341  67.028  0.00  0.00    +0.101 C 
BRANCH  14  15
ATOM     15  N   UNL     1     -10.724  11.550  65.813  0.00  0.00    -0.207 NA
ATOM     16  C   UNL     1     -10.738  12.109  64.549  0.00  0.00    +0.242 C 
ATOM     17  O   UNL     1     -10.260  13.230  64.321  0.00  0.00    -0.273 OA
ATOM     18  C   UNL     1     -11.429  11.506  63.373  0.00  0.00    +0.096 C 
ENDBRANCH  14  15
BRANCH  14  19
ATOM     19  C   UNL     1      -9.977  11.013  67.960  0.00  0.00    +0.020 C 
BRANCH  19  21
ATOM     20  C   UNL     1     -10.531   9.081  67.120  0.00  0.00    +0.000 C 
ATOM     21  C   UNL     1     -10.497   9.866  67.097  0.00  0.00    +0.002 C 
ENDBRANCH  19  21
BRANCH  19  22
ATOM     22  C   UNL     1      -8.465  10.801  67.877  0.00  0.00    +0.002 C 
ATOM     23  C   UNL     1      -7.894  12.214  67.930  0.00  0.00    +0.000 C 
ENDBRANCH  19  22
ENDBRANCH  14  19
ENDBRANCH   1  14
TORSDOF 7
ENDMDL
