MODEL 1
REMARK VINA RESULT:      -4.6      0.000      0.000
REMARK  Name = 
REMARK  2 active torsions:
REMARK  status: ('A' for Active; 'I' for Inactive)
REMARK    1  A    between atoms: C_2  and  C_3
REMARK    2  A    between atoms: C_3  and  C_4
REMARK                            x       y       z     vdW  Elec       q    Type
REMARK                         _______ _______ _______ _____ _____    ______ ____
ROOT
ATOM      1  C   UNL     1     -12.912  13.148  71.639  0.00  0.00    +0.066 A 
ATOM      2  N   UNL     1     -12.103  13.626  70.688  0.00  0.00    -0.225 NA
ATOM      3  C   UNL     1     -12.267  14.900  70.262  0.00  0.00    +0.203 A 
ATOM      4  S   UNL     1     -11.651  15.319  68.799  0.00  0.00    -0.009 S 
ATOM      5  N   UNL     1     -13.080  15.746  70.912  0.00  0.00    -0.182 NA
ATOM      6  C   UNL     1     -13.643  15.347  72.078  0.00  0.00    +0.282 A 
ATOM      7  O   UNL     1     -14.529  16.098  72.576  0.00  0.00    -0.265 OA
ATOM      8  C   UNL     1     -13.408  14.064  72.558  0.00  0.00    +0.077 A 
ENDROOT
BRANCH   1   9
ATOM      9  C   UNL     1     -13.221  11.694  71.789  0.00  0.00    +0.046 C 
BRANCH   9  11
ATOM     10  C   UNL     1     -11.933   9.607  71.472  0.00  0.00    +0.000 C 
ATOM     11  C   UNL     1     -12.491  10.846  70.794  0.00  0.00    +0.006 C 
ENDBRANCH   9  11
ENDBRANCH   1   9
TORSDOF 2
ENDMDL
MODEL 2
REMARK VINA RESULT:      -4.5      2.747      3.734
REMARK  Name = 
REMARK  2 active torsions:
REMARK  status: ('A' for Active; 'I' for Inactive)
REMARK    1  A    between atoms: C_2  and  C_3
REMARK    2  A    between atoms: C_3  and  C_4
REMARK                            x       y       z     vdW  Elec       q    Type
REMARK                         _______ _______ _______ _____ _____    ______ ____
ROOT
ATOM      1  C   UNL     1     -12.532  14.479  71.160  0.00  0.00    +0.066 A 
ATOM      2  N   UNL     1     -12.120  13.339  70.598  0.00  0.00    -0.225 NA
ATOM      3  C   UNL     1     -11.711  13.349  69.308  0.00  0.00    +0.203 A 
ATOM      4  S   UNL     1     -11.694  11.930  68.482  0.00  0.00    -0.009 S 
ATOM      5  N   UNL     1     -11.517  14.504  68.654  0.00  0.00    -0.182 NA
ATOM      6  C   UNL     1     -11.617  15.669  69.340  0.00  0.00    +0.282 A 
ATOM      7  O   UNL     1     -11.595  16.737  68.666  0.00  0.00    -0.265 OA
ATOM      8  C   UNL     1     -11.959  15.653  70.688  0.00  0.00    +0.077 A 
ENDROOT
BRANCH   1   9
ATOM      9  C   UNL     1     -13.497  14.522  72.300  0.00  0.00    +0.046 C 
BRANCH   9  11
ATOM     10  C   UNL     1     -12.476  15.576  74.291  0.00  0.00    +0.000 C 
ATOM     11  C   UNL     1     -13.389  15.787  73.095  0.00  0.00    +0.006 C 
ENDBRANCH   9  11
ENDBRANCH   1   9
TORSDOF 2
ENDMDL
MODEL 3
REMARK VINA RESULT:      -4.5      5.322      6.051
REMARK  Name = 
REMARK  2 active torsions:
REMARK  status: ('A' for Active; 'I' for Inactive)
REMARK    1  A    between atoms: C_2  and  C_3
REMARK    2  A    between atoms: C_3  and  C_4
REMARK                            x       y       z     vdW  Elec       q    Type
REMARK                         _______ _______ _______ _____ _____    ______ ____
ROOT
ATOM      1  C   UNL     1     -10.401  15.876  66.103  0.00  0.00    +0.066 A 
ATOM      2  N   UNL     1      -9.984  17.119  65.844  0.00  0.00    -0.225 NA
ATOM      3  C   UNL     1     -10.324  18.119  66.691  0.00  0.00    +0.203 A 
ATOM      4  S   UNL     1     -10.262  19.665  66.139  0.00  0.00    -0.009 S 
ATOM      5  N   UNL     1     -10.889  17.856  67.878  0.00  0.00    -0.182 NA
ATOM      6  C   UNL     1     -11.005  16.566  68.277  0.00  0.00    +0.282 A 
ATOM      7  O   UNL     1     -11.687  16.343  69.316  0.00  0.00    -0.265 OA
ATOM      8  C   UNL     1     -10.580  15.541  67.439  0.00  0.00    +0.077 A 
ENDROOT
BRANCH   1   9
ATOM      9  C   UNL     1     -10.596  14.846  65.039  0.00  0.00    +0.046 C 
BRANCH   9  11
ATOM     10  C   UNL     1     -12.431  13.190  65.122  0.00  0.00    +0.000 C 
ATOM     11  C   UNL     1     -12.041  14.605  64.730  0.00  0.00    +0.006 C 
ENDBRANCH   9  11
ENDBRANCH   1   9
TORSDOF 2
ENDMDL
MODEL 4
REMARK VINA RESULT:      -4.5      6.523      6.967
REMARK  Name = 
REMARK  2 active torsions:
REMARK  status: ('A' for Active; 'I' for Inactive)
REMARK    1  A    between atoms: C_2  and  C_3
REMARK    2  A    between atoms: C_3  and  C_4
REMARK                            x       y       z     vdW  Elec       q    Type
REMARK                         _______ _______ _______ _____ _____    ______ ____
ROOT
ATOM      1  C   UNL     1     -10.814  13.618  65.495  0.00  0.00    +0.066 A 
ATOM      2  N   UNL     1      -9.881  14.054  66.347  0.00  0.00    -0.225 NA
ATOM      3  C   UNL     1      -9.409  15.316  66.220  0.00  0.00    +0.203 A 
ATOM      4  S   UNL     1      -7.958  15.679  66.898  0.00  0.00    -0.009 S 
ATOM      5  N   UNL     1     -10.000  16.195  65.397  0.00  0.00    -0.182 NA
ATOM      6  C   UNL     1     -11.156  15.842  64.783  0.00  0.00    +0.282 A 
ATOM      7  O   UNL     1     -11.595  16.622  63.893  0.00  0.00    -0.265 OA
ATOM      8  C   UNL     1     -11.684  14.571  64.978  0.00  0.00    +0.077 A 
ENDROOT
BRANCH   1   9
ATOM      9  C   UNL     1     -10.996  12.175  65.155  0.00  0.00    +0.046 C 
BRANCH   9  11
ATOM     10  C   UNL     1      -9.840  11.462  63.089  0.00  0.00    +0.000 C 
ATOM     11  C   UNL     1     -11.151  11.946  63.684  0.00  0.00    +0.006 C 
ENDBRANCH   9  11
ENDBRANCH   1   9
TORSDOF 2
ENDMDL
MODEL 5
REMARK VINA RESULT:      -4.4      2.870      4.037
REMARK  Name = 
REMARK  2 active torsions:
REMARK  status: ('A' for Active; 'I' for Inactive)
REMARK    1  A    between atoms: C_2  and  C_3
REMARK    2  A    between atoms: C_3  and  C_4
REMARK                            x       y       z     vdW  Elec       q    Type
REMARK                         _______ _______ _______ _____ _____    ______ ____
ROOT
ATOM      1  C   UNL     1     -12.047  15.556  70.681  0.00  0.00    +0.066 A 
ATOM      2  N   UNL     1     -11.753  16.231  69.565  0.00  0.00    -0.225 NA
ATOM      3  C   UNL     1     -11.309  15.553  68.482  0.00  0.00    +0.203 A 
ATOM      4  S   UNL     1     -10.488  16.380  67.325  0.00  0.00    -0.009 S 
ATOM      5  N   UNL     1     -11.353  14.213  68.440  0.00  0.00    -0.182 NA
ATOM      6  C   UNL     1     -11.965  13.546  69.449  0.00  0.00    +0.282 A 
ATOM      7  O   UNL     1     -11.844  12.289  69.464  0.00  0.00    -0.265 OA
ATOM      8  C   UNL     1     -12.494  14.250  70.524  0.00  0.00    +0.077 A 
ENDROOT
BRANCH   1   9
ATOM      9  C   UNL     1     -11.988  16.170  72.042  0.00  0.00    +0.046 C 
BRANCH   9  11
ATOM     10  C   UNL     1     -12.480  15.564  74.388  0.00  0.00    +0.000 C 
ATOM     11  C   UNL     1     -13.021  15.609  72.970  0.00  0.00    +0.006 C 
ENDBRANCH   9  11
ENDBRANCH   1   9
TORSDOF 2
ENDMDL
MODEL 6
REMARK VINA RESULT:      -4.4      5.742      7.400
REMARK  Name = 
REMARK  2 active torsions:
REMARK  status: ('A' for Active; 'I' for Inactive)
REMARK    1  A    between atoms: C_2  and  C_3
REMARK    2  A    between atoms: C_3  and  C_4
REMARK                            x       y       z     vdW  Elec       q    Type
REMARK                         _______ _______ _______ _____ _____    ______ ____
ROOT
ATOM      1  C   UNL     1     -10.367  16.842  67.112  0.00  0.00    +0.066 A 
ATOM      2  N   UNL     1     -10.460  15.579  67.539  0.00  0.00    -0.225 NA
ATOM      3  C   UNL     1     -11.100  14.668  66.768  0.00  0.00    +0.203 A 
ATOM      4  S   UNL     1     -11.653  13.295  67.479  0.00  0.00    -0.009 S 
ATOM      5  N   UNL     1     -11.457  14.958  65.508  0.00  0.00    -0.182 NA
ATOM      6  C   UNL     1     -11.058  16.136  64.970  0.00  0.00    +0.282 A 
ATOM      7  O   UNL     1     -11.547  16.450  63.848  0.00  0.00    -0.265 OA
ATOM      8  C   UNL     1     -10.330  17.038  65.737  0.00  0.00    +0.077 A 
ENDROOT
BRANCH   1   9
ATOM      9  C   UNL     1     -10.222  18.005  68.038  0.00  0.00    +0.046 C 
BRANCH   9  11
ATOM     10  C   UNL     1      -9.503  20.280  67.390  0.00  0.00    +0.000 C 
ATOM     11  C   UNL     1     -10.658  19.294  67.414  0.00  0.00    +0.006 C 
ENDBRANCH   9  11
ENDBRANCH   1   9
TORSDOF 2
ENDMDL
MODEL 7
REMARK VINA RESULT:      -4.2      3.970      5.303
REMARK  Name = 
REMARK  2 active torsions:
REMARK  status: ('A' for Active; 'I' for Inactive)
REMARK    1  A    between atoms: C_2  and  C_3
REMARK    2  A    between atoms: C_3  and  C_4
REMARK                            x       y       z     vdW  Elec       q    Type
REMARK                         _______ _______ _______ _____ _____    ______ ____
ROOT
ATOM      1  C   UNL     1     -11.609  14.074  68.169  0.00  0.00    +0.066 A 
ATOM      2  N   UNL     1     -11.038  12.873  68.303  0.00  0.00    -0.225 NA
ATOM      3  C   UNL     1     -11.335  11.899  67.412  0.00  0.00    +0.203 A 
ATOM      4  S   UNL     1     -11.060  10.338  67.841  0.00  0.00    -0.009 S 
ATOM      5  N   UNL     1     -12.020  12.173  66.292  0.00  0.00    -0.182 NA
ATOM      6  C   UNL     1     -12.308  13.464  66.000  0.00  0.00    +0.282 A 
ATOM      7  O   UNL     1     -13.093  13.675  65.033  0.00  0.00    -0.265 OA
ATOM      8  C   UNL     1     -11.931  14.474  66.878  0.00  0.00    +0.077 A 
ENDROOT
BRANCH   1   9
ATOM      9  C   UNL     1     -11.827  15.004  69.317  0.00  0.00    +0.046 C 
BRANCH   9  11
ATOM     10  C   UNL     1     -13.329  15.353  71.251  0.00  0.00    +0.000 C 
ATOM     11  C   UNL     1     -12.508  14.338  70.473  0.00  0.00    +0.006 C 
ENDBRANCH   9  11
ENDBRANCH   1   9
TORSDOF 2
ENDMDL
MODEL 8
REMARK VINA RESULT:      -4.2      4.357      5.342
REMARK  Name = 
REMARK  2 active torsions:
REMARK  status: ('A' for Active; 'I' for Inactive)
REMARK    1  A    between atoms: C_2  and  C_3
REMARK    2  A    between atoms: C_3  and  C_4
REMARK                            x       y       z     vdW  Elec       q    Type
REMARK                         _______ _______ _______ _____ _____    ______ ____
ROOT
ATOM      1  C   UNL     1     -11.912  13.618  66.859  0.00  0.00    +0.066 A 
ATOM      2  N   UNL     1     -11.680  14.591  67.746  0.00  0.00    -0.225 NA
ATOM      3  C   UNL     1     -11.810  14.324  69.066  0.00  0.00    +0.203 A 
ATOM      4  S   UNL     1     -12.025  15.582  70.099  0.00  0.00    -0.009 S 
ATOM      5  N   UNL     1     -11.963  13.066  69.505  0.00  0.00    -0.182 NA
ATOM      6  C   UNL     1     -11.863  12.046  68.618  0.00  0.00    +0.282 A 
ATOM      7  O   UNL     1     -12.176  10.893  69.029  0.00  0.00    -0.265 OA
ATOM      8  C   UNL     1     -11.648  12.318  67.271  0.00  0.00    +0.077 A 
ENDROOT
BRANCH   1   9
ATOM      9  C   UNL     1     -12.355  13.884  65.457  0.00  0.00    +0.046 C 
BRANCH   9  11
ATOM     10  C   UNL     1     -11.908  12.616  63.382  0.00  0.00    +0.000 C 
ATOM     11  C   UNL     1     -12.658  12.626  64.702  0.00  0.00    +0.006 C 
ENDBRANCH   9  11
ENDBRANCH   1   9
TORSDOF 2
ENDMDL
MODEL 9
REMARK VINA RESULT:      -4.2      1.545      2.013
REMARK  Name = 
REMARK  2 active torsions:
REMARK  status: ('A' for Active; 'I' for Inactive)
REMARK    1  A    between atoms: C_2  and  C_3
REMARK    2  A    between atoms: C_3  and  C_4
REMARK                            x       y       z     vdW  Elec       q    Type
REMARK                         _______ _______ _______ _____ _____    ______ ____
ROOT
ATOM      1  C   UNL     1     -12.705  11.346  70.991  0.00  0.00    +0.066 A 
ATOM      2  N   UNL     1     -11.902  12.002  70.147  0.00  0.00    -0.225 NA
ATOM      3  C   UNL     1     -12.062  13.336  69.987  0.00  0.00    +0.203 A 
ATOM      4  S   UNL     1     -11.458  14.038  68.631  0.00  0.00    -0.009 S 
ATOM      5  N   UNL     1     -12.863  14.038  70.802  0.00  0.00    -0.182 NA
ATOM      6  C   UNL     1     -13.418  13.416  71.870  0.00  0.00    +0.282 A 
ATOM      7  O   UNL     1     -14.294  14.055  72.518  0.00  0.00    -0.265 OA
ATOM      8  C   UNL     1     -13.187  12.061  72.080  0.00  0.00    +0.077 A 
ENDROOT
BRANCH   1   9
ATOM      9  C   UNL     1     -13.022   9.893  70.849  0.00  0.00    +0.046 C 
BRANCH   9  11
ATOM     10  C   UNL     1     -14.533   8.203  71.836  0.00  0.00    +0.000 C 
ATOM     11  C   UNL     1     -13.506   9.283  72.127  0.00  0.00    +0.006 C 
ENDBRANCH   9  11
ENDBRANCH   1   9
TORSDOF 2
ENDMDL
