MODEL 1
REMARK VINA RESULT:      -8.2      0.000      0.000
REMARK  Name = 
REMARK  10 active torsions:
REMARK  status: ('A' for Active; 'I' for Inactive)
REMARK    1  A    between atoms: C_2  and  O_3
REMARK    2  A    between atoms: O_3  and  C_4
REMARK    3  A    between atoms: C_10  and  C_11
REMARK    4  A    between atoms: C_11  and  O_13
REMARK    5  A    between atoms: O_13  and  C_14
REMARK    6  A    between atoms: C_14  and  C_15
REMARK    7  A    between atoms: N_23  and  C_24
REMARK    8  A    between atoms: C_24  and  C_25
REMARK    9  A    between atoms: C_28  and  C_29
REMARK   10  A    between atoms: C_34  and  C_35
REMARK                            x       y       z     vdW  Elec       q    Type
REMARK                         _______ _______ _______ _____ _____    ______ ____
ROOT
ATOM      1  C   UNL     1      -7.605  15.313  66.985  0.00  0.00    +0.301 A 
ATOM      2  N   UNL     1      -7.740  16.582  67.442  0.00  0.00    -0.277 N 
ATOM      3  C   UNL     1      -6.516  17.165  67.415  0.00  0.00    +0.088 A 
ATOM      4  C   UNL     1      -5.599  16.125  67.332  0.00  0.00    +0.102 A 
ATOM      5  C   UNL     1      -4.251  16.375  67.138  0.00  0.00    +0.021 A 
ATOM      6  C   UNL     1      -3.815  17.680  67.258  0.00  0.00    +0.002 A 
ATOM      7  C   UNL     1      -4.719  18.667  66.973  0.00  0.00    +0.008 A 
ATOM      8  C   UNL     1      -6.066  18.470  67.253  0.00  0.00    +0.093 A 
ATOM      9  N   UNL     1      -6.320  14.999  67.273  0.00  0.00    -0.194 NA
ENDROOT
BRANCH   8  10
ATOM     10  C   UNL     1      -7.015  19.575  67.350  0.00  0.00    +0.343 C 
ATOM     11  O   UNL     1      -7.337  20.167  66.279  0.00  0.00    -0.245 OA
BRANCH  10  12
ATOM     12  O   UNL     1      -6.951  20.387  68.486  0.00  0.00    -0.437 OA
BRANCH  12  13
ATOM     13  C   UNL     1      -7.199  19.873  69.793  0.00  0.00    +0.275 C 
BRANCH  13  14
ATOM     14  C   UNL     1      -5.916  20.028  70.548  0.00  0.00    +0.204 A 
ATOM     15  C   UNL     1      -5.278  19.021  71.259  0.00  0.00    +0.164 A 
ATOM     16  C   UNL     1      -5.190  17.604  70.788  0.00  0.00    +0.076 C 
ATOM     17  O   UNL     1      -4.535  19.653  72.131  0.00  0.00    -0.395 OA
ATOM     18  C   UNL     1      -4.373  20.914  71.773  0.00  0.00    +0.521 A 
ATOM     19  O   UNL     1      -3.421  21.694  72.079  0.00  0.00    -0.202 OA
ATOM     20  O   UNL     1      -5.250  21.136  70.808  0.00  0.00    -0.391 OA
ENDBRANCH  13  14
ENDBRANCH  12  13
ENDBRANCH  10  12
ENDBRANCH   8  10
BRANCH   1  21
ATOM     21  O   UNL     1      -8.595  14.472  66.514  0.00  0.00    -0.448 OA
BRANCH  21  23
ATOM     22  C   UNL     1      -9.517  12.265  66.263  0.00  0.00    +0.051 C 
ATOM     23  C   UNL     1      -8.709  13.199  67.120  0.00  0.00    +0.209 C 
ENDBRANCH  21  23
ENDBRANCH   1  21
BRANCH   2  24
ATOM     24  C   UNL     1      -8.996  17.295  67.338  0.00  0.00    +0.137 C 
BRANCH  24  25
ATOM     25  C   UNL     1     -10.030  16.739  68.266  0.00  0.00    +0.001 A 
ATOM     26  C   UNL     1      -9.554  16.121  69.415  0.00  0.00    -0.002 A 
ATOM     27  C   UNL     1     -10.219  15.082  70.029  0.00  0.00    -0.000 A 
ATOM     28  C   UNL     1     -11.332  14.532  69.444  0.00  0.00    +0.000 A 
ATOM     29  C   UNL     1     -11.767  15.041  68.249  0.00  0.00    -0.000 A 
ATOM     30  C   UNL     1     -11.166  16.166  67.707  0.00  0.00    -0.002 A 
BRANCH  28  31
ATOM     31  C   UNL     1     -11.810  13.199  69.831  0.00  0.00    +0.003 A 
ATOM     32  C   UNL     1     -12.483  13.002  71.006  0.00  0.00    +0.039 A 
ATOM     33  C   UNL     1     -12.953  11.731  71.311  0.00  0.00    +0.003 A 
ATOM     34  C   UNL     1     -12.374  10.679  70.614  0.00  0.00    +0.000 A 
ATOM     35  C   UNL     1     -11.766  10.887  69.390  0.00  0.00    +0.000 A 
ATOM     36  C   UNL     1     -11.850  12.179  68.888  0.00  0.00    +0.000 A 
BRANCH  32  37
ATOM     37  C   UNL     1     -12.988  14.173  71.732  0.00  0.00    +0.207 A 
ATOM     38  N   UNL     1     -12.509  14.705  72.880  0.00  0.00    -0.151 NA
ATOM     39  C   UNL     1     -13.140  15.870  73.081  0.00  0.00    +0.463 A 
ATOM     40  O   UNL     1     -12.986  16.551  74.125  0.00  0.00    -0.219 OA
ATOM     41  O   UNL     1     -14.164  15.891  72.277  0.00  0.00    -0.294 OA
ATOM     42  N   UNL     1     -14.006  14.980  71.379  0.00  0.00    -0.052 NA
ENDBRANCH  32  37
ENDBRANCH  28  31
ENDBRANCH  24  25
ENDBRANCH   2  24
TORSDOF 10
ENDMDL
MODEL 2
REMARK VINA RESULT:      -8.2      4.058      6.710
REMARK  Name = 
REMARK  10 active torsions:
REMARK  status: ('A' for Active; 'I' for Inactive)
REMARK    1  A    between atoms: C_2  and  O_3
REMARK    2  A    between atoms: O_3  and  C_4
REMARK    3  A    between atoms: C_10  and  C_11
REMARK    4  A    between atoms: C_11  and  O_13
REMARK    5  A    between atoms: O_13  and  C_14
REMARK    6  A    between atoms: C_14  and  C_15
REMARK    7  A    between atoms: N_23  and  C_24
REMARK    8  A    between atoms: C_24  and  C_25
REMARK    9  A    between atoms: C_28  and  C_29
REMARK   10  A    between atoms: C_34  and  C_35
REMARK                            x       y       z     vdW  Elec       q    Type
REMARK                         _______ _______ _______ _____ _____    ______ ____
ROOT
ATOM      1  C   UNL     1      -9.010  12.060  66.466  0.00  0.00    +0.301 A 
ATOM      2  N   UNL     1      -9.737  12.633  67.458  0.00  0.00    -0.277 N 
ATOM      3  C   UNL     1      -9.056  13.720  67.896  0.00  0.00    +0.088 A 
ATOM      4  C   UNL     1      -7.750  13.558  67.452  0.00  0.00    +0.102 A 
ATOM      5  C   UNL     1      -6.813  14.566  67.602  0.00  0.00    +0.021 A 
ATOM      6  C   UNL     1      -7.147  15.641  68.403  0.00  0.00    +0.002 A 
ATOM      7  C   UNL     1      -8.476  15.951  68.506  0.00  0.00    +0.008 A 
ATOM      8  C   UNL     1      -9.426  14.937  68.455  0.00  0.00    +0.093 A 
ATOM      9  N   UNL     1      -7.736  12.418  66.749  0.00  0.00    -0.194 NA
ENDROOT
BRANCH   8  10
ATOM     10  C   UNL     1     -10.792  15.120  68.938  0.00  0.00    +0.343 C 
ATOM     11  O   UNL     1     -11.494  16.015  68.384  0.00  0.00    -0.245 OA
BRANCH  10  12
ATOM     12  O   UNL     1     -11.028  14.935  70.304  0.00  0.00    -0.437 OA
BRANCH  12  13
ATOM     13  C   UNL     1     -11.483  15.997  71.139  0.00  0.00    +0.275 C 
BRANCH  13  14
ATOM     14  C   UNL     1     -12.849  15.601  71.603  0.00  0.00    +0.204 A 
ATOM     15  C   UNL     1     -13.135  14.973  72.808  0.00  0.00    +0.164 A 
ATOM     16  C   UNL     1     -12.456  15.309  74.098  0.00  0.00    +0.076 C 
ATOM     17  O   UNL     1     -14.281  14.376  72.605  0.00  0.00    -0.395 OA
ATOM     18  C   UNL     1     -14.887  14.885  71.546  0.00  0.00    +0.521 A 
ATOM     19  O   UNL     1     -16.129  14.900  71.293  0.00  0.00    -0.202 OA
ATOM     20  O   UNL     1     -13.981  15.622  70.926  0.00  0.00    -0.391 OA
ENDBRANCH  13  14
ENDBRANCH  12  13
ENDBRANCH  10  12
ENDBRANCH   8  10
BRANCH   1  21
ATOM     21  O   UNL     1      -9.443  11.163  65.508  0.00  0.00    -0.448 OA
BRANCH  21  23
ATOM     22  C   UNL     1     -10.877  12.440  64.061  0.00  0.00    +0.051 C 
ATOM     23  C   UNL     1      -9.605  11.649  64.190  0.00  0.00    +0.209 C 
ENDBRANCH  21  23
ENDBRANCH   1  21
BRANCH   2  24
ATOM     24  C   UNL     1     -11.174  12.475  67.532  0.00  0.00    +0.137 C 
BRANCH  24  25
ATOM     25  C   UNL     1     -11.563  11.322  68.403  0.00  0.00    +0.001 A 
ATOM     26  C   UNL     1     -11.831  11.621  69.733  0.00  0.00    -0.002 A 
ATOM     27  C   UNL     1     -11.604  10.726  70.756  0.00  0.00    -0.000 A 
ATOM     28  C   UNL     1     -10.980   9.531  70.501  0.00  0.00    +0.000 A 
ATOM     29  C   UNL     1     -10.595   9.248  69.217  0.00  0.00    -0.000 A 
ATOM     30  C   UNL     1     -10.942  10.099  68.180  0.00  0.00    -0.002 A 
BRANCH  28  31
ATOM     31  C   UNL     1     -10.359   8.756  71.584  0.00  0.00    +0.003 A 
ATOM     32  C   UNL     1     -11.120   8.034  72.463  0.00  0.00    +0.039 A 
ATOM     33  C   UNL     1     -10.487   7.284  73.446  0.00  0.00    +0.003 A 
ATOM     34  C   UNL     1      -9.170   7.622  73.724  0.00  0.00    +0.000 A 
ATOM     35  C   UNL     1      -8.394   8.284  72.790  0.00  0.00    +0.000 A 
ATOM     36  C   UNL     1      -8.993   8.504  71.557  0.00  0.00    +0.000 A 
BRANCH  32  37
ATOM     37  C   UNL     1     -12.531   7.795  72.141  0.00  0.00    +0.207 A 
ATOM     38  N   UNL     1     -13.608   8.489  72.573  0.00  0.00    -0.151 NA
ATOM     39  C   UNL     1     -14.673   8.055  71.884  0.00  0.00    +0.463 A 
ATOM     40  O   UNL     1     -15.843   8.437  72.136  0.00  0.00    -0.219 OA
ATOM     41  O   UNL     1     -14.321   6.947  71.299  0.00  0.00    -0.294 OA
ATOM     42  N   UNL     1     -13.035   6.859  71.315  0.00  0.00    -0.052 NA
ENDBRANCH  32  37
ENDBRANCH  28  31
ENDBRANCH  24  25
ENDBRANCH   2  24
TORSDOF 10
ENDMDL
MODEL 3
REMARK VINA RESULT:      -7.9      4.260      7.503
REMARK  Name = 
REMARK  10 active torsions:
REMARK  status: ('A' for Active; 'I' for Inactive)
REMARK    1  A    between atoms: C_2  and  O_3
REMARK    2  A    between atoms: O_3  and  C_4
REMARK    3  A    between atoms: C_10  and  C_11
REMARK    4  A    between atoms: C_11  and  O_13
REMARK    5  A    between atoms: O_13  and  C_14
REMARK    6  A    between atoms: C_14  and  C_15
REMARK    7  A    between atoms: N_23  and  C_24
REMARK    8  A    between atoms: C_24  and  C_25
REMARK    9  A    between atoms: C_28  and  C_29
REMARK   10  A    between atoms: C_34  and  C_35
REMARK                            x       y       z     vdW  Elec       q    Type
REMARK                         _______ _______ _______ _____ _____    ______ ____
ROOT
ATOM      1  C   UNL     1     -11.360  15.014  65.491  0.00  0.00    +0.301 A 
ATOM      2  N   UNL     1     -10.874  14.937  66.755  0.00  0.00    -0.277 N 
ATOM      3  C   UNL     1     -10.467  16.178  67.119  0.00  0.00    +0.088 A 
ATOM      4  C   UNL     1     -10.334  16.898  65.940  0.00  0.00    +0.102 A 
ATOM      5  C   UNL     1     -10.069  18.257  65.958  0.00  0.00    +0.021 A 
ATOM      6  C   UNL     1      -9.719  18.828  67.166  0.00  0.00    +0.002 A 
ATOM      7  C   UNL     1     -10.201  18.232  68.300  0.00  0.00    +0.008 A 
ATOM      8  C   UNL     1     -10.379  16.854  68.330  0.00  0.00    +0.093 A 
ATOM      9  N   UNL     1     -10.703  16.070  64.955  0.00  0.00    -0.194 NA
ENDROOT
BRANCH   8  10
ATOM     10  C   UNL     1     -10.505  16.109  69.580  0.00  0.00    +0.343 C 
ATOM     11  O   UNL     1      -9.611  15.253  69.845  0.00  0.00    -0.245 OA
BRANCH  10  12
ATOM     12  O   UNL     1     -11.794  15.781  70.012  0.00  0.00    -0.437 OA
BRANCH  12  13
ATOM     13  C   UNL     1     -12.061  14.585  70.743  0.00  0.00    +0.275 C 
BRANCH  13  14
ATOM     14  C   UNL     1     -12.605  15.024  72.066  0.00  0.00    +0.204 A 
ATOM     15  C   UNL     1     -13.888  15.505  72.285  0.00  0.00    +0.164 A 
ATOM     16  C   UNL     1     -15.106  14.945  71.621  0.00  0.00    +0.076 C 
ATOM     17  O   UNL     1     -13.793  16.213  73.381  0.00  0.00    -0.395 OA
ATOM     18  C   UNL     1     -12.690  15.900  74.039  0.00  0.00    +0.521 A 
ATOM     19  O   UNL     1     -12.466  16.018  75.282  0.00  0.00    -0.202 OA
ATOM     20  O   UNL     1     -11.957  15.183  73.204  0.00  0.00    -0.391 OA
ENDBRANCH  13  14
ENDBRANCH  12  13
ENDBRANCH  10  12
ENDBRANCH   8  10
BRANCH   1  21
ATOM     21  O   UNL     1     -12.182  14.113  64.842  0.00  0.00    -0.448 OA
BRANCH  21  23
ATOM     22  C   UNL     1     -12.509  12.097  63.573  0.00  0.00    +0.051 C 
ATOM     23  C   UNL     1     -11.575  13.220  63.929  0.00  0.00    +0.209 C 
ENDBRANCH  21  23
ENDBRANCH   1  21
BRANCH   2  24
ATOM     24  C   UNL     1     -11.318  13.911  67.675  0.00  0.00    +0.137 C 
BRANCH  24  25
ATOM     25  C   UNL     1     -10.519  12.653  67.533  0.00  0.00    +0.001 A 
ATOM     26  C   UNL     1      -9.273  12.783  66.933  0.00  0.00    -0.002 A 
ATOM     27  C   UNL     1      -8.697  11.773  66.193  0.00  0.00    -0.000 A 
ATOM     28  C   UNL     1      -9.403  10.629  65.917  0.00  0.00    +0.000 A 
ATOM     29  C   UNL     1     -10.681  10.512  66.397  0.00  0.00    -0.000 A 
ATOM     30  C   UNL     1     -11.201  11.477  67.243  0.00  0.00    -0.002 A 
BRANCH  28  31
ATOM     31  C   UNL     1      -9.003   9.739  64.820  0.00  0.00    +0.003 A 
ATOM     32  C   UNL     1      -8.349   8.562  65.066  0.00  0.00    +0.039 A 
ATOM     33  C   UNL     1      -8.027   7.732  64.000  0.00  0.00    +0.003 A 
ATOM     34  C   UNL     1      -8.028   8.320  62.743  0.00  0.00    +0.000 A 
ATOM     35  C   UNL     1      -8.758   9.468  62.495  0.00  0.00    +0.000 A 
ATOM     36  C   UNL     1      -9.535   9.926  63.550  0.00  0.00    +0.000 A 
BRANCH  32  37
ATOM     37  C   UNL     1      -8.316   8.050  66.442  0.00  0.00    +0.207 A 
ATOM     38  N   UNL     1      -9.191   7.205  67.032  0.00  0.00    -0.151 NA
ATOM     39  C   UNL     1      -8.677   6.853  68.218  0.00  0.00    +0.463 A 
ATOM     40  O   UNL     1      -9.310   6.155  69.049  0.00  0.00    -0.219 OA
ATOM     41  O   UNL     1      -7.704   7.680  68.471  0.00  0.00    -0.294 OA
ATOM     42  N   UNL     1      -7.382   8.288  67.381  0.00  0.00    -0.052 NA
ENDBRANCH  32  37
ENDBRANCH  28  31
ENDBRANCH  24  25
ENDBRANCH   2  24
TORSDOF 10
ENDMDL
MODEL 4
REMARK VINA RESULT:      -7.9      4.286      7.610
REMARK  Name = 
REMARK  10 active torsions:
REMARK  status: ('A' for Active; 'I' for Inactive)
REMARK    1  A    between atoms: C_2  and  O_3
REMARK    2  A    between atoms: O_3  and  C_4
REMARK    3  A    between atoms: C_10  and  C_11
REMARK    4  A    between atoms: C_11  and  O_13
REMARK    5  A    between atoms: O_13  and  C_14
REMARK    6  A    between atoms: C_14  and  C_15
REMARK    7  A    between atoms: N_23  and  C_24
REMARK    8  A    between atoms: C_24  and  C_25
REMARK    9  A    between atoms: C_28  and  C_29
REMARK   10  A    between atoms: C_34  and  C_35
REMARK                            x       y       z     vdW  Elec       q    Type
REMARK                         _______ _______ _______ _____ _____    ______ ____
ROOT
ATOM      1  C   UNL     1     -11.292  15.084  65.587  0.00  0.00    +0.301 A 
ATOM      2  N   UNL     1     -10.898  15.045  66.884  0.00  0.00    -0.277 N 
ATOM      3  C   UNL     1     -10.483  16.289  67.229  0.00  0.00    +0.088 A 
ATOM      4  C   UNL     1     -10.248  16.959  66.036  0.00  0.00    +0.102 A 
ATOM      5  C   UNL     1      -9.949  18.310  66.021  0.00  0.00    +0.021 A 
ATOM      6  C   UNL     1      -9.669  18.920  67.229  0.00  0.00    +0.002 A 
ATOM      7  C   UNL     1     -10.244  18.380  68.347  0.00  0.00    +0.008 A 
ATOM      8  C   UNL     1     -10.461  17.010  68.417  0.00  0.00    +0.093 A 
ATOM      9  N   UNL     1     -10.571  16.101  65.059  0.00  0.00    -0.194 NA
ENDROOT
BRANCH   8  10
ATOM     10  C   UNL     1     -10.694  16.318  69.682  0.00  0.00    +0.343 C 
ATOM     11  O   UNL     1      -9.896  15.387  69.997  0.00  0.00    -0.245 OA
BRANCH  10  12
ATOM     12  O   UNL     1     -12.020  16.130  70.084  0.00  0.00    -0.437 OA
BRANCH  12  13
ATOM     13  C   UNL     1     -12.375  15.977  71.456  0.00  0.00    +0.275 C 
BRANCH  13  14
ATOM     14  C   UNL     1     -13.017  14.630  71.569  0.00  0.00    +0.204 A 
ATOM     15  C   UNL     1     -14.344  14.401  71.905  0.00  0.00    +0.164 A 
ATOM     16  C   UNL     1     -15.480  15.243  71.416  0.00  0.00    +0.076 C 
ATOM     17  O   UNL     1     -14.360  13.179  72.372  0.00  0.00    -0.395 OA
ATOM     18  C   UNL     1     -13.270  12.529  72.004  0.00  0.00    +0.521 A 
ATOM     19  O   UNL     1     -13.117  11.277  71.873  0.00  0.00    -0.202 OA
ATOM     20  O   UNL     1     -12.441  13.444  71.530  0.00  0.00    -0.391 OA
ENDBRANCH  13  14
ENDBRANCH  12  13
ENDBRANCH  10  12
ENDBRANCH   8  10
BRANCH   1  21
ATOM     21  O   UNL     1     -12.092  14.179  64.916  0.00  0.00    -0.448 OA
BRANCH  21  23
ATOM     22  C   UNL     1     -12.424  12.198  63.594  0.00  0.00    +0.051 C 
ATOM     23  C   UNL     1     -11.446  13.223  64.098  0.00  0.00    +0.209 C 
ENDBRANCH  21  23
ENDBRANCH   1  21
BRANCH   2  24
ATOM     24  C   UNL     1     -11.432  14.067  67.808  0.00  0.00    +0.137 C 
BRANCH  24  25
ATOM     25  C   UNL     1     -10.672  12.779  67.756  0.00  0.00    +0.001 A 
ATOM     26  C   UNL     1      -9.383  12.848  67.244  0.00  0.00    -0.002 A 
ATOM     27  C   UNL     1      -8.793  11.798  66.573  0.00  0.00    -0.000 A 
ATOM     28  C   UNL     1      -9.520  10.672  66.279  0.00  0.00    +0.000 A 
ATOM     29  C   UNL     1     -10.832  10.613  66.669  0.00  0.00    -0.000 A 
ATOM     30  C   UNL     1     -11.374  11.620  67.451  0.00  0.00    -0.002 A 
BRANCH  28  31
ATOM     31  C   UNL     1      -9.077   9.737  65.236  0.00  0.00    +0.003 A 
ATOM     32  C   UNL     1      -8.497   8.540  65.560  0.00  0.00    +0.039 A 
ATOM     33  C   UNL     1      -8.131   7.669  64.541  0.00  0.00    +0.003 A 
ATOM     34  C   UNL     1      -8.009   8.224  63.274  0.00  0.00    +0.000 A 
ATOM     35  C   UNL     1      -8.666   9.395  62.944  0.00  0.00    +0.000 A 
ATOM     36  C   UNL     1      -9.501   9.913  63.925  0.00  0.00    +0.000 A 
BRANCH  32  37
ATOM     37  C   UNL     1      -8.593   8.063  66.945  0.00  0.00    +0.207 A 
ATOM     38  N   UNL     1      -7.754   8.328  67.971  0.00  0.00    -0.151 NA
ATOM     39  C   UNL     1      -8.320   7.855  69.090  0.00  0.00    +0.463 A 
ATOM     40  O   UNL     1      -7.730   7.857  70.199  0.00  0.00    -0.219 OA
ATOM     41  O   UNL     1      -9.291   7.070  68.722  0.00  0.00    -0.294 OA
ATOM     42  N   UNL     1      -9.561   7.297  67.482  0.00  0.00    -0.052 NA
ENDBRANCH  32  37
ENDBRANCH  28  31
ENDBRANCH  24  25
ENDBRANCH   2  24
TORSDOF 10
ENDMDL
MODEL 5
REMARK VINA RESULT:      -7.8      3.603      9.235
REMARK  Name = 
REMARK  10 active torsions:
REMARK  status: ('A' for Active; 'I' for Inactive)
REMARK    1  A    between atoms: C_2  and  O_3
REMARK    2  A    between atoms: O_3  and  C_4
REMARK    3  A    between atoms: C_10  and  C_11
REMARK    4  A    between atoms: C_11  and  O_13
REMARK    5  A    between atoms: O_13  and  C_14
REMARK    6  A    between atoms: C_14  and  C_15
REMARK    7  A    between atoms: N_23  and  C_24
REMARK    8  A    between atoms: C_24  and  C_25
REMARK    9  A    between atoms: C_28  and  C_29
REMARK   10  A    between atoms: C_34  and  C_35
REMARK                            x       y       z     vdW  Elec       q    Type
REMARK                         _______ _______ _______ _____ _____    ______ ____
ROOT
ATOM      1  C   UNL     1     -13.339  13.793  71.395  0.00  0.00    +0.301 A 
ATOM      2  N   UNL     1     -12.381  13.440  70.502  0.00  0.00    -0.277 N 
ATOM      3  C   UNL     1     -12.276  12.088  70.520  0.00  0.00    +0.088 A 
ATOM      4  C   UNL     1     -12.874  11.674  71.704  0.00  0.00    +0.102 A 
ATOM      5  C   UNL     1     -13.070  10.330  71.974  0.00  0.00    +0.021 A 
ATOM      6  C   UNL     1     -12.457   9.412  71.144  0.00  0.00    +0.002 A 
ATOM      7  C   UNL     1     -12.215   9.800  69.854  0.00  0.00    +0.008 A 
ATOM      8  C   UNL     1     -11.919  11.130  69.580  0.00  0.00    +0.093 A 
ATOM      9  N   UNL     1     -13.330  12.784  72.297  0.00  0.00    -0.194 NA
ENDROOT
BRANCH   8  10
ATOM     10  C   UNL     1     -11.279  11.548  68.336  0.00  0.00    +0.343 C 
ATOM     11  O   UNL     1     -11.862  11.256  67.250  0.00  0.00    -0.245 OA
BRANCH  10  12
ATOM     12  O   UNL     1      -9.882  11.533  68.287  0.00  0.00    -0.437 OA
BRANCH  12  13
ATOM     13  C   UNL     1      -9.142  10.314  68.297  0.00  0.00    +0.275 C 
BRANCH  13  14
ATOM     14  C   UNL     1      -9.086   9.854  66.874  0.00  0.00    +0.204 A 
ATOM     15  C   UNL     1      -9.422   8.583  66.429  0.00  0.00    +0.164 A 
ATOM     16  C   UNL     1     -10.581   7.800  66.961  0.00  0.00    +0.076 C 
ATOM     17  O   UNL     1      -8.780   8.449  65.297  0.00  0.00    -0.395 OA
ATOM     18  C   UNL     1      -8.404   9.629  64.837  0.00  0.00    +0.521 A 
ATOM     19  O   UNL     1      -8.172   9.958  63.634  0.00  0.00    -0.202 OA
ATOM     20  O   UNL     1      -8.578  10.483  65.832  0.00  0.00    -0.391 OA
ENDBRANCH  13  14
ENDBRANCH  12  13
ENDBRANCH  10  12
ENDBRANCH   8  10
BRANCH   1  21
ATOM     21  O   UNL     1     -14.023  14.991  71.475  0.00  0.00    -0.448 OA
BRANCH  21  23
ATOM     22  C   UNL     1     -12.462  16.088  72.938  0.00  0.00    +0.051 C 
ATOM     23  C   UNL     1     -13.898  15.733  72.672  0.00  0.00    +0.209 C 
ENDBRANCH  21  23
ENDBRANCH   1  21
BRANCH   2  24
ATOM     24  C   UNL     1     -12.059  14.278  69.366  0.00  0.00    +0.137 C 
BRANCH  24  25
ATOM     25  C   UNL     1     -10.938  15.221  69.671  0.00  0.00    +0.001 A 
ATOM     26  C   UNL     1     -11.162  16.558  69.367  0.00  0.00    -0.002 A 
ATOM     27  C   UNL     1     -10.147  17.416  69.001  0.00  0.00    -0.000 A 
ATOM     28  C   UNL     1      -8.876  16.938  68.804  0.00  0.00    +0.000 A 
ATOM     29  C   UNL     1      -8.640  15.601  68.984  0.00  0.00    -0.000 A 
ATOM     30  C   UNL     1      -9.638  14.774  69.473  0.00  0.00    -0.002 A 
BRANCH  28  31
ATOM     31  C   UNL     1      -7.890  17.706  68.033  0.00  0.00    +0.003 A 
ATOM     32  C   UNL     1      -7.865  17.652  66.665  0.00  0.00    +0.039 A 
ATOM     33  C   UNL     1      -6.941  18.427  65.975  0.00  0.00    +0.003 A 
ATOM     34  C   UNL     1      -5.858  18.891  66.711  0.00  0.00    +0.000 A 
ATOM     35  C   UNL     1      -5.933  19.011  68.086  0.00  0.00    +0.000 A 
ATOM     36  C   UNL     1      -7.167  18.719  68.650  0.00  0.00    +0.000 A 
BRANCH  32  37
ATOM     37  C   UNL     1      -9.011  17.063  65.963  0.00  0.00    +0.207 A 
ATOM     38  N   UNL     1      -9.203  15.765  65.635  0.00  0.00    -0.151 NA
ATOM     39  C   UNL     1     -10.458  15.643  65.182  0.00  0.00    +0.463 A 
ATOM     40  O   UNL     1     -10.902  14.572  64.699  0.00  0.00    -0.219 OA
ATOM     41  O   UNL     1     -10.896  16.847  64.948  0.00  0.00    -0.294 OA
ATOM     42  N   UNL     1     -10.122  17.692  65.539  0.00  0.00    -0.052 NA
ENDBRANCH  32  37
ENDBRANCH  28  31
ENDBRANCH  24  25
ENDBRANCH   2  24
TORSDOF 10
ENDMDL
MODEL 6
REMARK VINA RESULT:      -7.7      4.236      7.328
REMARK  Name = 
REMARK  10 active torsions:
REMARK  status: ('A' for Active; 'I' for Inactive)
REMARK    1  A    between atoms: C_2  and  O_3
REMARK    2  A    between atoms: O_3  and  C_4
REMARK    3  A    between atoms: C_10  and  C_11
REMARK    4  A    between atoms: C_11  and  O_13
REMARK    5  A    between atoms: O_13  and  C_14
REMARK    6  A    between atoms: C_14  and  C_15
REMARK    7  A    between atoms: N_23  and  C_24
REMARK    8  A    between atoms: C_24  and  C_25
REMARK    9  A    between atoms: C_28  and  C_29
REMARK   10  A    between atoms: C_34  and  C_35
REMARK                            x       y       z     vdW  Elec       q    Type
REMARK                         _______ _______ _______ _____ _____    ______ ____
ROOT
ATOM      1  C   UNL     1     -11.337  15.238  65.394  0.00  0.00    +0.301 A 
ATOM      2  N   UNL     1     -10.890  15.086  66.666  0.00  0.00    -0.277 N 
ATOM      3  C   UNL     1     -10.466  16.297  67.103  0.00  0.00    +0.088 A 
ATOM      4  C   UNL     1     -10.282  17.072  65.966  0.00  0.00    +0.102 A 
ATOM      5  C   UNL     1      -9.988  18.422  66.059  0.00  0.00    +0.021 A 
ATOM      6  C   UNL     1      -9.660  18.923  67.304  0.00  0.00    +0.002 A 
ATOM      7  C   UNL     1     -10.188  18.283  68.393  0.00  0.00    +0.008 A 
ATOM      8  C   UNL     1     -10.398  16.910  68.349  0.00  0.00    +0.093 A 
ATOM      9  N   UNL     1     -10.641  16.303  64.930  0.00  0.00    -0.194 NA
ENDROOT
BRANCH   8  10
ATOM     10  C   UNL     1     -10.578  16.107  69.555  0.00  0.00    +0.343 C 
ATOM     11  O   UNL     1      -9.651  15.303  69.868  0.00  0.00    -0.245 OA
BRANCH  10  12
ATOM     12  O   UNL     1     -11.872  15.675  69.861  0.00  0.00    -0.437 OA
BRANCH  12  13
ATOM     13  C   UNL     1     -12.110  14.509  70.646  0.00  0.00    +0.275 C 
BRANCH  13  14
ATOM     14  C   UNL     1     -12.628  14.996  71.962  0.00  0.00    +0.204 A 
ATOM     15  C   UNL     1     -13.917  15.455  72.196  0.00  0.00    +0.164 A 
ATOM     16  C   UNL     1     -15.138  14.834  71.595  0.00  0.00    +0.076 C 
ATOM     17  O   UNL     1     -13.809  16.217  73.254  0.00  0.00    -0.395 OA
ATOM     18  C   UNL     1     -12.680  15.964  73.893  0.00  0.00    +0.521 A 
ATOM     19  O   UNL     1     -12.424  16.146  75.122  0.00  0.00    -0.202 OA
ATOM     20  O   UNL     1     -11.952  15.226  73.072  0.00  0.00    -0.391 OA
ENDBRANCH  13  14
ENDBRANCH  12  13
ENDBRANCH  10  12
ENDBRANCH   8  10
BRANCH   1  21
ATOM     21  O   UNL     1     -12.160  14.390  64.678  0.00  0.00    -0.448 OA
BRANCH  21  23
ATOM     22  C   UNL     1     -12.412  12.183  63.759  0.00  0.00    +0.051 C 
ATOM     23  C   UNL     1     -11.539  13.400  63.882  0.00  0.00    +0.209 C 
ENDBRANCH  21  23
ENDBRANCH   1  21
BRANCH   2  24
ATOM     24  C   UNL     1     -11.384  14.026  67.520  0.00  0.00    +0.137 C 
BRANCH  24  25
ATOM     25  C   UNL     1     -10.652  12.741  67.290  0.00  0.00    +0.001 A 
ATOM     26  C   UNL     1     -11.421  11.584  67.319  0.00  0.00    -0.002 A 
ATOM     27  C   UNL     1     -10.918  10.369  67.731  0.00  0.00    -0.000 A 
ATOM     28  C   UNL     1      -9.651  10.286  68.251  0.00  0.00    +0.000 A 
ATOM     29  C   UNL     1      -8.901  11.429  68.345  0.00  0.00    -0.000 A 
ATOM     30  C   UNL     1      -9.371  12.619  67.812  0.00  0.00    -0.002 A 
BRANCH  28  31
ATOM     31  C   UNL     1      -9.240   9.134  69.064  0.00  0.00    +0.003 A 
ATOM     32  C   UNL     1      -8.644   8.043  68.493  0.00  0.00    +0.039 A 
ATOM     33  C   UNL     1      -8.235   6.993  69.306  0.00  0.00    +0.003 A 
ATOM     34  C   UNL     1      -8.806   6.938  70.570  0.00  0.00    +0.000 A 
ATOM     35  C   UNL     1      -9.335   8.071  71.161  0.00  0.00    +0.000 A 
ATOM     36  C   UNL     1      -9.179   9.251  70.447  0.00  0.00    +0.000 A 
BRANCH  32  37
ATOM     37  C   UNL     1      -8.145   8.153  67.117  0.00  0.00    +0.207 A 
ATOM     38  N   UNL     1      -8.788   7.823  65.974  0.00  0.00    -0.151 NA
ATOM     39  C   UNL     1      -8.047   8.264  64.949  0.00  0.00    +0.463 A 
ATOM     40  O   UNL     1      -8.331   8.015  63.752  0.00  0.00    -0.219 OA
ATOM     41  O   UNL     1      -6.873   8.560  65.430  0.00  0.00    -0.294 OA
ATOM     42  N   UNL     1      -6.959   8.644  66.713  0.00  0.00    -0.052 NA
ENDBRANCH  32  37
ENDBRANCH  28  31
ENDBRANCH  24  25
ENDBRANCH   2  24
TORSDOF 10
ENDMDL
MODEL 7
REMARK VINA RESULT:      -7.6      5.813     10.214
REMARK  Name = 
REMARK  10 active torsions:
REMARK  status: ('A' for Active; 'I' for Inactive)
REMARK    1  A    between atoms: C_2  and  O_3
REMARK    2  A    between atoms: O_3  and  C_4
REMARK    3  A    between atoms: C_10  and  C_11
REMARK    4  A    between atoms: C_11  and  O_13
REMARK    5  A    between atoms: O_13  and  C_14
REMARK    6  A    between atoms: C_14  and  C_15
REMARK    7  A    between atoms: N_23  and  C_24
REMARK    8  A    between atoms: C_24  and  C_25
REMARK    9  A    between atoms: C_28  and  C_29
REMARK   10  A    between atoms: C_34  and  C_35
REMARK                            x       y       z     vdW  Elec       q    Type
REMARK                         _______ _______ _______ _____ _____    ______ ____
ROOT
ATOM      1  C   UNL     1      -8.043   7.660  65.771  0.00  0.00    +0.301 A 
ATOM      2  N   UNL     1      -8.822   7.602  66.880  0.00  0.00    -0.277 N 
ATOM      3  C   UNL     1      -9.159   6.305  67.082  0.00  0.00    +0.088 A 
ATOM      4  C   UNL     1      -8.923   5.656  65.877  0.00  0.00    +0.102 A 
ATOM      5  C   UNL     1      -9.026   4.279  65.774  0.00  0.00    +0.021 A 
ATOM      6  C   UNL     1      -9.586   3.595  66.836  0.00  0.00    +0.002 A 
ATOM      7  C   UNL     1      -9.461   4.160  68.076  0.00  0.00    +0.008 A 
ATOM      8  C   UNL     1      -9.455   5.543  68.206  0.00  0.00    +0.093 A 
ATOM      9  N   UNL     1      -8.427   6.582  65.047  0.00  0.00    -0.194 NA
ENDROOT
BRANCH   8  10
ATOM     10  C   UNL     1      -9.717   6.211  69.478  0.00  0.00    +0.343 C 
ATOM     11  O   UNL     1      -8.825   6.138  70.373  0.00  0.00    -0.245 OA
BRANCH  10  12
ATOM     12  O   UNL     1     -11.035   6.221  69.946  0.00  0.00    -0.437 OA
BRANCH  12  13
ATOM     13  C   UNL     1     -11.338   6.185  71.339  0.00  0.00    +0.275 C 
BRANCH  13  14
ATOM     14  C   UNL     1     -12.414   7.203  71.553  0.00  0.00    +0.204 A 
ATOM     15  C   UNL     1     -12.205   8.525  71.918  0.00  0.00    +0.164 A 
ATOM     16  C   UNL     1     -11.089   9.365  71.383  0.00  0.00    +0.076 C 
ATOM     17  O   UNL     1     -13.332   8.898  72.470  0.00  0.00    -0.395 OA
ATOM     18  C   UNL     1     -14.306   8.069  72.136  0.00  0.00    +0.521 A 
ATOM     19  O   UNL     1     -15.550   8.309  72.092  0.00  0.00    -0.202 OA
ATOM     20  O   UNL     1     -13.720   7.016  71.591  0.00  0.00    -0.391 OA
ENDBRANCH  13  14
ENDBRANCH  12  13
ENDBRANCH  10  12
ENDBRANCH   8  10
BRANCH   1  21
ATOM     21  O   UNL     1      -7.199   8.682  65.381  0.00  0.00    -0.448 OA
BRANCH  21  23
ATOM     22  C   UNL     1      -8.681  10.014  64.035  0.00  0.00    +0.051 C 
ATOM     23  C   UNL     1      -7.397   9.234  64.094  0.00  0.00    +0.209 C 
ENDBRANCH  21  23
ENDBRANCH   1  21
BRANCH   2  24
ATOM     24  C   UNL     1      -8.732   8.604  67.921  0.00  0.00    +0.137 C 
BRANCH  24  25
ATOM     25  C   UNL     1      -9.438   9.867  67.541  0.00  0.00    +0.001 A 
ATOM     26  C   UNL     1      -8.754  11.051  67.787  0.00  0.00    -0.002 A 
ATOM     27  C   UNL     1      -9.397  12.233  68.083  0.00  0.00    -0.000 A 
ATOM     28  C   UNL     1     -10.757  12.251  68.267  0.00  0.00    +0.000 A 
ATOM     29  C   UNL     1     -11.455  11.079  68.145  0.00  0.00    -0.000 A 
ATOM     30  C   UNL     1     -10.814   9.925  67.723  0.00  0.00    -0.002 A 
BRANCH  28  31
ATOM     31  C   UNL     1     -11.410  13.361  68.973  0.00  0.00    +0.003 A 
ATOM     32  C   UNL     1     -11.667  14.548  68.341  0.00  0.00    +0.039 A 
ATOM     33  C   UNL     1     -12.324  15.556  69.036  0.00  0.00    +0.003 A 
ATOM     34  C   UNL     1     -12.319  15.449  70.420  0.00  0.00    +0.000 A 
ATOM     35  C   UNL     1     -12.134  14.226  71.038  0.00  0.00    +0.000 A 
ATOM     36  C   UNL     1     -12.039  13.132  70.190  0.00  0.00    +0.000 A 
BRANCH  32  37
ATOM     37  C   UNL     1     -11.563  14.602  66.878  0.00  0.00    +0.207 A 
ATOM     38  N   UNL     1     -12.431  14.109  65.966  0.00  0.00    -0.151 NA
ATOM     39  C   UNL     1     -12.046  14.548  64.760  0.00  0.00    +0.463 A 
ATOM     40  O   UNL     1     -12.596  14.171  63.696  0.00  0.00    -0.219 OA
ATOM     41  O   UNL     1     -10.838  15.014  64.894  0.00  0.00    -0.294 OA
ATOM     42  N   UNL     1     -10.597  15.192  66.148  0.00  0.00    -0.052 NA
ENDBRANCH  32  37
ENDBRANCH  28  31
ENDBRANCH  24  25
ENDBRANCH   2  24
TORSDOF 10
ENDMDL
MODEL 8
REMARK VINA RESULT:      -7.5      2.362      9.052
REMARK  Name = 
REMARK  10 active torsions:
REMARK  status: ('A' for Active; 'I' for Inactive)
REMARK    1  A    between atoms: C_2  and  O_3
REMARK    2  A    between atoms: O_3  and  C_4
REMARK    3  A    between atoms: C_10  and  C_11
REMARK    4  A    between atoms: C_11  and  O_13
REMARK    5  A    between atoms: O_13  and  C_14
REMARK    6  A    between atoms: C_14  and  C_15
REMARK    7  A    between atoms: N_23  and  C_24
REMARK    8  A    between atoms: C_24  and  C_25
REMARK    9  A    between atoms: C_28  and  C_29
REMARK   10  A    between atoms: C_34  and  C_35
REMARK                            x       y       z     vdW  Elec       q    Type
REMARK                         _______ _______ _______ _____ _____    ______ ____
ROOT
ATOM      1  C   UNL     1     -12.188  14.783  70.675  0.00  0.00    +0.301 A 
ATOM      2  N   UNL     1     -11.528  14.645  69.498  0.00  0.00    -0.277 N 
ATOM      3  C   UNL     1     -11.577  13.337  69.146  0.00  0.00    +0.088 A 
ATOM      4  C   UNL     1     -11.906  12.642  70.303  0.00  0.00    +0.102 A 
ATOM      5  C   UNL     1     -12.182  11.285  70.268  0.00  0.00    +0.021 A 
ATOM      6  C   UNL     1     -11.902  10.602  69.100  0.00  0.00    +0.002 A 
ATOM      7  C   UNL     1     -11.945  11.317  67.934  0.00  0.00    +0.008 A 
ATOM      8  C   UNL     1     -11.576  12.657  67.934  0.00  0.00    +0.093 A 
ATOM      9  N   UNL     1     -12.072  13.566  71.257  0.00  0.00    -0.194 NA
ENDROOT
BRANCH   8  10
ATOM     10  C   UNL     1     -11.221  13.371  66.711  0.00  0.00    +0.343 C 
ATOM     11  O   UNL     1     -12.094  13.439  65.797  0.00  0.00    -0.245 OA
BRANCH  10  12
ATOM     12  O   UNL     1      -9.898  13.280  66.268  0.00  0.00    -0.437 OA
BRANCH  12  13
ATOM     13  C   UNL     1      -9.068  12.168  66.598  0.00  0.00    +0.275 C 
BRANCH  13  14
ATOM     14  C   UNL     1      -9.272  11.163  65.508  0.00  0.00    +0.204 A 
ATOM     15  C   UNL     1      -9.026   9.802  65.617  0.00  0.00    +0.164 A 
ATOM     16  C   UNL     1      -9.343   8.999  66.839  0.00  0.00    +0.076 C 
ATOM     17  O   UNL     1      -8.842   9.400  64.386  0.00  0.00    -0.395 OA
ATOM     18  C   UNL     1      -9.320  10.289  63.533  0.00  0.00    +0.521 A 
ATOM     19  O   UNL     1      -9.721  10.092  62.346  0.00  0.00    -0.202 OA
ATOM     20  O   UNL     1      -9.559  11.381  64.239  0.00  0.00    -0.391 OA
ENDBRANCH  13  14
ENDBRANCH  12  13
ENDBRANCH  10  12
ENDBRANCH   8  10
BRANCH   1  21
ATOM     21  O   UNL     1     -12.689  15.943  71.235  0.00  0.00    -0.448 OA
BRANCH  21  23
ATOM     22  C   UNL     1     -12.936  15.872  73.625  0.00  0.00    +0.051 C 
ATOM     23  C   UNL     1     -12.127  16.369  72.460  0.00  0.00    +0.209 C 
ENDBRANCH  21  23
ENDBRANCH   1  21
BRANCH   2  24
ATOM     24  C   UNL     1     -11.404  15.746  68.567  0.00  0.00    +0.137 C 
BRANCH  24  25
ATOM     25  C   UNL     1     -10.156  16.538  68.804  0.00  0.00    +0.001 A 
ATOM     26  C   UNL     1     -10.218  17.889  68.491  0.00  0.00    -0.002 A 
ATOM     27  C   UNL     1      -9.119  18.604  68.065  0.00  0.00    -0.000 A 
ATOM     28  C   UNL     1      -7.932  17.962  67.815  0.00  0.00    +0.000 A 
ATOM     29  C   UNL     1      -7.863  16.607  68.004  0.00  0.00    -0.000 A 
ATOM     30  C   UNL     1      -8.936  15.922  68.552  0.00  0.00    -0.002 A 
BRANCH  28  31
ATOM     31  C   UNL     1      -6.893  18.587  66.987  0.00  0.00    +0.003 A 
ATOM     32  C   UNL     1      -6.013  19.491  67.519  0.00  0.00    +0.039 A 
ATOM     33  C   UNL     1      -5.021  20.027  66.708  0.00  0.00    +0.003 A 
ATOM     34  C   UNL     1      -5.225  19.922  65.339  0.00  0.00    +0.000 A 
ATOM     35  C   UNL     1      -6.059  18.951  64.817  0.00  0.00    +0.000 A 
ATOM     36  C   UNL     1      -6.596  18.060  65.736  0.00  0.00    +0.000 A 
BRANCH  32  37
ATOM     37  C   UNL     1      -5.920  19.607  68.980  0.00  0.00    +0.207 A 
ATOM     38  N   UNL     1      -5.417  18.704  69.851  0.00  0.00    -0.151 NA
ATOM     39  C   UNL     1      -5.351  19.293  71.053  0.00  0.00    +0.463 A 
ATOM     40  O   UNL     1      -5.022  18.672  72.094  0.00  0.00    -0.219 OA
ATOM     41  O   UNL     1      -6.067  20.379  70.983  0.00  0.00    -0.294 OA
ATOM     42  N   UNL     1      -6.282  20.655  69.743  0.00  0.00    -0.052 NA
ENDBRANCH  32  37
ENDBRANCH  28  31
ENDBRANCH  24  25
ENDBRANCH   2  24
TORSDOF 10
ENDMDL
MODEL 9
REMARK VINA RESULT:      -7.5      3.237      9.270
REMARK  Name = 
REMARK  10 active torsions:
REMARK  status: ('A' for Active; 'I' for Inactive)
REMARK    1  A    between atoms: C_2  and  O_3
REMARK    2  A    between atoms: O_3  and  C_4
REMARK    3  A    between atoms: C_10  and  C_11
REMARK    4  A    between atoms: C_11  and  O_13
REMARK    5  A    between atoms: O_13  and  C_14
REMARK    6  A    between atoms: C_14  and  C_15
REMARK    7  A    between atoms: N_23  and  C_24
REMARK    8  A    between atoms: C_24  and  C_25
REMARK    9  A    between atoms: C_28  and  C_29
REMARK   10  A    between atoms: C_34  and  C_35
REMARK                            x       y       z     vdW  Elec       q    Type
REMARK                         _______ _______ _______ _____ _____    ______ ____
ROOT
ATOM      1  C   UNL     1     -11.396  16.230  69.099  0.00  0.00    +0.301 A 
ATOM      2  N   UNL     1     -10.910  14.966  69.023  0.00  0.00    -0.277 N 
ATOM      3  C   UNL     1     -11.576  14.211  69.931  0.00  0.00    +0.088 A 
ATOM      4  C   UNL     1     -12.160  15.106  70.818  0.00  0.00    +0.102 A 
ATOM      5  C   UNL     1     -13.040  14.672  71.795  0.00  0.00    +0.021 A 
ATOM      6  C   UNL     1     -13.144  13.311  72.008  0.00  0.00    +0.002 A 
ATOM      7  C   UNL     1     -12.879  12.491  70.945  0.00  0.00    +0.008 A 
ATOM      8  C   UNL     1     -11.925  12.868  70.006  0.00  0.00    +0.093 A 
ATOM      9  N   UNL     1     -11.848  16.328  70.371  0.00  0.00    -0.194 NA
ENDROOT
BRANCH   8  10
ATOM     10  C   UNL     1     -11.311  11.913  69.089  0.00  0.00    +0.343 C 
ATOM     11  O   UNL     1     -10.047  11.855  69.063  0.00  0.00    -0.245 OA
BRANCH  10  12
ATOM     12  O   UNL     1     -11.944  11.692  67.862  0.00  0.00    -0.437 OA
BRANCH  12  13
ATOM     13  C   UNL     1     -11.276  11.055  66.775  0.00  0.00    +0.275 C 
BRANCH  13  14
ATOM     14  C   UNL     1     -11.466  11.952  65.592  0.00  0.00    +0.204 A 
ATOM     15  C   UNL     1     -10.659  11.971  64.463  0.00  0.00    +0.164 A 
ATOM     16  C   UNL     1     -10.095  10.739  63.828  0.00  0.00    +0.076 C 
ATOM     17  O   UNL     1     -10.838  13.160  63.949  0.00  0.00    -0.395 OA
ATOM     18  C   UNL     1     -11.938  13.712  64.431  0.00  0.00    +0.521 A 
ATOM     19  O   UNL     1     -12.662  14.603  63.892  0.00  0.00    -0.202 OA
ATOM     20  O   UNL     1     -12.301  12.965  65.460  0.00  0.00    -0.391 OA
ENDBRANCH  13  14
ENDBRANCH  12  13
ENDBRANCH  10  12
ENDBRANCH   8  10
BRANCH   1  21
ATOM     21  O   UNL     1     -11.281  17.240  68.163  0.00  0.00    -0.448 OA
BRANCH  21  23
ATOM     22  C   UNL     1     -10.294  19.251  67.289  0.00  0.00    +0.051 C 
ATOM     23  C   UNL     1     -10.298  18.230  68.392  0.00  0.00    +0.209 C 
ENDBRANCH  21  23
ENDBRANCH   1  21
BRANCH   2  24
ATOM     24  C   UNL     1     -10.310  14.458  67.807  0.00  0.00    +0.137 C 
BRANCH  24  25
ATOM     25  C   UNL     1      -8.871  14.852  67.690  0.00  0.00    +0.001 A 
ATOM     26  C   UNL     1      -8.224  15.171  68.877  0.00  0.00    -0.002 A 
ATOM     27  C   UNL     1      -7.194  16.084  68.939  0.00  0.00    -0.000 A 
ATOM     28  C   UNL     1      -6.848  16.811  67.828  0.00  0.00    +0.000 A 
ATOM     29  C   UNL     1      -7.541  16.606  66.664  0.00  0.00    -0.000 A 
ATOM     30  C   UNL     1      -8.488  15.598  66.583  0.00  0.00    -0.002 A 
BRANCH  28  31
ATOM     31  C   UNL     1      -6.069  18.051  67.947  0.00  0.00    +0.003 A 
ATOM     32  C   UNL     1      -4.703  18.023  68.017  0.00  0.00    +0.039 A 
ATOM     33  C   UNL     1      -4.005  19.223  68.087  0.00  0.00    +0.003 A 
ATOM     34  C   UNL     1      -4.737  20.335  68.481  0.00  0.00    +0.000 A 
ATOM     35  C   UNL     1      -6.111  20.372  68.331  0.00  0.00    +0.000 A 
ATOM     36  C   UNL     1      -6.676  19.275  67.696  0.00  0.00    +0.000 A 
BRANCH  32  37
ATOM     37  C   UNL     1      -4.005  16.779  67.670  0.00  0.00    +0.207 A 
ATOM     38  N   UNL     1      -3.537  15.830  68.512  0.00  0.00    -0.151 NA
ATOM     39  C   UNL     1      -3.149  14.785  67.769  0.00  0.00    +0.463 A 
ATOM     40  O   UNL     1      -2.570  13.784  68.260  0.00  0.00    -0.219 OA
ATOM     41  O   UNL     1      -3.088  15.197  66.536  0.00  0.00    -0.294 OA
ATOM     42  N   UNL     1      -3.727  16.313  66.439  0.00  0.00    -0.052 NA
ENDBRANCH  32  37
ENDBRANCH  28  31
ENDBRANCH  24  25
ENDBRANCH   2  24
TORSDOF 10
ENDMDL
