MODEL 1
REMARK VINA RESULT:      -4.7      0.000      0.000
REMARK  Name = 
REMARK  1 active torsions:
REMARK  status: ('A' for Active; 'I' for Inactive)
REMARK    1  A    between atoms: C_2  and  C_4
REMARK                            x       y       z     vdW  Elec       q    Type
REMARK                         _______ _______ _______ _____ _____    ______ ____
ROOT
ATOM      1  C   UNL     1     -11.184  14.602  65.226  0.00  0.00    +0.119 A 
ATOM      2  C   UNL     1     -10.709  15.878  64.985  0.00  0.00    +0.202 A 
ATOM      3  O   UNL     1     -11.457  16.768  64.239  0.00  0.00    -0.286 OA
ATOM      4  C   UNL     1      -9.799  16.375  65.912  0.00  0.00    +0.042 A 
ATOM      5  C   UNL     1      -8.849  15.452  66.332  0.00  0.00    +0.003 A 
ATOM      6  C   UNL     1      -9.340  14.182  66.611  0.00  0.00    +0.000 A 
ATOM      7  C   UNL     1     -10.265  13.689  65.698  0.00  0.00    +0.010 A 
ENDROOT
BRANCH   1   9
ATOM      8  O   UNL     1     -12.402  13.834  63.420  0.00  0.00    -0.240 OA
ATOM      9  C   UNL     1     -12.449  14.226  64.616  0.00  0.00    +0.391 C 
ATOM     10  O   UNL     1     -13.554  14.060  65.425  0.00  0.00    -0.240 OA
ENDBRANCH   1   9
TORSDOF 1
ENDMDL
MODEL 2
REMARK VINA RESULT:      -4.5      6.535      7.262
REMARK  Name = 
REMARK  1 active torsions:
REMARK  status: ('A' for Active; 'I' for Inactive)
REMARK    1  A    between atoms: C_2  and  C_4
REMARK                            x       y       z     vdW  Elec       q    Type
REMARK                         _______ _______ _______ _____ _____    ______ ____
ROOT
ATOM      1  C   UNL     1     -13.149  14.503  71.959  0.00  0.00    +0.119 A 
ATOM      2  C   UNL     1     -12.620  14.693  70.695  0.00  0.00    +0.202 A 
ATOM      3  O   UNL     1     -12.386  15.971  70.226  0.00  0.00    -0.286 OA
ATOM      4  C   UNL     1     -11.870  13.639  70.183  0.00  0.00    +0.042 A 
ATOM      5  C   UNL     1     -12.412  12.382  70.423  0.00  0.00    +0.003 A 
ATOM      6  C   UNL     1     -12.906  12.185  71.707  0.00  0.00    +0.000 A 
ATOM      7  C   UNL     1     -13.639  13.244  72.231  0.00  0.00    +0.010 A 
ENDROOT
BRANCH   1   9
ATOM      8  O   UNL     1     -14.654  16.156  72.541  0.00  0.00    -0.240 OA
ATOM      9  C   UNL     1     -13.501  15.686  72.728  0.00  0.00    +0.391 C 
ATOM     10  O   UNL     1     -12.694  16.057  73.783  0.00  0.00    -0.240 OA
ENDBRANCH   1   9
TORSDOF 1
ENDMDL
MODEL 3
REMARK VINA RESULT:      -4.4      2.907      4.326
REMARK  Name = 
REMARK  1 active torsions:
REMARK  status: ('A' for Active; 'I' for Inactive)
REMARK    1  A    between atoms: C_2  and  C_4
REMARK                            x       y       z     vdW  Elec       q    Type
REMARK                         _______ _______ _______ _____ _____    ______ ____
ROOT
ATOM      1  C   UNL     1     -10.315  17.953  66.352  0.00  0.00    +0.119 A 
ATOM      2  C   UNL     1     -10.527  17.654  67.685  0.00  0.00    +0.202 A 
ATOM      3  O   UNL     1     -10.795  16.354  68.070  0.00  0.00    -0.286 OA
ATOM      4  C   UNL     1      -9.951  18.524  68.605  0.00  0.00    +0.042 A 
ATOM      5  C   UNL     1     -10.062  19.867  68.268  0.00  0.00    +0.003 A 
ATOM      6  C   UNL     1      -9.808  20.167  66.934  0.00  0.00    +0.000 A 
ATOM      7  C   UNL     1     -10.365  19.289  66.012  0.00  0.00    +0.010 A 
ENDROOT
BRANCH   1   9
ATOM      8  O   UNL     1     -11.281  17.049  64.458  0.00  0.00    -0.240 OA
ATOM      9  C   UNL     1     -10.450  16.874  65.387  0.00  0.00    +0.391 C 
ATOM     10  O   UNL     1      -9.504  15.869  65.377  0.00  0.00    -0.240 OA
ENDBRANCH   1   9
TORSDOF 1
ENDMDL
MODEL 4
REMARK VINA RESULT:      -4.4      1.794      3.409
REMARK  Name = 
REMARK  1 active torsions:
REMARK  status: ('A' for Active; 'I' for Inactive)
REMARK    1  A    between atoms: C_2  and  C_4
REMARK                            x       y       z     vdW  Elec       q    Type
REMARK                         _______ _______ _______ _____ _____    ______ ____
ROOT
ATOM      1  C   UNL     1     -10.887  15.397  65.933  0.00  0.00    +0.119 A 
ATOM      2  C   UNL     1     -11.660  15.424  64.787  0.00  0.00    +0.202 A 
ATOM      3  O   UNL     1     -11.567  16.490  63.913  0.00  0.00    -0.286 OA
ATOM      4  C   UNL     1     -12.072  14.188  64.300  0.00  0.00    +0.042 A 
ATOM      5  C   UNL     1     -12.490  13.298  65.282  0.00  0.00    +0.003 A 
ATOM      6  C   UNL     1     -11.686  13.246  66.416  0.00  0.00    +0.000 A 
ATOM      7  C   UNL     1     -11.255  14.478  66.893  0.00  0.00    +0.010 A 
ENDROOT
BRANCH   1   9
ATOM      8  O   UNL     1     -10.469  17.372  67.057  0.00  0.00    -0.240 OA
ATOM      9  C   UNL     1     -10.041  16.548  66.205  0.00  0.00    +0.391 C 
ATOM     10  O   UNL     1      -8.741  16.541  65.743  0.00  0.00    -0.240 OA
ENDBRANCH   1   9
TORSDOF 1
ENDMDL
MODEL 5
REMARK VINA RESULT:      -4.4      1.863      3.185
REMARK  Name = 
REMARK  1 active torsions:
REMARK  status: ('A' for Active; 'I' for Inactive)
REMARK    1  A    between atoms: C_2  and  C_4
REMARK                            x       y       z     vdW  Elec       q    Type
REMARK                         _______ _______ _______ _____ _____    ______ ____
ROOT
ATOM      1  C   UNL     1     -10.994  14.594  65.333  0.00  0.00    +0.119 A 
ATOM      2  C   UNL     1     -11.344  14.295  66.638  0.00  0.00    +0.202 A 
ATOM      3  O   UNL     1     -11.556  15.311  67.550  0.00  0.00    -0.286 OA
ATOM      4  C   UNL     1     -11.975  13.071  66.834  0.00  0.00    +0.042 A 
ATOM      5  C   UNL     1     -11.427  12.022  66.106  0.00  0.00    +0.003 A 
ATOM      6  C   UNL     1     -11.113  12.318  64.784  0.00  0.00    +0.000 A 
ATOM      7  C   UNL     1     -10.501  13.549  64.581  0.00  0.00    +0.010 A 
ENDROOT
BRANCH   1   9
ATOM      8  O   UNL     1      -9.744  16.535  65.419  0.00  0.00    -0.240 OA
ATOM      9  C   UNL     1     -10.797  15.993  64.991  0.00  0.00    +0.391 C 
ATOM     10  O   UNL     1     -11.602  16.560  64.024  0.00  0.00    -0.240 OA
ENDBRANCH   1   9
TORSDOF 1
ENDMDL
MODEL 6
REMARK VINA RESULT:      -4.4      6.443      7.404
REMARK  Name = 
REMARK  1 active torsions:
REMARK  status: ('A' for Active; 'I' for Inactive)
REMARK    1  A    between atoms: C_2  and  C_4
REMARK                            x       y       z     vdW  Elec       q    Type
REMARK                         _______ _______ _______ _____ _____    ______ ____
ROOT
ATOM      1  C   UNL     1     -12.550  15.395  71.899  0.00  0.00    +0.119 A 
ATOM      2  C   UNL     1     -12.678  14.057  71.574  0.00  0.00    +0.202 A 
ATOM      3  O   UNL     1     -13.427  13.217  72.375  0.00  0.00    -0.286 OA
ATOM      4  C   UNL     1     -12.515  13.738  70.230  0.00  0.00    +0.042 A 
ATOM      5  C   UNL     1     -11.470  14.408  69.606  0.00  0.00    +0.003 A 
ATOM      6  C   UNL     1     -11.371  15.762  69.906  0.00  0.00    +0.000 A 
ATOM      7  C   UNL     1     -11.553  16.088  71.245  0.00  0.00    +0.010 A 
ENDROOT
BRANCH   1   9
ATOM      8  O   UNL     1     -14.344  16.301  73.040  0.00  0.00    -0.240 OA
ATOM      9  C   UNL     1     -13.170  15.853  73.132  0.00  0.00    +0.391 C 
ATOM     10  O   UNL     1     -12.574  15.533  74.334  0.00  0.00    -0.240 OA
ENDBRANCH   1   9
TORSDOF 1
ENDMDL
MODEL 7
REMARK VINA RESULT:      -4.2      3.350      4.501
REMARK  Name = 
REMARK  1 active torsions:
REMARK  status: ('A' for Active; 'I' for Inactive)
REMARK    1  A    between atoms: C_2  and  C_4
REMARK                            x       y       z     vdW  Elec       q    Type
REMARK                         _______ _______ _______ _____ _____    ______ ____
ROOT
ATOM      1  C   UNL     1     -10.400  17.787  67.753  0.00  0.00    +0.119 A 
ATOM      2  C   UNL     1     -10.286  18.056  66.401  0.00  0.00    +0.202 A 
ATOM      3  O   UNL     1     -10.542  17.065  65.472  0.00  0.00    -0.286 OA
ATOM      4  C   UNL     1     -10.447  19.386  66.028  0.00  0.00    +0.042 A 
ATOM      5  C   UNL     1      -9.824  20.296  66.874  0.00  0.00    +0.003 A 
ATOM      6  C   UNL     1      -9.976  20.042  68.233  0.00  0.00    +0.000 A 
ATOM      7  C   UNL     1      -9.837  18.711  68.607  0.00  0.00    +0.010 A 
ENDROOT
BRANCH   1   9
ATOM      8  O   UNL     1      -9.782  15.596  68.146  0.00  0.00    -0.240 OA
ATOM      9  C   UNL     1     -10.729  16.426  68.145  0.00  0.00    +0.391 C 
ATOM     10  O   UNL     1     -11.951  16.182  68.739  0.00  0.00    -0.240 OA
ENDBRANCH   1   9
TORSDOF 1
ENDMDL
MODEL 8
REMARK VINA RESULT:      -4.2      2.208      2.800
REMARK  Name = 
REMARK  1 active torsions:
REMARK  status: ('A' for Active; 'I' for Inactive)
REMARK    1  A    between atoms: C_2  and  C_4
REMARK                            x       y       z     vdW  Elec       q    Type
REMARK                         _______ _______ _______ _____ _____    ______ ____
ROOT
ATOM      1  C   UNL     1     -11.805  12.600  65.386  0.00  0.00    +0.119 A 
ATOM      2  C   UNL     1     -11.771  13.957  65.652  0.00  0.00    +0.202 A 
ATOM      3  O   UNL     1     -11.925  14.870  64.627  0.00  0.00    -0.286 OA
ATOM      4  C   UNL     1     -12.116  14.333  66.946  0.00  0.00    +0.042 A 
ATOM      5  C   UNL     1     -11.590  13.515  67.938  0.00  0.00    +0.003 A 
ATOM      6  C   UNL     1     -11.663  12.150  67.682  0.00  0.00    +0.000 A 
ATOM      7  C   UNL     1     -11.339  11.772  66.384  0.00  0.00    +0.010 A 
ENDROOT
BRANCH   1   9
ATOM      8  O   UNL     1     -13.113  12.111  63.545  0.00  0.00    -0.240 OA
ATOM      9  C   UNL     1     -11.940  12.188  63.998  0.00  0.00    +0.391 C 
ATOM     10  O   UNL     1     -10.817  12.169  63.198  0.00  0.00    -0.240 OA
ENDBRANCH   1   9
TORSDOF 1
ENDMDL
MODEL 9
REMARK VINA RESULT:      -4.2      5.675      6.519
REMARK  Name = 
REMARK  1 active torsions:
REMARK  status: ('A' for Active; 'I' for Inactive)
REMARK    1  A    between atoms: C_2  and  C_4
REMARK                            x       y       z     vdW  Elec       q    Type
REMARK                         _______ _______ _______ _____ _____    ______ ____
ROOT
ATOM      1  C   UNL     1     -11.715  15.304  70.869  0.00  0.00    +0.119 A 
ATOM      2  C   UNL     1     -12.446  14.191  70.493  0.00  0.00    +0.202 A 
ATOM      3  O   UNL     1     -12.295  13.657  69.228  0.00  0.00    -0.286 OA
ATOM      4  C   UNL     1     -12.873  13.365  71.527  0.00  0.00    +0.042 A 
ATOM      5  C   UNL     1     -13.348  14.044  72.642  0.00  0.00    +0.003 A 
ATOM      6  C   UNL     1     -12.587  15.137  73.039  0.00  0.00    +0.000 A 
ATOM      7  C   UNL     1     -12.141  15.955  72.007  0.00  0.00    +0.010 A 
ENDROOT
BRANCH   1   9
ATOM      8  O   UNL     1      -9.680  15.455  69.787  0.00  0.00    -0.240 OA
ATOM      9  C   UNL     1     -10.850  15.912  69.871  0.00  0.00    +0.391 C 
ATOM     10  O   UNL     1     -11.412  16.737  68.918  0.00  0.00    -0.240 OA
ENDBRANCH   1   9
TORSDOF 1
ENDMDL
