MODEL 1
REMARK VINA RESULT:      -5.0      0.000      0.000
REMARK  Name = 
REMARK  1 active torsions:
REMARK  status: ('A' for Active; 'I' for Inactive)
REMARK    1  A    between atoms: C_2  and  C_3
REMARK                            x       y       z     vdW  Elec       q    Type
REMARK                         _______ _______ _______ _____ _____    ______ ____
ROOT
ATOM      1  C   UNL     1     -13.094  14.421  72.126  0.00  0.00    +0.080 C 
ATOM      2  C   UNL     1     -14.212  15.403  72.100  0.00  0.00    +0.247 C 
ATOM      3  O   UNL     1     -15.119  15.429  71.229  0.00  0.00    -0.273 OA
ATOM      4  N   UNL     1     -14.082  16.274  73.215  0.00  0.00    -0.145 NA
ATOM      5  C   UNL     1     -12.826  16.082  73.823  0.00  0.00    +0.248 C 
ATOM      6  O   UNL     1     -12.299  16.796  74.704  0.00  0.00    -0.273 OA
ATOM      7  C   UNL     1     -12.286  14.788  73.356  0.00  0.00    +0.096 C 
ATOM      8  C   UNL     1     -13.634  13.023  72.288  0.00  0.00    +0.010 C 
ENDROOT
BRANCH   1  10
ATOM      9  C   UNL     1     -12.156  13.298  70.272  0.00  0.00    +0.001 C 
ATOM     10  C   UNL     1     -12.269  14.560  70.852  0.00  0.00    +0.009 C 
ENDBRANCH   1  10
TORSDOF 1
ENDMDL
MODEL 2
REMARK VINA RESULT:      -4.7      6.831      7.731
REMARK  Name = 
REMARK  1 active torsions:
REMARK  status: ('A' for Active; 'I' for Inactive)
REMARK    1  A    between atoms: C_2  and  C_3
REMARK                            x       y       z     vdW  Elec       q    Type
REMARK                         _______ _______ _______ _____ _____    ______ ____
ROOT
ATOM      1  C   UNL     1     -11.285  13.498  65.785  0.00  0.00    +0.080 C 
ATOM      2  C   UNL     1     -12.434  13.450  64.839  0.00  0.00    +0.247 C 
ATOM      3  O   UNL     1     -13.121  12.424  64.603  0.00  0.00    -0.273 OA
ATOM      4  N   UNL     1     -12.618  14.742  64.278  0.00  0.00    -0.145 NA
ATOM      5  C   UNL     1     -11.521  15.563  64.606  0.00  0.00    +0.248 C 
ATOM      6  O   UNL     1     -11.256  16.690  64.134  0.00  0.00    -0.273 OA
ATOM      7  C   UNL     1     -10.802  14.934  65.734  0.00  0.00    +0.096 C 
ATOM      8  C   UNL     1     -11.750  13.182  67.184  0.00  0.00    +0.010 C 
ENDROOT
BRANCH   1  10
ATOM      9  C   UNL     1     -10.141  11.482  66.238  0.00  0.00    +0.001 C 
ATOM     10  C   UNL     1     -10.206  12.527  65.319  0.00  0.00    +0.009 C 
ENDBRANCH   1  10
TORSDOF 1
ENDMDL
MODEL 3
REMARK VINA RESULT:      -4.4      2.599      3.554
REMARK  Name = 
REMARK  1 active torsions:
REMARK  status: ('A' for Active; 'I' for Inactive)
REMARK    1  A    between atoms: C_2  and  C_3
REMARK                            x       y       z     vdW  Elec       q    Type
REMARK                         _______ _______ _______ _____ _____    ______ ____
ROOT
ATOM      1  C   UNL     1     -13.266  14.752  71.924  0.00  0.00    +0.080 C 
ATOM      2  C   UNL     1     -12.942  13.376  71.457  0.00  0.00    +0.247 C 
ATOM      3  O   UNL     1     -13.413  12.323  71.958  0.00  0.00    -0.273 OA
ATOM      4  N   UNL     1     -12.039  13.466  70.363  0.00  0.00    -0.145 NA
ATOM      5  C   UNL     1     -11.566  14.787  70.246  0.00  0.00    +0.248 C 
ATOM      6  O   UNL     1     -10.629  15.189  69.523  0.00  0.00    -0.273 OA
ATOM      7  C   UNL     1     -12.474  15.667  71.011  0.00  0.00    +0.096 C 
ATOM      8  C   UNL     1     -14.738  15.027  71.745  0.00  0.00    +0.010 C 
ENDROOT
BRANCH   1  10
ATOM      9  C   UNL     1     -12.496  16.240  73.588  0.00  0.00    +0.001 C 
ATOM     10  C   UNL     1     -12.839  14.906  73.379  0.00  0.00    +0.009 C 
ENDBRANCH   1  10
TORSDOF 1
ENDMDL
MODEL 4
REMARK VINA RESULT:      -4.4      6.289      7.817
REMARK  Name = 
REMARK  1 active torsions:
REMARK  status: ('A' for Active; 'I' for Inactive)
REMARK    1  A    between atoms: C_2  and  C_3
REMARK                            x       y       z     vdW  Elec       q    Type
REMARK                         _______ _______ _______ _____ _____    ______ ____
ROOT
ATOM      1  C   UNL     1     -10.932  14.864  65.912  0.00  0.00    +0.080 C 
ATOM      2  C   UNL     1     -11.523  15.502  64.703  0.00  0.00    +0.247 C 
ATOM      3  O   UNL     1     -11.316  16.690  64.350  0.00  0.00    -0.273 OA
ATOM      4  N   UNL     1     -12.331  14.545  64.031  0.00  0.00    -0.145 NA
ATOM      5  C   UNL     1     -12.501  13.410  64.848  0.00  0.00    +0.248 C 
ATOM      6  O   UNL     1     -13.294  12.462  64.662  0.00  0.00    -0.273 OA
ATOM      7  C   UNL     1     -11.463  13.444  65.899  0.00  0.00    +0.096 C 
ATOM      8  C   UNL     1      -9.429  14.832  65.798  0.00  0.00    +0.010 C 
ENDROOT
BRANCH   1  10
ATOM      9  C   UNL     1     -11.595  14.691  68.172  0.00  0.00    +0.001 C 
ATOM     10  C   UNL     1     -11.385  15.620  67.155  0.00  0.00    +0.009 C 
ENDBRANCH   1  10
TORSDOF 1
ENDMDL
MODEL 5
REMARK VINA RESULT:      -4.2      7.090      7.728
REMARK  Name = 
REMARK  1 active torsions:
REMARK  status: ('A' for Active; 'I' for Inactive)
REMARK    1  A    between atoms: C_2  and  C_3
REMARK                            x       y       z     vdW  Elec       q    Type
REMARK                         _______ _______ _______ _____ _____    ______ ____
ROOT
ATOM      1  C   UNL     1     -11.127  14.371  65.338  0.00  0.00    +0.080 C 
ATOM      2  C   UNL     1     -11.158  15.745  64.764  0.00  0.00    +0.247 C 
ATOM      3  O   UNL     1     -12.008  16.152  63.932  0.00  0.00    -0.273 OA
ATOM      4  N   UNL     1     -10.089  16.497  65.321  0.00  0.00    -0.145 NA
ATOM      5  C   UNL     1      -9.223  15.638  66.028  0.00  0.00    +0.248 C 
ATOM      6  O   UNL     1      -8.093  15.919  66.484  0.00  0.00    -0.273 OA
ATOM      7  C   UNL     1      -9.944  14.374  66.284  0.00  0.00    +0.096 C 
ATOM      8  C   UNL     1     -12.388  14.109  66.122  0.00  0.00    +0.010 C 
ENDROOT
BRANCH   1  10
ATOM      9  C   UNL     1     -12.120  12.618  64.105  0.00  0.00    +0.001 C 
ATOM     10  C   UNL     1     -10.944  13.358  64.214  0.00  0.00    +0.009 C 
ENDBRANCH   1  10
TORSDOF 1
ENDMDL
MODEL 6
REMARK VINA RESULT:      -4.2      6.059      7.624
REMARK  Name = 
REMARK  1 active torsions:
REMARK  status: ('A' for Active; 'I' for Inactive)
REMARK    1  A    between atoms: C_2  and  C_3
REMARK                            x       y       z     vdW  Elec       q    Type
REMARK                         _______ _______ _______ _____ _____    ______ ____
ROOT
ATOM      1  C   UNL     1     -11.199  13.849  66.551  0.00  0.00    +0.080 C 
ATOM      2  C   UNL     1     -11.881  12.530  66.436  0.00  0.00    +0.247 C 
ATOM      3  O   UNL     1     -11.815  11.615  67.296  0.00  0.00    -0.273 OA
ATOM      4  N   UNL     1     -12.611  12.498  65.217  0.00  0.00    -0.145 NA
ATOM      5  C   UNL     1     -12.255  13.604  64.421  0.00  0.00    +0.248 C 
ATOM      6  O   UNL     1     -12.554  13.797  63.223  0.00  0.00    -0.273 OA
ATOM      7  C   UNL     1     -11.589  14.596  65.291  0.00  0.00    +0.096 C 
ATOM      8  C   UNL     1     -11.718  14.598  67.751  0.00  0.00    +0.010 C 
ENDROOT
BRANCH   1  10
ATOM      9  C   UNL     1      -9.075  14.881  66.562  0.00  0.00    +0.001 C 
ATOM     10  C   UNL     1      -9.692  13.634  66.631  0.00  0.00    +0.009 C 
ENDBRANCH   1  10
TORSDOF 1
ENDMDL
MODEL 7
REMARK VINA RESULT:      -4.2      6.601      7.927
REMARK  Name = 
REMARK  1 active torsions:
REMARK  status: ('A' for Active; 'I' for Inactive)
REMARK    1  A    between atoms: C_2  and  C_3
REMARK                            x       y       z     vdW  Elec       q    Type
REMARK                         _______ _______ _______ _____ _____    ______ ____
ROOT
ATOM      1  C   UNL     1     -10.165  15.938  66.269  0.00  0.00    +0.080 C 
ATOM      2  C   UNL     1     -10.569  17.122  65.463  0.00  0.00    +0.247 C 
ATOM      3  O   UNL     1     -10.245  18.308  65.724  0.00  0.00    -0.273 OA
ATOM      4  N   UNL     1     -11.356  16.680  64.365  0.00  0.00    -0.145 NA
ATOM      5  C   UNL     1     -11.694  15.323  64.539  0.00  0.00    +0.248 C 
ATOM      6  O   UNL     1     -12.521  14.662  63.874  0.00  0.00    -0.273 OA
ATOM      7  C   UNL     1     -10.783  14.753  65.553  0.00  0.00    +0.096 C 
ATOM      8  C   UNL     1      -8.664  15.793  66.261  0.00  0.00    +0.010 C 
ENDROOT
BRANCH   1  10
ATOM      9  C   UNL     1      -9.625  16.255  68.546  0.00  0.00    +0.001 C 
ATOM     10  C   UNL     1     -10.707  16.081  67.686  0.00  0.00    +0.009 C 
ENDBRANCH   1  10
TORSDOF 1
ENDMDL
MODEL 8
REMARK VINA RESULT:      -4.1      6.190      7.636
REMARK  Name = 
REMARK  1 active torsions:
REMARK  status: ('A' for Active; 'I' for Inactive)
REMARK    1  A    between atoms: C_2  and  C_3
REMARK                            x       y       z     vdW  Elec       q    Type
REMARK                         _______ _______ _______ _____ _____    ______ ____
ROOT
ATOM      1  C   UNL     1     -11.098  12.644  66.462  0.00  0.00    +0.080 C 
ATOM      2  C   UNL     1     -12.056  13.783  66.446  0.00  0.00    +0.247 C 
ATOM      3  O   UNL     1     -12.181  14.623  67.373  0.00  0.00    -0.273 OA
ATOM      4  N   UNL     1     -12.776  13.758  65.221  0.00  0.00    -0.145 NA
ATOM      5  C   UNL     1     -12.526  12.545  64.549  0.00  0.00    +0.248 C 
ATOM      6  O   UNL     1     -13.127  12.104  63.545  0.00  0.00    -0.273 OA
ATOM      7  C   UNL     1     -11.314  11.939  65.137  0.00  0.00    +0.096 C 
ATOM      8  C   UNL     1      -9.682  13.157  66.524  0.00  0.00    +0.010 C 
ENDROOT
BRANCH   1  10
ATOM      9  C   UNL     1     -10.971  10.449  67.325  0.00  0.00    +0.001 C 
ATOM     10  C   UNL     1     -11.417  11.731  67.640  0.00  0.00    +0.009 C 
ENDBRANCH   1  10
TORSDOF 1
ENDMDL
MODEL 9
REMARK VINA RESULT:      -4.1      5.980      7.443
REMARK  Name = 
REMARK  1 active torsions:
REMARK  status: ('A' for Active; 'I' for Inactive)
REMARK    1  A    between atoms: C_2  and  C_3
REMARK                            x       y       z     vdW  Elec       q    Type
REMARK                         _______ _______ _______ _____ _____    ______ ____
ROOT
ATOM      1  C   UNL     1     -10.815  14.126  66.319  0.00  0.00    +0.080 C 
ATOM      2  C   UNL     1      -9.871  15.239  66.610  0.00  0.00    +0.247 C 
ATOM      3  O   UNL     1      -9.107  15.285  67.607  0.00  0.00    -0.273 OA
ATOM      4  N   UNL     1      -9.976  16.209  65.576  0.00  0.00    -0.145 NA
ATOM      5  C   UNL     1     -11.093  15.921  64.768  0.00  0.00    +0.248 C 
ATOM      6  O   UNL     1     -11.595  16.655  63.888  0.00  0.00    -0.273 OA
ATOM      7  C   UNL     1     -11.492  14.520  65.021  0.00  0.00    +0.096 C 
ATOM      8  C   UNL     1     -10.054  12.841  66.110  0.00  0.00    +0.010 C 
ENDROOT
BRANCH   1  10
ATOM      9  C   UNL     1     -11.715  12.718  67.989  0.00  0.00    +0.001 C 
ATOM     10  C   UNL     1     -11.819  14.003  67.460  0.00  0.00    +0.009 C 
ENDBRANCH   1  10
TORSDOF 1
ENDMDL
