MODEL 1
REMARK VINA RESULT:      -5.3      0.000      0.000
REMARK  Name = 
REMARK  2 active torsions:
REMARK  status: ('A' for Active; 'I' for Inactive)
REMARK    1  A    between atoms: O_2  and  C_3
REMARK    2  A    between atoms: C_3  and  C_5
REMARK                            x       y       z     vdW  Elec       q    Type
REMARK                         _______ _______ _______ _____ _____    ______ ____
ROOT
ATOM      1  C   UNL     1     -11.034  14.650  64.985  0.00  0.00    +0.114 A 
ATOM      2  C   UNL     1     -10.897  16.032  64.997  0.00  0.00    +0.202 A 
ATOM      3  O   UNL     1     -11.511  16.738  63.958  0.00  0.00    -0.286 OA
ATOM      4  C   UNL     1     -10.122  16.666  65.961  0.00  0.00    +0.038 A 
ATOM      5  C   UNL     1      -9.353  15.909  66.824  0.00  0.00    -0.019 A 
ATOM      6  C   UNL     1      -9.084  16.509  68.166  0.00  0.00    +0.031 C 
ATOM      7  C   UNL     1      -9.193  14.575  66.554  0.00  0.00    -0.004 A 
ATOM      8  C   UNL     1     -10.084  13.955  65.702  0.00  0.00    +0.009 A 
ENDROOT
BRANCH   1   9
ATOM      9  C   UNL     1     -12.306  14.061  64.567  0.00  0.00    +0.344 C 
ATOM     10  O   UNL     1     -13.304  13.996  65.347  0.00  0.00    -0.245 OA
BRANCH   9  12
ATOM     11  C   UNL     1     -12.392  11.909  63.378  0.00  0.00    +0.256 C 
ATOM     12  O   UNL     1     -12.428  13.320  63.392  0.00  0.00    -0.441 OA
ENDBRANCH   9  12
ENDBRANCH   1   9
TORSDOF 2
ENDMDL
MODEL 2
REMARK VINA RESULT:      -5.1      5.500      7.220
REMARK  Name = 
REMARK  2 active torsions:
REMARK  status: ('A' for Active; 'I' for Inactive)
REMARK    1  A    between atoms: O_2  and  C_3
REMARK    2  A    between atoms: C_3  and  C_5
REMARK                            x       y       z     vdW  Elec       q    Type
REMARK                         _______ _______ _______ _____ _____    ______ ____
ROOT
ATOM      1  C   UNL     1     -12.585  15.172  71.461  0.00  0.00    +0.114 A 
ATOM      2  C   UNL     1     -12.617  13.879  70.955  0.00  0.00    +0.202 A 
ATOM      3  O   UNL     1     -13.095  12.878  71.805  0.00  0.00    -0.286 OA
ATOM      4  C   UNL     1     -12.123  13.595  69.687  0.00  0.00    +0.038 A 
ATOM      5  C   UNL     1     -11.453  14.574  68.980  0.00  0.00    -0.019 A 
ATOM      6  C   UNL     1     -11.523  14.478  67.490  0.00  0.00    +0.031 C 
ATOM      7  C   UNL     1     -11.088  15.719  69.640  0.00  0.00    -0.004 A 
ATOM      8  C   UNL     1     -11.717  16.035  70.827  0.00  0.00    +0.009 A 
ENDROOT
BRANCH   1   9
ATOM      9  C   UNL     1     -13.673  15.628  72.325  0.00  0.00    +0.344 C 
ATOM     10  O   UNL     1     -14.850  15.807  71.886  0.00  0.00    -0.245 OA
BRANCH   9  12
ATOM     11  C   UNL     1     -12.440  15.609  74.453  0.00  0.00    +0.256 C 
ATOM     12  O   UNL     1     -13.442  16.128  73.606  0.00  0.00    -0.441 OA
ENDBRANCH   9  12
ENDBRANCH   1   9
TORSDOF 2
ENDMDL
MODEL 3
REMARK VINA RESULT:      -4.7      1.947      4.380
REMARK  Name = 
REMARK  2 active torsions:
REMARK  status: ('A' for Active; 'I' for Inactive)
REMARK    1  A    between atoms: O_2  and  C_3
REMARK    2  A    between atoms: C_3  and  C_5
REMARK                            x       y       z     vdW  Elec       q    Type
REMARK                         _______ _______ _______ _____ _____    ______ ____
ROOT
ATOM      1  C   UNL     1     -10.735  15.629  66.070  0.00  0.00    +0.114 A 
ATOM      2  C   UNL     1     -11.382  15.696  64.843  0.00  0.00    +0.202 A 
ATOM      3  O   UNL     1     -11.331  16.919  64.167  0.00  0.00    -0.286 OA
ATOM      4  C   UNL     1     -12.105  14.614  64.355  0.00  0.00    +0.038 A 
ATOM      5  C   UNL     1     -12.315  13.514  65.163  0.00  0.00    -0.019 A 
ATOM      6  C   UNL     1     -12.487  12.204  64.464  0.00  0.00    +0.031 C 
ATOM      7  C   UNL     1     -12.009  13.617  66.495  0.00  0.00    -0.004 A 
ATOM      8  C   UNL     1     -11.163  14.624  66.910  0.00  0.00    +0.009 A 
ENDROOT
BRANCH   1   9
ATOM      9  C   UNL     1      -9.461  16.327  66.246  0.00  0.00    +0.344 C 
ATOM     10  O   UNL     1      -8.352  15.712  66.241  0.00  0.00    -0.245 OA
BRANCH   9  12
ATOM     11  C   UNL     1     -10.407  18.247  67.457  0.00  0.00    +0.256 C 
ATOM     12  O   UNL     1      -9.397  17.653  66.672  0.00  0.00    -0.441 OA
ENDBRANCH   9  12
ENDBRANCH   1   9
TORSDOF 2
ENDMDL
MODEL 4
REMARK VINA RESULT:      -4.6      4.059      4.562
REMARK  Name = 
REMARK  2 active torsions:
REMARK  status: ('A' for Active; 'I' for Inactive)
REMARK    1  A    between atoms: O_2  and  C_3
REMARK    2  A    between atoms: C_3  and  C_5
REMARK                            x       y       z     vdW  Elec       q    Type
REMARK                         _______ _______ _______ _____ _____    ______ ____
ROOT
ATOM      1  C   UNL     1     -11.619  14.453  68.679  0.00  0.00    +0.114 A 
ATOM      2  C   UNL     1     -11.892  15.628  69.367  0.00  0.00    +0.202 A 
ATOM      3  O   UNL     1     -11.345  16.806  68.850  0.00  0.00    -0.286 OA
ATOM      4  C   UNL     1     -12.615  15.609  70.554  0.00  0.00    +0.038 A 
ATOM      5  C   UNL     1     -12.935  14.400  71.139  0.00  0.00    -0.019 A 
ATOM      6  C   UNL     1     -14.179  14.375  71.967  0.00  0.00    +0.031 C 
ATOM      7  C   UNL     1     -12.330  13.267  70.663  0.00  0.00    -0.004 A 
ATOM      8  C   UNL     1     -11.754  13.293  69.410  0.00  0.00    +0.009 A 
ENDROOT
BRANCH   1   9
ATOM      9  C   UNL     1     -11.582  14.474  67.216  0.00  0.00    +0.344 C 
ATOM     10  O   UNL     1     -12.573  14.107  66.514  0.00  0.00    -0.245 OA
BRANCH   9  12
ATOM     11  C   UNL     1     -10.298  14.432  65.118  0.00  0.00    +0.256 C 
ATOM     12  O   UNL     1     -10.395  14.655  66.508  0.00  0.00    -0.441 OA
ENDBRANCH   9  12
ENDBRANCH   1   9
TORSDOF 2
ENDMDL
MODEL 5
REMARK VINA RESULT:      -4.5      2.944      3.118
REMARK  Name = 
REMARK  2 active torsions:
REMARK  status: ('A' for Active; 'I' for Inactive)
REMARK    1  A    between atoms: O_2  and  C_3
REMARK    2  A    between atoms: C_3  and  C_5
REMARK                            x       y       z     vdW  Elec       q    Type
REMARK                         _______ _______ _______ _____ _____    ______ ____
ROOT
ATOM      1  C   UNL     1     -11.701  13.624  66.879  0.00  0.00    +0.114 A 
ATOM      2  C   UNL     1     -11.407  14.738  67.655  0.00  0.00    +0.202 A 
ATOM      3  O   UNL     1     -10.915  15.863  66.986  0.00  0.00    -0.286 OA
ATOM      4  C   UNL     1     -11.530  14.699  69.039  0.00  0.00    +0.038 A 
ATOM      5  C   UNL     1     -11.797  13.498  69.666  0.00  0.00    -0.019 A 
ATOM      6  C   UNL     1     -12.535  13.580  70.963  0.00  0.00    +0.031 C 
ATOM      7  C   UNL     1     -11.699  12.344  68.932  0.00  0.00    -0.004 A 
ATOM      8  C   UNL     1     -11.733  12.424  67.555  0.00  0.00    +0.009 A 
ENDROOT
BRANCH   1   9
ATOM      9  C   UNL     1     -12.301  13.812  65.558  0.00  0.00    +0.344 C 
ATOM     10  O   UNL     1     -13.543  14.016  65.407  0.00  0.00    -0.245 OA
BRANCH   9  12
ATOM     11  C   UNL     1     -12.054  12.589  63.437  0.00  0.00    +0.256 C 
ATOM     12  O   UNL     1     -11.603  13.535  64.383  0.00  0.00    -0.441 OA
ENDBRANCH   9  12
ENDBRANCH   1   9
TORSDOF 2
ENDMDL
MODEL 6
REMARK VINA RESULT:      -4.5      4.447      5.947
REMARK  Name = 
REMARK  2 active torsions:
REMARK  status: ('A' for Active; 'I' for Inactive)
REMARK    1  A    between atoms: O_2  and  C_3
REMARK    2  A    between atoms: C_3  and  C_5
REMARK                            x       y       z     vdW  Elec       q    Type
REMARK                         _______ _______ _______ _____ _____    ______ ____
ROOT
ATOM      1  C   UNL     1     -11.803  15.080  69.765  0.00  0.00    +0.114 A 
ATOM      2  C   UNL     1     -11.963  13.735  69.459  0.00  0.00    +0.202 A 
ATOM      3  O   UNL     1     -12.014  12.842  70.533  0.00  0.00    -0.286 OA
ATOM      4  C   UNL     1     -11.994  13.302  68.139  0.00  0.00    +0.038 A 
ATOM      5  C   UNL     1     -11.710  14.191  67.121  0.00  0.00    -0.019 A 
ATOM      6  C   UNL     1     -12.356  13.914  65.802  0.00  0.00    +0.031 C 
ATOM      7  C   UNL     1     -11.176  15.409  67.452  0.00  0.00    -0.004 A 
ATOM      8  C   UNL     1     -11.303  15.864  68.748  0.00  0.00    +0.009 A 
ENDROOT
BRANCH   1   9
ATOM      9  C   UNL     1     -12.486  15.632  70.936  0.00  0.00    +0.344 C 
ATOM     10  O   UNL     1     -11.865  15.911  72.006  0.00  0.00    -0.245 OA
BRANCH   9  12
ATOM     11  C   UNL     1     -14.587  14.786  71.895  0.00  0.00    +0.256 C 
ATOM     12  O   UNL     1     -13.876  15.654  71.040  0.00  0.00    -0.441 OA
ENDBRANCH   9  12
ENDBRANCH   1   9
TORSDOF 2
ENDMDL
MODEL 7
REMARK VINA RESULT:      -4.5      6.080      7.425
REMARK  Name = 
REMARK  2 active torsions:
REMARK  status: ('A' for Active; 'I' for Inactive)
REMARK    1  A    between atoms: O_2  and  C_3
REMARK    2  A    between atoms: C_3  and  C_5
REMARK                            x       y       z     vdW  Elec       q    Type
REMARK                         _______ _______ _______ _____ _____    ______ ____
ROOT
ATOM      1  C   UNL     1     -12.824  13.635  71.137  0.00  0.00    +0.114 A 
ATOM      2  C   UNL     1     -12.177  13.228  69.978  0.00  0.00    +0.202 A 
ATOM      3  O   UNL     1     -12.037  14.181  68.963  0.00  0.00    -0.286 OA
ATOM      4  C   UNL     1     -11.759  11.913  69.816  0.00  0.00    +0.038 A 
ATOM      5  C   UNL     1     -12.125  10.961  70.747  0.00  0.00    -0.019 A 
ATOM      6  C   UNL     1     -11.191   9.807  70.914  0.00  0.00    +0.031 C 
ATOM      7  C   UNL     1     -13.081  11.290  71.672  0.00  0.00    -0.004 A 
ATOM      8  C   UNL     1     -13.355  12.622  71.905  0.00  0.00    +0.009 A 
ENDROOT
BRANCH   1   9
ATOM      9  C   UNL     1     -12.591  14.986  71.649  0.00  0.00    +0.344 C 
ATOM     10  O   UNL     1     -12.891  16.020  70.977  0.00  0.00    -0.245 OA
BRANCH   9  12
ATOM     11  C   UNL     1     -12.371  15.451  74.054  0.00  0.00    +0.256 C 
ATOM     12  O   UNL     1     -11.811  15.225  72.779  0.00  0.00    -0.441 OA
ENDBRANCH   9  12
ENDBRANCH   1   9
TORSDOF 2
ENDMDL
MODEL 8
REMARK VINA RESULT:      -4.4      3.202      4.838
REMARK  Name = 
REMARK  2 active torsions:
REMARK  status: ('A' for Active; 'I' for Inactive)
REMARK    1  A    between atoms: O_2  and  C_3
REMARK    2  A    between atoms: C_3  and  C_5
REMARK                            x       y       z     vdW  Elec       q    Type
REMARK                         _______ _______ _______ _____ _____    ______ ____
ROOT
ATOM      1  C   UNL     1     -11.282  11.934  65.743  0.00  0.00    +0.114 A 
ATOM      2  C   UNL     1     -11.382  11.596  67.086  0.00  0.00    +0.202 A 
ATOM      3  O   UNL     1     -11.824  12.595  67.959  0.00  0.00    -0.286 OA
ATOM      4  C   UNL     1     -10.987  10.344  67.540  0.00  0.00    +0.038 A 
ATOM      5  C   UNL     1     -10.344   9.477  66.678  0.00  0.00    -0.019 A 
ATOM      6  C   UNL     1     -10.521   8.019  66.954  0.00  0.00    +0.031 C 
ATOM      7  C   UNL     1      -9.905   9.963  65.474  0.00  0.00    -0.004 A 
ATOM      8  C   UNL     1     -10.440  11.141  64.994  0.00  0.00    +0.009 A 
ENDROOT
BRANCH   1   9
ATOM      9  C   UNL     1     -12.295  12.806  65.148  0.00  0.00    +0.344 C 
ATOM     10  O   UNL     1     -13.269  12.345  64.480  0.00  0.00    -0.245 OA
BRANCH   9  12
ATOM     11  C   UNL     1     -10.852  14.797  65.071  0.00  0.00    +0.256 C 
ATOM     12  O   UNL     1     -12.124  14.187  65.063  0.00  0.00    -0.441 OA
ENDBRANCH   9  12
ENDBRANCH   1   9
TORSDOF 2
ENDMDL
MODEL 9
REMARK VINA RESULT:      -4.4      1.578      2.375
REMARK  Name = 
REMARK  2 active torsions:
REMARK  status: ('A' for Active; 'I' for Inactive)
REMARK    1  A    between atoms: O_2  and  C_3
REMARK    2  A    between atoms: C_3  and  C_5
REMARK                            x       y       z     vdW  Elec       q    Type
REMARK                         _______ _______ _______ _____ _____    ______ ____
ROOT
ATOM      1  C   UNL     1      -9.887  15.885  65.786  0.00  0.00    +0.114 A 
ATOM      2  C   UNL     1     -10.561  17.045  65.429  0.00  0.00    +0.202 A 
ATOM      3  O   UNL     1     -11.312  17.003  64.250  0.00  0.00    -0.286 OA
ATOM      4  C   UNL     1     -10.427  18.209  66.176  0.00  0.00    +0.038 A 
ATOM      5  C   UNL     1      -9.497  18.262  67.195  0.00  0.00    -0.019 A 
ATOM      6  C   UNL     1      -9.808  19.188  68.326  0.00  0.00    +0.031 C 
ATOM      7  C   UNL     1      -8.573  17.254  67.286  0.00  0.00    -0.004 A 
ATOM      8  C   UNL     1      -8.823  16.058  66.645  0.00  0.00    +0.009 A 
ENDROOT
BRANCH   1   9
ATOM      9  C   UNL     1     -10.526  14.588  65.561  0.00  0.00    +0.344 C 
ATOM     10  O   UNL     1     -10.160  13.812  64.626  0.00  0.00    -0.245 OA
BRANCH   9  12
ATOM     11  C   UNL     1     -12.812  13.683  65.480  0.00  0.00    +0.256 C 
ATOM     12  O   UNL     1     -11.721  14.234  66.185  0.00  0.00    -0.441 OA
ENDBRANCH   9  12
ENDBRANCH   1   9
TORSDOF 2
ENDMDL
