MODEL 1
REMARK VINA RESULT:      -9.4      0.000      0.000
REMARK  Name = 
REMARK  4 active torsions:
REMARK  status: ('A' for Active; 'I' for Inactive)
REMARK    1  A    between atoms: O_2  and  C_3
REMARK    2  A    between atoms: C_22  and  C_24
REMARK    3  A    between atoms: C_28  and  O_29
REMARK    4  A    between atoms: O_29  and  C_30
REMARK                            x       y       z     vdW  Elec       q    Type
REMARK                         _______ _______ _______ _____ _____    ______ ____
ROOT
ATOM      1  C   UNL     1     -11.953   8.834  71.924  0.00  0.00    +0.142 A 
ATOM      2  C   UNL     1     -11.132   9.474  71.001  0.00  0.00    +0.076 A 
ATOM      3  C   UNL     1     -11.498  10.777  70.441  0.00  0.00    +0.202 C 
ATOM      4  C   UNL     1     -10.944  11.146  69.130  0.00  0.00    +0.084 A 
ATOM      5  C   UNL     1     -10.205  10.197  68.428  0.00  0.00    +0.084 A 
ATOM      6  C   UNL     1      -9.567   9.069  69.118  0.00  0.00    +0.199 C 
ATOM      7  O   UNL     1      -8.990   8.197  68.419  0.00  0.00    -0.286 OA
ATOM      8  C   UNL     1     -10.129  10.273  67.042  0.00  0.00    +0.195 A 
ATOM      9  O   UNL     1      -9.947   9.115  66.278  0.00  0.00    -0.287 OA
ATOM     10  C   UNL     1     -10.633  11.402  66.407  0.00  0.00    +0.021 A 
ATOM     11  C   UNL     1     -11.223  11.298  65.042  0.00  0.00    +0.067 C 
ATOM     12  C   UNL     1     -10.876  12.553  64.305  0.00  0.00    +0.184 C 
ATOM     13  C   UNL     1     -10.364  13.654  65.145  0.00  0.00    +0.072 C 
ATOM     14  C   UNL     1     -11.463  13.782  66.422  0.00  0.00    +0.146 C 
ATOM     15  O   UNL     1      -9.794  12.189  63.487  0.00  0.00    -0.218 OA
ATOM     16  C   UNL     1     -10.764  12.514  67.238  0.00  0.00    +0.043 A 
ATOM     17  C   UNL     1     -11.452  12.232  68.424  0.00  0.00    +0.197 A 
ATOM     18  O   UNL     1     -12.188  13.177  69.114  0.00  0.00    -0.287 OA
ATOM     19  O   UNL     1     -12.530  11.374  70.873  0.00  0.00    -0.286 OA
ATOM     20  C   UNL     1     -10.005   8.838  70.493  0.00  0.00    +0.045 A 
ATOM     21  C   UNL     1      -9.453   7.784  71.186  0.00  0.00    +0.003 A 
ATOM     22  C   UNL     1     -10.062   7.392  72.351  0.00  0.00    +0.003 A 
ATOM     23  C   UNL     1     -11.311   7.887  72.709  0.00  0.00    +0.037 A 
ENDROOT
BRANCH  12  24
ATOM     24  C   UNL     1     -12.040  12.931  63.453  0.00  0.00    +0.179 C 
ATOM     25  O   UNL     1     -12.393  14.105  63.545  0.00  0.00    -0.293 OA
ATOM     26  C   UNL     1     -13.031  11.839  63.184  0.00  0.00    +0.075 C 
ENDBRANCH  12  24
BRANCH   1  28
ATOM     27  C   UNL     1     -14.349   8.582  72.158  0.00  0.00    +0.252 C 
ATOM     28  O   UNL     1     -13.224   9.306  72.179  0.00  0.00    -0.471 OA
ENDBRANCH   1  28
BRANCH  14  29
ATOM     29  O   UNL     1     -10.660  14.838  67.230  0.00  0.00    -0.328 OA
BRANCH  29  30
ATOM     30  C   UNL     1      -9.639  15.326  66.141  0.00  0.00    +0.237 C 
ATOM     31  O   UNL     1      -8.409  15.445  67.108  0.00  0.00    -0.330 OA
ATOM     32  C   UNL     1      -9.067  15.349  68.476  0.00  0.00    +0.150 C 
ATOM     33  C   UNL     1      -7.571  15.385  69.211  0.00  0.00    +0.035 C 
ATOM     34  C   UNL     1      -9.262  17.078  68.720  0.00  0.00    +0.196 C 
ATOM     35  O   UNL     1      -8.342  17.534  67.619  0.00  0.00    -0.219 OA
ATOM     36  C   UNL     1     -10.729  17.025  67.775  0.00  0.00    +0.130 C 
ATOM     37  N   UNL     1     -10.782  18.609  67.732  0.00  0.00    -0.130 NA
ATOM     38  C   UNL     1     -10.017  16.989  66.295  0.00  0.00    +0.083 C 
ENDBRANCH  29  30
ENDBRANCH  14  29
TORSDOF 4
ENDMDL
MODEL 2
REMARK VINA RESULT:      -8.3      2.806      7.656
REMARK  Name = 
REMARK  4 active torsions:
REMARK  status: ('A' for Active; 'I' for Inactive)
REMARK    1  A    between atoms: O_2  and  C_3
REMARK    2  A    between atoms: C_22  and  C_24
REMARK    3  A    between atoms: C_28  and  O_29
REMARK    4  A    between atoms: O_29  and  C_30
REMARK                            x       y       z     vdW  Elec       q    Type
REMARK                         _______ _______ _______ _____ _____    ______ ____
ROOT
ATOM      1  C   UNL     1      -5.083  17.312  68.079  0.00  0.00    +0.142 A 
ATOM      2  C   UNL     1      -6.399  16.875  68.197  0.00  0.00    +0.076 A 
ATOM      3  C   UNL     1      -6.752  15.472  67.969  0.00  0.00    +0.202 C 
ATOM      4  C   UNL     1      -8.131  15.164  67.563  0.00  0.00    +0.084 A 
ATOM      5  C   UNL     1      -8.998  16.220  67.293  0.00  0.00    +0.084 A 
ATOM      6  C   UNL     1      -8.759  17.558  67.844  0.00  0.00    +0.199 C 
ATOM      7  O   UNL     1      -9.526  18.491  67.492  0.00  0.00    -0.286 OA
ATOM      8  C   UNL     1     -10.069  16.026  66.427  0.00  0.00    +0.195 A 
ATOM      9  O   UNL     1     -10.577  17.093  65.679  0.00  0.00    -0.287 OA
ATOM     10  C   UNL     1     -10.358  14.734  66.003  0.00  0.00    +0.021 A 
ATOM     11  C   UNL     1     -10.940  14.499  64.650  0.00  0.00    +0.067 C 
ATOM     12  C   UNL     1     -11.894  13.351  64.765  0.00  0.00    +0.184 C 
ATOM     13  C   UNL     1     -11.787  12.568  66.011  0.00  0.00    +0.072 C 
ATOM     14  C   UNL     1     -10.140  12.230  66.181  0.00  0.00    +0.146 C 
ATOM     15  O   UNL     1     -13.161  13.954  64.823  0.00  0.00    -0.218 OA
ATOM     16  C   UNL     1      -9.829  13.734  66.816  0.00  0.00    +0.043 A 
ATOM     17  C   UNL     1      -8.463  13.904  67.074  0.00  0.00    +0.197 A 
ATOM     18  O   UNL     1      -7.607  12.851  67.337  0.00  0.00    -0.287 OA
ATOM     19  O   UNL     1      -5.834  14.625  67.752  0.00  0.00    -0.286 OA
ATOM     20  C   UNL     1      -7.431  17.781  68.413  0.00  0.00    +0.045 A 
ATOM     21  C   UNL     1      -7.143  19.023  68.932  0.00  0.00    +0.003 A 
ATOM     22  C   UNL     1      -5.830  19.320  69.195  0.00  0.00    +0.003 A 
ATOM     23  C   UNL     1      -4.804  18.492  68.752  0.00  0.00    +0.037 A 
ENDROOT
BRANCH  12  24
ATOM     24  C   UNL     1     -11.788  12.532  63.523  0.00  0.00    +0.179 C 
ATOM     25  O   UNL     1     -12.822  11.957  63.189  0.00  0.00    -0.293 OA
ATOM     26  C   UNL     1     -10.441  11.933  63.251  0.00  0.00    +0.075 C 
ENDBRANCH  12  24
BRANCH   1  28
ATOM     27  C   UNL     1      -3.111  16.870  66.748  0.00  0.00    +0.252 C 
ATOM     28  O   UNL     1      -4.116  16.487  67.545  0.00  0.00    -0.471 OA
ENDBRANCH   1  28
BRANCH  14  29
ATOM     29  O   UNL     1     -10.246  11.579  67.587  0.00  0.00    -0.328 OA
BRANCH  29  30
ATOM     30  C   UNL     1     -11.207  10.376  67.282  0.00  0.00    +0.237 C 
ATOM     31  O   UNL     1     -12.024  10.473  68.618  0.00  0.00    -0.330 OA
ATOM     32  C   UNL     1     -11.161  11.405  69.453  0.00  0.00    +0.150 C 
ATOM     33  C   UNL     1     -12.300  11.389  70.670  0.00  0.00    +0.035 C 
ATOM     34  C   UNL     1     -10.237  10.147  70.260  0.00  0.00    +0.196 C 
ATOM     35  O   UNL     1     -11.125   8.989  69.892  0.00  0.00    -0.219 OA
ATOM     36  C   UNL     1      -9.180  10.064  68.874  0.00  0.00    +0.130 C 
ATOM     37  N   UNL     1      -8.506   8.746  69.442  0.00  0.00    -0.130 NA
ATOM     38  C   UNL     1     -10.169   9.170  67.915  0.00  0.00    +0.083 C 
ENDBRANCH  29  30
ENDBRANCH  14  29
TORSDOF 4
ENDMDL
MODEL 3
REMARK VINA RESULT:      -8.0      2.419      5.217
REMARK  Name = 
REMARK  4 active torsions:
REMARK  status: ('A' for Active; 'I' for Inactive)
REMARK    1  A    between atoms: O_2  and  C_3
REMARK    2  A    between atoms: C_22  and  C_24
REMARK    3  A    between atoms: C_28  and  O_29
REMARK    4  A    between atoms: O_29  and  C_30
REMARK                            x       y       z     vdW  Elec       q    Type
REMARK                         _______ _______ _______ _____ _____    ______ ____
ROOT
ATOM      1  C   UNL     1      -9.879   6.698  71.911  0.00  0.00    +0.142 A 
ATOM      2  C   UNL     1     -10.732   7.569  71.241  0.00  0.00    +0.076 A 
ATOM      3  C   UNL     1     -10.209   8.575  70.314  0.00  0.00    +0.202 C 
ATOM      4  C   UNL     1     -11.018   9.779  70.073  0.00  0.00    +0.084 A 
ATOM      5  C   UNL     1     -12.175   9.967  70.825  0.00  0.00    +0.084 A 
ATOM      6  C   UNL     1     -12.855   8.836  71.467  0.00  0.00    +0.199 C 
ATOM      7  O   UNL     1     -13.842   9.080  72.207  0.00  0.00    -0.286 OA
ATOM      8  C   UNL     1     -12.656  11.254  71.037  0.00  0.00    +0.195 A 
ATOM      9  O   UNL     1     -13.385  11.557  72.191  0.00  0.00    -0.287 OA
ATOM     10  C   UNL     1     -12.079  12.306  70.333  0.00  0.00    +0.021 A 
ATOM     11  C   UNL     1     -12.000  13.664  70.942  0.00  0.00    +0.067 C 
ATOM     12  C   UNL     1     -12.193  14.661  69.842  0.00  0.00    +0.184 C 
ATOM     13  C   UNL     1     -12.085  14.117  68.475  0.00  0.00    +0.072 C 
ATOM     14  C   UNL     1     -10.653  13.221  68.468  0.00  0.00    +0.146 C 
ATOM     15  O   UNL     1     -13.533  15.064  69.968  0.00  0.00    -0.218 OA
ATOM     16  C   UNL     1     -11.388  11.916  69.187  0.00  0.00    +0.043 A 
ATOM     17  C   UNL     1     -10.472  10.884  69.426  0.00  0.00    +0.197 A 
ATOM     18  O   UNL     1      -9.324  10.706  68.678  0.00  0.00    -0.287 OA
ATOM     19  O   UNL     1      -8.970   8.592  70.046  0.00  0.00    -0.286 OA
ATOM     20  C   UNL     1     -12.092   7.591  71.528  0.00  0.00    +0.045 A 
ATOM     21  C   UNL     1     -12.673   6.498  72.133  0.00  0.00    +0.003 A 
ATOM     22  C   UNL     1     -11.867   5.434  72.447  0.00  0.00    +0.003 A 
ATOM     23  C   UNL     1     -10.482   5.535  72.366  0.00  0.00    +0.037 A 
ENDROOT
BRANCH  12  24
ATOM     24  C   UNL     1     -11.297  15.824  70.105  0.00  0.00    +0.179 C 
ATOM     25  O   UNL     1     -11.403  16.321  71.224  0.00  0.00    -0.293 OA
ATOM     26  C   UNL     1     -10.949  16.661  68.912  0.00  0.00    +0.075 C 
ENDBRANCH  12  24
BRANCH   1  28
ATOM     27  C   UNL     1      -7.668   6.679  72.895  0.00  0.00    +0.252 C 
ATOM     28  O   UNL     1      -8.513   6.892  71.880  0.00  0.00    -0.471 OA
ENDBRANCH   1  28
BRANCH  14  29
ATOM     29  O   UNL     1     -10.832  12.628  67.043  0.00  0.00    -0.328 OA
BRANCH  29  30
ATOM     30  C   UNL     1      -9.598  13.258  66.306  0.00  0.00    +0.237 C 
ATOM     31  O   UNL     1     -10.383  13.713  65.026  0.00  0.00    -0.330 OA
ATOM     32  C   UNL     1     -11.700  12.968  65.178  0.00  0.00    +0.150 C 
ATOM     33  C   UNL     1     -12.296  13.720  63.814  0.00  0.00    +0.035 C 
ATOM     34  C   UNL     1     -11.237  11.558  64.236  0.00  0.00    +0.196 C 
ATOM     35  O   UNL     1     -10.008  12.149  63.596  0.00  0.00    -0.219 OA
ATOM     36  C   UNL     1     -10.455  10.897  65.648  0.00  0.00    +0.130 C 
ATOM     37  N   UNL     1      -9.782   9.762  64.769  0.00  0.00    -0.130 NA
ATOM     38  C   UNL     1      -9.086  11.801  65.567  0.00  0.00    +0.083 C 
ENDBRANCH  29  30
ENDBRANCH  14  29
TORSDOF 4
ENDMDL
MODEL 4
REMARK VINA RESULT:      -7.8      3.602      8.165
REMARK  Name = 
REMARK  4 active torsions:
REMARK  status: ('A' for Active; 'I' for Inactive)
REMARK    1  A    between atoms: O_2  and  C_3
REMARK    2  A    between atoms: C_22  and  C_24
REMARK    3  A    between atoms: C_28  and  O_29
REMARK    4  A    between atoms: O_29  and  C_30
REMARK                            x       y       z     vdW  Elec       q    Type
REMARK                         _______ _______ _______ _____ _____    ______ ____
ROOT
ATOM      1  C   UNL     1      -5.267  19.014  68.420  0.00  0.00    +0.142 A 
ATOM      2  C   UNL     1      -6.633  18.754  68.380  0.00  0.00    +0.076 A 
ATOM      3  C   UNL     1      -7.196  17.571  69.034  0.00  0.00    +0.202 C 
ATOM      4  C   UNL     1      -8.472  17.043  68.528  0.00  0.00    +0.084 A 
ATOM      5  C   UNL     1      -9.020  17.611  67.380  0.00  0.00    +0.084 A 
ATOM      6  C   UNL     1      -8.655  18.967  66.956  0.00  0.00    +0.199 C 
ATOM      7  O   UNL     1      -9.113  19.390  65.863  0.00  0.00    -0.286 OA
ATOM      8  C   UNL     1      -9.870  16.857  66.580  0.00  0.00    +0.195 A 
ATOM      9  O   UNL     1      -9.962  17.111  65.207  0.00  0.00    -0.287 OA
ATOM     10  C   UNL     1     -10.304  15.621  67.046  0.00  0.00    +0.021 A 
ATOM     11  C   UNL     1     -10.584  14.512  66.089  0.00  0.00    +0.067 C 
ATOM     12  C   UNL     1     -11.747  13.738  66.626  0.00  0.00    +0.184 C 
ATOM     13  C   UNL     1     -12.099  14.026  68.029  0.00  0.00    +0.072 C 
ATOM     14  C   UNL     1     -10.643  13.925  68.879  0.00  0.00    +0.146 C 
ATOM     15  O   UNL     1     -12.844  14.195  65.876  0.00  0.00    -0.218 OA
ATOM     16  C   UNL     1     -10.195  15.461  68.426  0.00  0.00    +0.043 A 
ATOM     17  C   UNL     1      -8.925  15.786  68.915  0.00  0.00    +0.197 A 
ATOM     18  O   UNL     1      -8.385  15.216  70.053  0.00  0.00    -0.287 OA
ATOM     19  O   UNL     1      -6.443  16.822  69.726  0.00  0.00    -0.286 OA
ATOM     20  C   UNL     1      -7.483  19.543  67.613  0.00  0.00    +0.045 A 
ATOM     21  C   UNL     1      -7.083  20.808  67.245  0.00  0.00    +0.003 A 
ATOM     22  C   UNL     1      -5.838  21.227  67.639  0.00  0.00    +0.003 A 
ATOM     23  C   UNL     1      -4.925  20.339  68.196  0.00  0.00    +0.037 A 
ENDROOT
BRANCH  12  24
ATOM     24  C   UNL     1     -11.516  12.292  66.342  0.00  0.00    +0.179 C 
ATOM     25  O   UNL     1     -12.093  11.514  67.099  0.00  0.00    -0.293 OA
ATOM     26  C   UNL     1     -10.187  11.952  65.740  0.00  0.00    +0.075 C 
ENDBRANCH  12  24
BRANCH   1  28
ATOM     27  C   UNL     1      -3.117  18.284  69.258  0.00  0.00    +0.252 C 
ATOM     28  O   UNL     1      -4.386  18.065  68.895  0.00  0.00    -0.471 OA
ENDBRANCH   1  28
BRANCH  14  29
ATOM     29  O   UNL     1     -11.208  14.415  70.241  0.00  0.00    -0.328 OA
BRANCH  29  30
ATOM     30  C   UNL     1     -12.554  15.077  69.778  0.00  0.00    +0.237 C 
ATOM     31  O   UNL     1     -12.652  16.099  70.965  0.00  0.00    -0.330 OA
ATOM     32  C   UNL     1     -11.608  15.567  71.933  0.00  0.00    +0.150 C 
ATOM     33  C   UNL     1     -11.872  16.862  72.949  0.00  0.00    +0.035 C 
ATOM     34  C   UNL     1     -12.704  14.566  72.874  0.00  0.00    +0.196 C 
ATOM     35  O   UNL     1     -13.991  15.156  72.361  0.00  0.00    -0.219 OA
ATOM     36  C   UNL     1     -12.546  13.305  71.677  0.00  0.00    +0.130 C 
ATOM     37  N   UNL     1     -13.739  12.499  72.341  0.00  0.00    -0.130 NA
ATOM     38  C   UNL     1     -13.572  13.948  70.566  0.00  0.00    +0.083 C 
ENDBRANCH  29  30
ENDBRANCH  14  29
TORSDOF 4
ENDMDL
MODEL 5
REMARK VINA RESULT:      -7.4      2.923      5.489
REMARK  Name = 
REMARK  4 active torsions:
REMARK  status: ('A' for Active; 'I' for Inactive)
REMARK    1  A    between atoms: O_2  and  C_3
REMARK    2  A    between atoms: C_22  and  C_24
REMARK    3  A    between atoms: C_28  and  O_29
REMARK    4  A    between atoms: O_29  and  C_30
REMARK                            x       y       z     vdW  Elec       q    Type
REMARK                         _______ _______ _______ _____ _____    ______ ____
ROOT
ATOM      1  C   UNL     1      -8.419   8.125  73.681  0.00  0.00    +0.142 A 
ATOM      2  C   UNL     1      -9.053   8.200  72.444  0.00  0.00    +0.076 A 
ATOM      3  C   UNL     1      -8.390   8.812  71.291  0.00  0.00    +0.202 C 
ATOM      4  C   UNL     1      -9.233   9.361  70.220  0.00  0.00    +0.084 A 
ATOM      5  C   UNL     1     -10.613   9.387  70.406  0.00  0.00    +0.084 A 
ATOM      6  C   UNL     1     -11.268   8.487  71.362  0.00  0.00    +0.199 C 
ATOM      7  O   UNL     1     -12.504   8.619  71.550  0.00  0.00    -0.286 OA
ATOM      8  C   UNL     1     -11.380  10.331  69.731  0.00  0.00    +0.195 A 
ATOM      9  O   UNL     1     -12.579  10.794  70.282  0.00  0.00    -0.287 OA
ATOM     10  C   UNL     1     -10.774  11.099  68.743  0.00  0.00    +0.021 A 
ATOM     11  C   UNL     1     -11.233  12.495  68.489  0.00  0.00    +0.067 C 
ATOM     12  C   UNL     1     -11.124  12.743  67.017  0.00  0.00    +0.184 C 
ATOM     13  C   UNL     1     -10.334  11.747  66.269  0.00  0.00    +0.072 C 
ATOM     14  C   UNL     1      -8.893  11.583  67.137  0.00  0.00    +0.146 C 
ATOM     15  O   UNL     1     -12.438  12.596  66.541  0.00  0.00    -0.218 OA
ATOM     16  C   UNL     1      -9.596  10.554  68.237  0.00  0.00    +0.043 A 
ATOM     17  C   UNL     1      -8.690  10.186  69.239  0.00  0.00    +0.197 A 
ATOM     18  O   UNL     1      -7.321  10.166  69.049  0.00  0.00    -0.287 OA
ATOM     19  O   UNL     1      -7.185   9.196  71.395  0.00  0.00    -0.286 OA
ATOM     20  C   UNL     1     -10.379   7.807  72.302  0.00  0.00    +0.045 A 
ATOM     21  C   UNL     1     -10.937   6.960  73.233  0.00  0.00    +0.003 A 
ATOM     22  C   UNL     1     -10.154   6.556  74.284  0.00  0.00    +0.003 A 
ATOM     23  C   UNL     1      -8.919   7.147  74.527  0.00  0.00    +0.037 A 
ENDROOT
BRANCH  12  24
ATOM     24  C   UNL     1     -10.675  14.151  66.814  0.00  0.00    +0.179 C 
ATOM     25  O   UNL     1     -11.099  14.957  67.639  0.00  0.00    -0.293 OA
ATOM     26  C   UNL     1     -10.418  14.553  65.394  0.00  0.00    +0.075 C 
ENDBRANCH  12  24
BRANCH   1  28
ATOM     27  C   UNL     1      -6.547   8.813  75.051  0.00  0.00    +0.252 C 
ATOM     28  O   UNL     1      -7.240   8.805  73.907  0.00  0.00    -0.471 OA
ENDBRANCH   1  28
BRANCH  14  29
ATOM     29  O   UNL     1      -8.322  10.409  66.296  0.00  0.00    -0.328 OA
BRANCH  29  30
ATOM     30  C   UNL     1      -9.514  10.148  65.309  0.00  0.00    +0.237 C 
ATOM     31  O   UNL     1      -9.438   8.583  65.366  0.00  0.00    -0.330 OA
ATOM     32  C   UNL     1      -8.094   8.352  66.038  0.00  0.00    +0.150 C 
ATOM     33  C   UNL     1      -8.369   6.708  66.051  0.00  0.00    +0.035 C 
ATOM     34  C   UNL     1      -7.156   8.215  64.559  0.00  0.00    +0.196 C 
ATOM     35  O   UNL     1      -8.313   8.046  63.611  0.00  0.00    -0.219 OA
ATOM     36  C   UNL     1      -7.059   9.955  64.483  0.00  0.00    +0.130 C 
ATOM     37  N   UNL     1      -6.468   9.879  63.014  0.00  0.00    -0.130 NA
ATOM     38  C   UNL     1      -8.566  10.218  63.884  0.00  0.00    +0.083 C 
ENDBRANCH  29  30
ENDBRANCH  14  29
TORSDOF 4
ENDMDL
MODEL 6
REMARK VINA RESULT:      -7.4      1.656      2.010
REMARK  Name = 
REMARK  4 active torsions:
REMARK  status: ('A' for Active; 'I' for Inactive)
REMARK    1  A    between atoms: O_2  and  C_3
REMARK    2  A    between atoms: C_22  and  C_24
REMARK    3  A    between atoms: C_28  and  O_29
REMARK    4  A    between atoms: O_29  and  C_30
REMARK                            x       y       z     vdW  Elec       q    Type
REMARK                         _______ _______ _______ _____ _____    ______ ____
ROOT
ATOM      1  C   UNL     1     -11.343   7.765  72.505  0.00  0.00    +0.142 A 
ATOM      2  C   UNL     1     -10.539   8.545  71.679  0.00  0.00    +0.076 A 
ATOM      3  C   UNL     1     -11.089   9.692  70.954  0.00  0.00    +0.202 C 
ATOM      4  C   UNL     1     -10.405  10.125  69.726  0.00  0.00    +0.084 A 
ATOM      5  C   UNL     1      -9.350   9.355  69.244  0.00  0.00    +0.084 A 
ATOM      6  C   UNL     1      -8.605   8.450  70.127  0.00  0.00    +0.199 C 
ATOM      7  O   UNL     1      -7.722   7.715  69.614  0.00  0.00    -0.286 OA
ATOM      8  C   UNL     1      -9.041   9.385  67.889  0.00  0.00    +0.195 A 
ATOM      9  O   UNL     1      -8.457   8.274  67.271  0.00  0.00    -0.287 OA
ATOM     10  C   UNL     1      -9.669  10.327  67.082  0.00  0.00    +0.021 A 
ATOM     11  C   UNL     1      -9.958  10.019  65.652  0.00  0.00    +0.067 C 
ATOM     12  C   UNL     1      -9.783  11.287  64.876  0.00  0.00    +0.184 C 
ATOM     13  C   UNL     1      -9.704  12.516  65.689  0.00  0.00    +0.072 C 
ATOM     14  C   UNL     1     -11.017  12.429  66.748  0.00  0.00    +0.146 C 
ATOM     15  O   UNL     1      -8.514  11.162  64.285  0.00  0.00    -0.218 OA
ATOM     16  C   UNL     1     -10.205  11.409  67.778  0.00  0.00    +0.043 A 
ATOM     17  C   UNL     1     -11.014  11.021  68.852  0.00  0.00    +0.197 A 
ATOM     18  O   UNL     1     -12.063  11.788  69.324  0.00  0.00    -0.287 OA
ATOM     19  O   UNL     1     -12.292  10.038  71.153  0.00  0.00    -0.286 OA
ATOM     20  C   UNL     1      -9.222   8.181  71.424  0.00  0.00    +0.045 A 
ATOM     21  C   UNL     1      -8.576   7.327  72.290  0.00  0.00    +0.003 A 
ATOM     22  C   UNL     1      -9.280   6.851  73.367  0.00  0.00    +0.003 A 
ATOM     23  C   UNL     1     -10.654   7.041  73.466  0.00  0.00    +0.037 A 
ENDROOT
BRANCH  12  24
ATOM     24  C   UNL     1     -10.827  11.330  63.811  0.00  0.00    +0.179 C 
ATOM     25  O   UNL     1     -10.563  10.687  62.797  0.00  0.00    -0.293 OA
ATOM     26  C   UNL     1     -11.640  12.587  63.747  0.00  0.00    +0.075 C 
ENDBRANCH  12  24
BRANCH   1  28
ATOM     27  C   UNL     1     -13.586   7.189  71.802  0.00  0.00    +0.252 C 
ATOM     28  O   UNL     1     -12.714   7.924  72.502  0.00  0.00    -0.471 OA
ENDBRANCH   1  28
BRANCH  14  29
ATOM     29  O   UNL     1     -10.644  13.685  67.583  0.00  0.00    -0.328 OA
BRANCH  29  30
ATOM     30  C   UNL     1     -11.781  14.676  67.146  0.00  0.00    +0.237 C 
ATOM     31  O   UNL     1     -10.835  15.890  66.842  0.00  0.00    -0.330 OA
ATOM     32  C   UNL     1      -9.527  15.443  67.475  0.00  0.00    +0.150 C 
ATOM     33  C   UNL     1      -8.767  16.812  66.902  0.00  0.00    +0.035 C 
ATOM     34  C   UNL     1      -9.793  16.207  69.035  0.00  0.00    +0.196 C 
ATOM     35  O   UNL     1     -10.937  17.095  68.622  0.00  0.00    -0.219 OA
ATOM     36  C   UNL     1     -10.747  14.829  69.523  0.00  0.00    +0.130 C 
ATOM     37  N   UNL     1     -11.241  15.604  70.815  0.00  0.00    -0.130 NA
ATOM     38  C   UNL     1     -12.123  15.240  68.725  0.00  0.00    +0.083 C 
ENDBRANCH  29  30
ENDBRANCH  14  29
TORSDOF 4
ENDMDL
MODEL 7
REMARK VINA RESULT:      -7.3      5.737     11.258
REMARK  Name = 
REMARK  4 active torsions:
REMARK  status: ('A' for Active; 'I' for Inactive)
REMARK    1  A    between atoms: O_2  and  C_3
REMARK    2  A    between atoms: C_22  and  C_24
REMARK    3  A    between atoms: C_28  and  O_29
REMARK    4  A    between atoms: O_29  and  C_30
REMARK                            x       y       z     vdW  Elec       q    Type
REMARK                         _______ _______ _______ _____ _____    ______ ____
ROOT
ATOM      1  C   UNL     1      -4.053  19.953  61.501  0.00  0.00    +0.142 A 
ATOM      2  C   UNL     1      -4.273  19.138  62.608  0.00  0.00    +0.076 A 
ATOM      3  C   UNL     1      -5.352  19.427  63.555  0.00  0.00    +0.202 C 
ATOM      4  C   UNL     1      -5.218  18.925  64.930  0.00  0.00    +0.084 A 
ATOM      5  C   UNL     1      -4.024  18.312  65.301  0.00  0.00    +0.084 A 
ATOM      6  C   UNL     1      -3.125  17.730  64.298  0.00  0.00    +0.199 C 
ATOM      7  O   UNL     1      -2.020  17.271  64.686  0.00  0.00    -0.286 OA
ATOM      8  C   UNL     1      -3.637  18.314  66.637  0.00  0.00    +0.195 A 
ATOM      9  O   UNL     1      -2.282  18.275  66.981  0.00  0.00    -0.287 OA
ATOM     10  C   UNL     1      -4.542  18.758  67.593  0.00  0.00    +0.021 A 
ATOM     11  C   UNL     1      -4.058  19.437  68.829  0.00  0.00    +0.067 C 
ATOM     12  C   UNL     1      -4.965  19.030  69.949  0.00  0.00    +0.184 C 
ATOM     13  C   UNL     1      -6.222  18.379  69.534  0.00  0.00    +0.072 C 
ATOM     14  C   UNL     1      -6.867  19.383  68.339  0.00  0.00    +0.146 C 
ATOM     15  O   UNL     1      -4.248  18.034  70.633  0.00  0.00    -0.218 OA
ATOM     16  C   UNL     1      -5.871  18.746  67.172  0.00  0.00    +0.043 A 
ATOM     17  C   UNL     1      -6.059  19.382  65.939  0.00  0.00    +0.197 A 
ATOM     18  O   UNL     1      -7.246  19.992  65.578  0.00  0.00    -0.287 OA
ATOM     19  O   UNL     1      -6.157  20.377  63.314  0.00  0.00    -0.286 OA
ATOM     20  C   UNL     1      -3.398  18.102  62.911  0.00  0.00    +0.045 A 
ATOM     21  C   UNL     1      -2.578  17.599  61.926  0.00  0.00    +0.003 A 
ATOM     22  C   UNL     1      -2.649  18.167  60.679  0.00  0.00    +0.003 A 
ATOM     23  C   UNL     1      -3.354  19.347  60.468  0.00  0.00    +0.037 A 
ENDROOT
BRANCH  12  24
ATOM     24  C   UNL     1      -5.158  20.209  70.843  0.00  0.00    +0.179 C 
ATOM     25  O   UNL     1      -6.308  20.377  71.241  0.00  0.00    -0.293 OA
ATOM     26  C   UNL     1      -4.242  21.369  70.597  0.00  0.00    +0.075 C 
ENDBRANCH  12  24
BRANCH   1  28
ATOM     27  C   UNL     1      -4.122  22.362  61.276  0.00  0.00    +0.252 C 
ATOM     28  O   UNL     1      -4.706  21.162  61.379  0.00  0.00    -0.471 OA
ENDBRANCH   1  28
BRANCH  14  29
ATOM     29  O   UNL     1      -8.043  18.447  67.949  0.00  0.00    -0.328 OA
BRANCH  29  30
ATOM     30  C   UNL     1      -9.253  19.212  68.594  0.00  0.00    +0.237 C 
ATOM     31  O   UNL     1      -9.902  17.955  69.272  0.00  0.00    -0.330 OA
ATOM     32  C   UNL     1      -9.159  16.810  68.600  0.00  0.00    +0.150 C 
ATOM     33  C   UNL     1      -9.951  15.710  69.571  0.00  0.00    +0.035 C 
ATOM     34  C   UNL     1     -10.323  16.554  67.308  0.00  0.00    +0.196 C 
ATOM     35  O   UNL     1     -11.450  17.358  67.901  0.00  0.00    -0.219 OA
ATOM     36  C   UNL     1      -9.577  17.849  66.407  0.00  0.00    +0.130 C 
ATOM     37  N   UNL     1     -10.772  17.839  65.365  0.00  0.00    -0.130 NA
ATOM     38  C   UNL     1     -10.273  19.093  67.224  0.00  0.00    +0.083 C 
ENDBRANCH  29  30
ENDBRANCH  14  29
TORSDOF 4
ENDMDL
MODEL 8
REMARK VINA RESULT:      -7.2      2.920      8.071
REMARK  Name = 
REMARK  4 active torsions:
REMARK  status: ('A' for Active; 'I' for Inactive)
REMARK    1  A    between atoms: O_2  and  C_3
REMARK    2  A    between atoms: C_22  and  C_24
REMARK    3  A    between atoms: C_28  and  O_29
REMARK    4  A    between atoms: O_29  and  C_30
REMARK                            x       y       z     vdW  Elec       q    Type
REMARK                         _______ _______ _______ _____ _____    ______ ____
ROOT
ATOM      1  C   UNL     1     -10.767  14.156  65.193  0.00  0.00    +0.142 A 
ATOM      2  C   UNL     1     -10.543  13.714  66.493  0.00  0.00    +0.076 A 
ATOM      3  C   UNL     1     -10.251  12.307  66.773  0.00  0.00    +0.202 C 
ATOM      4  C   UNL     1     -10.564  11.790  68.114  0.00  0.00    +0.084 A 
ATOM      5  C   UNL     1     -11.234  12.620  69.009  0.00  0.00    +0.084 A 
ATOM      6  C   UNL     1     -11.205  14.080  68.857  0.00  0.00    +0.199 C 
ATOM      7  O   UNL     1     -11.902  14.771  69.643  0.00  0.00    -0.286 OA
ATOM      8  C   UNL     1     -12.005  12.060  70.021  0.00  0.00    +0.195 A 
ATOM      9  O   UNL     1     -13.110  12.748  70.533  0.00  0.00    -0.287 OA
ATOM     10  C   UNL     1     -11.934  10.688  70.232  0.00  0.00    +0.021 A 
ATOM     11  C   UNL     1     -13.124   9.941  70.729  0.00  0.00    +0.067 C 
ATOM     12  C   UNL     1     -12.629   8.859  71.637  0.00  0.00    +0.184 C 
ATOM     13  C   UNL     1     -11.179   8.593  71.565  0.00  0.00    +0.072 C 
ATOM     14  C   UNL     1     -10.839   8.439  69.918  0.00  0.00    +0.146 C 
ATOM     15  O   UNL     1     -12.841   9.365  72.930  0.00  0.00    -0.218 OA
ATOM     16  C   UNL     1     -10.791  10.087  69.706  0.00  0.00    +0.043 A 
ATOM     17  C   UNL     1     -10.566  10.421  68.365  0.00  0.00    +0.197 A 
ATOM     18  O   UNL     1      -9.904   9.590  67.481  0.00  0.00    -0.287 OA
ATOM     19  O   UNL     1     -10.108  11.495  65.810  0.00  0.00    -0.286 OA
ATOM     20  C   UNL     1     -10.712  14.573  67.573  0.00  0.00    +0.045 A 
ATOM     21  C   UNL     1     -10.676  15.934  67.367  0.00  0.00    +0.003 A 
ATOM     22  C   UNL     1     -10.494  16.384  66.084  0.00  0.00    +0.003 A 
ATOM     23  C   UNL     1     -10.565  15.514  65.001  0.00  0.00    +0.037 A 
ENDROOT
BRANCH  12  24
ATOM     24  C   UNL     1     -13.478   7.651  71.429  0.00  0.00    +0.179 C 
ATOM     25  O   UNL     1     -14.687   7.867  71.375  0.00  0.00    -0.293 OA
ATOM     26  C   UNL     1     -12.941   6.372  71.996  0.00  0.00    +0.075 C 
ENDBRANCH  12  24
BRANCH   1  28
ATOM     27  C   UNL     1     -12.062  13.009  63.500  0.00  0.00    +0.252 C 
ATOM     28  O   UNL     1     -10.926  13.251  64.163  0.00  0.00    -0.471 OA
ENDBRANCH   1  28
BRANCH  14  29
ATOM     29  O   UNL     1      -9.297   8.342  70.072  0.00  0.00    -0.328 OA
BRANCH  29  30
ATOM     30  C   UNL     1      -9.159   8.326  71.636  0.00  0.00    +0.237 C 
ATOM     31  O   UNL     1      -7.849   9.187  71.696  0.00  0.00    -0.330 OA
ATOM     32  C   UNL     1      -7.394   9.180  70.245  0.00  0.00    +0.150 C 
ATOM     33  C   UNL     1      -6.139  10.211  70.621  0.00  0.00    +0.035 C 
ATOM     34  C   UNL     1      -6.332   7.787  70.379  0.00  0.00    +0.196 C 
ATOM     35  O   UNL     1      -6.273   7.733  71.883  0.00  0.00    -0.219 OA
ATOM     36  C   UNL     1      -7.713   6.740  70.174  0.00  0.00    +0.130 C 
ATOM     37  N   UNL     1      -6.840   5.478  70.574  0.00  0.00    -0.130 NA
ATOM     38  C   UNL     1      -8.286   6.855  71.709  0.00  0.00    +0.083 C 
ENDBRANCH  29  30
ENDBRANCH  14  29
TORSDOF 4
ENDMDL
MODEL 9
REMARK VINA RESULT:      -7.1      3.199      7.853
REMARK  Name = 
REMARK  4 active torsions:
REMARK  status: ('A' for Active; 'I' for Inactive)
REMARK    1  A    between atoms: O_2  and  C_3
REMARK    2  A    between atoms: C_22  and  C_24
REMARK    3  A    between atoms: C_28  and  O_29
REMARK    4  A    between atoms: O_29  and  C_30
REMARK                            x       y       z     vdW  Elec       q    Type
REMARK                         _______ _______ _______ _____ _____    ______ ____
ROOT
ATOM      1  C   UNL     1      -8.116  18.825  66.463  0.00  0.00    +0.142 A 
ATOM      2  C   UNL     1      -8.501  17.750  67.258  0.00  0.00    +0.076 A 
ATOM      3  C   UNL     1      -7.792  16.471  67.194  0.00  0.00    +0.202 C 
ATOM      4  C   UNL     1      -8.519  15.257  67.590  0.00  0.00    +0.084 A 
ATOM      5  C   UNL     1      -9.876  15.360  67.886  0.00  0.00    +0.084 A 
ATOM      6  C   UNL     1     -10.472  16.641  68.280  0.00  0.00    +0.199 C 
ATOM      7  O   UNL     1     -11.718  16.690  68.446  0.00  0.00    -0.286 OA
ATOM      8  C   UNL     1     -10.699  14.249  67.735  0.00  0.00    +0.195 A 
ATOM      9  O   UNL     1     -12.056  14.408  67.435  0.00  0.00    -0.287 OA
ATOM     10  C   UNL     1     -10.113  13.015  67.477  0.00  0.00    +0.021 A 
ATOM     11  C   UNL     1     -10.828  12.000  66.651  0.00  0.00    +0.067 C 
ATOM     12  C   UNL     1     -10.500  10.652  67.213  0.00  0.00    +0.184 C 
ATOM     13  C   UNL     1      -9.371  10.624  68.161  0.00  0.00    +0.072 C 
ATOM     14  C   UNL     1      -8.125  11.467  67.391  0.00  0.00    +0.146 C 
ATOM     15  O   UNL     1     -11.627  10.311  67.980  0.00  0.00    -0.218 OA
ATOM     16  C   UNL     1      -8.765  12.939  67.823  0.00  0.00    +0.043 A 
ATOM     17  C   UNL     1      -8.007  13.995  67.303  0.00  0.00    +0.197 A 
ATOM     18  O   UNL     1      -6.661  13.885  67.008  0.00  0.00    -0.287 OA
ATOM     19  O   UNL     1      -6.753  16.368  66.473  0.00  0.00    -0.286 OA
ATOM     20  C   UNL     1      -9.646  17.823  68.043  0.00  0.00    +0.045 A 
ATOM     21  C   UNL     1     -10.158  19.057  68.379  0.00  0.00    +0.003 A 
ATOM     22  C   UNL     1      -9.518  20.170  67.898  0.00  0.00    +0.003 A 
ATOM     23  C   UNL     1      -8.526  20.065  66.930  0.00  0.00    +0.037 A 
ENDROOT
BRANCH  12  24
ATOM     24  C   UNL     1     -10.363   9.695  66.077  0.00  0.00    +0.179 C 
ATOM     25  O   UNL     1      -9.837   8.621  66.361  0.00  0.00    -0.293 OA
ATOM     26  C   UNL     1     -10.187  10.313  64.723  0.00  0.00    +0.075 C 
ENDBRANCH  12  24
BRANCH   1  28
ATOM     27  C   UNL     1      -6.352  19.586  64.990  0.00  0.00    +0.252 C 
ATOM     28  O   UNL     1      -7.195  18.654  65.450  0.00  0.00    -0.471 OA
ENDBRANCH   1  28
BRANCH  14  29
ATOM     29  O   UNL     1      -7.145  11.458  68.595  0.00  0.00    -0.328 OA
BRANCH  29  30
ATOM     30  C   UNL     1      -5.946  10.645  67.991  0.00  0.00    +0.237 C 
ATOM     31  O   UNL     1      -5.821   9.627  69.177  0.00  0.00    -0.330 OA
ATOM     32  C   UNL     1      -6.677  10.280  70.251  0.00  0.00    +0.150 C 
ATOM     33  C   UNL     1      -6.439   8.970  71.255  0.00  0.00    +0.035 C 
ATOM     34  C   UNL     1      -5.371  11.157  71.035  0.00  0.00    +0.196 C 
ATOM     35  O   UNL     1      -4.228  10.422  70.387  0.00  0.00    -0.219 OA
ATOM     36  C   UNL     1      -5.529  12.419  69.841  0.00  0.00    +0.130 C 
ATOM     37  N   UNL     1      -4.183  13.090  70.343  0.00  0.00    -0.130 NA
ATOM     38  C   UNL     1      -4.722  11.657  68.630  0.00  0.00    +0.083 C 
ENDBRANCH  29  30
ENDBRANCH  14  29
TORSDOF 4
ENDMDL
