MODEL 1
REMARK VINA RESULT:      -6.7      0.000      0.000
REMARK  Name = 
REMARK  6 active torsions:
REMARK  status: ('A' for Active; 'I' for Inactive)
REMARK    1  A    between atoms: C_2  and  C_3
REMARK    2  A    between atoms: C_3  and  C_4
REMARK    3  A    between atoms: C_4  and  C_5
REMARK    4  A    between atoms: C_5  and  C_6
REMARK    5  A    between atoms: C_6  and  C_7
REMARK    6  A    between atoms: C_7  and  C_10
REMARK                            x       y       z     vdW  Elec       q    Type
REMARK                         _______ _______ _______ _____ _____    ______ ____
ROOT
ATOM      1  C   UNL     1      -9.136  16.275  67.599  0.00  0.00    -0.017 A 
ATOM      2  C   UNL     1      -9.605  15.860  66.505  0.00  0.00    +0.032 A 
ATOM      3  C   UNL     1     -10.432  14.743  66.254  0.00  0.00    +0.137 A 
ATOM      4  O   UNL     1     -10.571  13.941  65.044  0.00  0.00    -0.483 OA
ATOM      5  C   UNL     1     -11.175  13.002  64.338  0.00  0.00    +0.134 C 
ATOM      6  C   UNL     1     -11.936  12.454  65.629  0.00  0.00    +0.042 C 
ATOM      7  C   UNL     1     -10.528  13.008  66.393  0.00  0.00    +0.039 C 
ATOM      8  C   UNL     1     -10.051  13.981  65.139  0.00  0.00    +0.069 C 
ATOM      9  C   UNL     1     -11.139  15.088  64.794  0.00  0.00    +0.151 C 
ATOM     10  O   UNL     1     -10.902  16.166  64.293  0.00  0.00    -0.296 OA
ATOM     11  C   UNL     1     -12.599  14.818  64.756  0.00  0.00    +0.065 C 
ATOM     12  C   UNL     1     -12.858  13.777  65.800  0.00  0.00    +0.012 C 
ATOM     13  C   UNL     1     -12.094  13.075  63.209  0.00  0.00    +0.044 C 
ATOM     14  C   UNL     1     -10.204  11.882  63.923  0.00  0.00    +0.044 C 
ATOM     15  C   UNL     1     -11.099  14.223  67.186  0.00  0.00    +0.051 A 
ATOM     16  C   UNL     1     -10.717  14.600  68.412  0.00  0.00    +0.194 A 
ATOM     17  O   UNL     1     -10.814  13.535  69.323  0.00  0.00    -0.287 OA
ATOM     18  C   UNL     1      -9.878  15.708  68.626  0.00  0.00    +0.038 A 
ENDROOT
BRANCH   1  19
ATOM     19  C   UNL     1      -7.704  16.573  67.504  0.00  0.00    +0.019 C 
ATOM     20  C   UNL     1      -6.778  15.365  67.611  0.00  0.00    +0.004 C 
ATOM     21  C   UNL     1      -7.470  17.203  66.174  0.00  0.00    +0.004 C 
BRANCH  19  22
ATOM     22  C   UNL     1      -7.401  17.471  68.646  0.00  0.00    +0.004 C 
BRANCH  22  23
ATOM     23  C   UNL     1      -7.458  18.874  68.140  0.00  0.00    +0.000 C 
BRANCH  23  24
ATOM     24  C   UNL     1      -8.702  19.553  68.699  0.00  0.00    +0.000 C 
BRANCH  24  25
ATOM     25  C   UNL     1      -9.363  20.218  67.523  0.00  0.00    +0.000 C 
BRANCH  25  27
ATOM     26  C   UNL     1     -10.603  19.384  65.897  0.00  0.00    +0.000 C 
ATOM     27  C   UNL     1     -10.644  19.512  67.098  0.00  0.00    +0.000 C 
ENDBRANCH  25  27
ENDBRANCH  24  25
ENDBRANCH  23  24
ENDBRANCH  22  23
ENDBRANCH  19  22
ENDBRANCH   1  19
TORSDOF 6
ENDMDL
MODEL 2
REMARK VINA RESULT:      -6.4      1.330      2.013
REMARK  Name = 
REMARK  6 active torsions:
REMARK  status: ('A' for Active; 'I' for Inactive)
REMARK    1  A    between atoms: C_2  and  C_3
REMARK    2  A    between atoms: C_3  and  C_4
REMARK    3  A    between atoms: C_4  and  C_5
REMARK    4  A    between atoms: C_5  and  C_6
REMARK    5  A    between atoms: C_6  and  C_7
REMARK    6  A    between atoms: C_7  and  C_10
REMARK                            x       y       z     vdW  Elec       q    Type
REMARK                         _______ _______ _______ _____ _____    ______ ____
ROOT
ATOM      1  C   UNL     1      -9.953  17.403  67.201  0.00  0.00    -0.017 A 
ATOM      2  C   UNL     1     -10.252  16.701  66.198  0.00  0.00    +0.032 A 
ATOM      3  C   UNL     1     -10.784  15.393  66.149  0.00  0.00    +0.137 A 
ATOM      4  O   UNL     1     -10.668  14.380  65.108  0.00  0.00    -0.483 OA
ATOM      5  C   UNL     1     -10.999  13.213  64.581  0.00  0.00    +0.134 C 
ATOM      6  C   UNL     1     -11.683  12.740  65.942  0.00  0.00    +0.042 C 
ATOM      7  C   UNL     1     -10.486  13.739  66.607  0.00  0.00    +0.039 C 
ATOM      8  C   UNL     1     -10.177  14.558  65.200  0.00  0.00    +0.069 C 
ATOM      9  C   UNL     1     -11.469  15.296  64.642  0.00  0.00    +0.151 C 
ATOM     10  O   UNL     1     -11.459  16.293  63.952  0.00  0.00    -0.296 OA
ATOM     11  C   UNL     1     -12.823  14.686  64.637  0.00  0.00    +0.065 C 
ATOM     12  C   UNL     1     -12.893  13.817  65.853  0.00  0.00    +0.012 C 
ATOM     13  C   UNL     1     -11.846  12.865  63.447  0.00  0.00    +0.044 C 
ATOM     14  C   UNL     1      -9.774  12.300  64.394  0.00  0.00    +0.044 C 
ATOM     15  C   UNL     1     -11.364  14.905  67.153  0.00  0.00    +0.051 A 
ATOM     16  C   UNL     1     -11.149  15.574  68.292  0.00  0.00    +0.194 A 
ATOM     17  O   UNL     1     -11.048  14.695  69.384  0.00  0.00    -0.287 OA
ATOM     18  C   UNL     1     -10.601  16.869  68.306  0.00  0.00    +0.038 A 
ENDROOT
BRANCH   1  19
ATOM     19  C   UNL     1      -8.625  18.010  67.070  0.00  0.00    +0.019 C 
ATOM     20  C   UNL     1      -7.649  17.255  66.173  0.00  0.00    +0.004 C 
ATOM     21  C   UNL     1      -8.815  19.368  66.485  0.00  0.00    +0.004 C 
BRANCH  19  22
ATOM     22  C   UNL     1      -8.052  18.029  68.438  0.00  0.00    +0.004 C 
BRANCH  22  23
ATOM     23  C   UNL     1      -7.780  19.453  68.790  0.00  0.00    +0.000 C 
BRANCH  23  24
ATOM     24  C   UNL     1      -6.430  19.542  69.491  0.00  0.00    +0.000 C 
BRANCH  24  25
ATOM     25  C   UNL     1      -5.451  19.971  68.432  0.00  0.00    +0.000 C 
BRANCH  25  27
ATOM     26  C   UNL     1      -5.310  21.252  66.639  0.00  0.00    +0.000 C 
ATOM     27  C   UNL     1      -5.907  21.219  67.689  0.00  0.00    +0.000 C 
ENDBRANCH  25  27
ENDBRANCH  24  25
ENDBRANCH  23  24
ENDBRANCH  22  23
ENDBRANCH  19  22
ENDBRANCH   1  19
TORSDOF 6
ENDMDL
MODEL 3
REMARK VINA RESULT:      -6.3      1.991      6.116
REMARK  Name = 
REMARK  6 active torsions:
REMARK  status: ('A' for Active; 'I' for Inactive)
REMARK    1  A    between atoms: C_2  and  C_3
REMARK    2  A    between atoms: C_3  and  C_4
REMARK    3  A    between atoms: C_4  and  C_5
REMARK    4  A    between atoms: C_5  and  C_6
REMARK    5  A    between atoms: C_6  and  C_7
REMARK    6  A    between atoms: C_7  and  C_10
REMARK                            x       y       z     vdW  Elec       q    Type
REMARK                         _______ _______ _______ _____ _____    ______ ____
ROOT
ATOM      1  C   UNL     1     -10.729  14.158  67.018  0.00  0.00    -0.017 A 
ATOM      2  C   UNL     1     -10.047  15.156  66.662  0.00  0.00    +0.032 A 
ATOM      3  C   UNL     1      -9.997  16.451  67.224  0.00  0.00    +0.137 A 
ATOM      4  O   UNL     1      -9.664  17.725  66.597  0.00  0.00    -0.483 OA
ATOM      5  C   UNL     1      -9.400  19.018  66.666  0.00  0.00    +0.134 C 
ATOM      6  C   UNL     1      -9.951  19.099  68.161  0.00  0.00    +0.042 C 
ATOM      7  C   UNL     1     -10.956  17.856  67.598  0.00  0.00    +0.039 C 
ATOM      8  C   UNL     1     -10.019  17.490  66.282  0.00  0.00    +0.069 C 
ATOM      9  C   UNL     1      -8.547  17.060  66.697  0.00  0.00    +0.151 C 
ATOM     10  O   UNL     1      -7.827  16.327  66.054  0.00  0.00    -0.296 OA
ATOM     11  C   UNL     1      -7.762  17.742  67.758  0.00  0.00    +0.065 C 
ATOM     12  C   UNL     1      -8.754  18.197  68.783  0.00  0.00    +0.012 C 
ATOM     13  C   UNL     1      -8.152  19.762  66.552  0.00  0.00    +0.044 C 
ATOM     14  C   UNL     1     -10.379  19.849  65.818  0.00  0.00    +0.044 C 
ATOM     15  C   UNL     1     -10.388  16.648  68.403  0.00  0.00    +0.051 A 
ATOM     16  C   UNL     1     -11.112  15.646  68.917  0.00  0.00    +0.194 A 
ATOM     17  O   UNL     1     -12.143  16.135  69.737  0.00  0.00    -0.287 OA
ATOM     18  C   UNL     1     -11.153  14.373  68.322  0.00  0.00    +0.038 A 
ENDROOT
BRANCH   1  19
ATOM     19  C   UNL     1     -11.406  13.523  65.884  0.00  0.00    +0.019 C 
ATOM     20  C   UNL     1     -12.773  14.103  65.532  0.00  0.00    +0.004 C 
ATOM     21  C   UNL     1     -10.526  13.692  64.692  0.00  0.00    +0.004 C 
BRANCH  19  22
ATOM     22  C   UNL     1     -11.608  12.106  66.274  0.00  0.00    +0.004 C 
BRANCH  22  23
ATOM     23  C   UNL     1     -10.292  11.414  66.144  0.00  0.00    +0.000 C 
BRANCH  23  24
ATOM     24  C   UNL     1     -10.180  10.353  67.232  0.00  0.00    +0.000 C 
BRANCH  24  25
ATOM     25  C   UNL     1     -11.367  10.570  68.132  0.00  0.00    +0.000 C 
BRANCH  25  27
ATOM     26  C   UNL     1     -11.917  11.166  70.186  0.00  0.00    +0.000 C 
ATOM     27  C   UNL     1     -10.971  10.699  69.597  0.00  0.00    +0.000 C 
ENDBRANCH  25  27
ENDBRANCH  24  25
ENDBRANCH  23  24
ENDBRANCH  22  23
ENDBRANCH  19  22
ENDBRANCH   1  19
TORSDOF 6
ENDMDL
MODEL 4
REMARK VINA RESULT:      -6.2      1.387      2.239
REMARK  Name = 
REMARK  6 active torsions:
REMARK  status: ('A' for Active; 'I' for Inactive)
REMARK    1  A    between atoms: C_2  and  C_3
REMARK    2  A    between atoms: C_3  and  C_4
REMARK    3  A    between atoms: C_4  and  C_5
REMARK    4  A    between atoms: C_5  and  C_6
REMARK    5  A    between atoms: C_6  and  C_7
REMARK    6  A    between atoms: C_7  and  C_10
REMARK                            x       y       z     vdW  Elec       q    Type
REMARK                         _______ _______ _______ _____ _____    ______ ____
ROOT
ATOM      1  C   UNL     1     -10.048  17.214  67.681  0.00  0.00    -0.017 A 
ATOM      2  C   UNL     1     -10.199  16.520  66.639  0.00  0.00    +0.032 A 
ATOM      3  C   UNL     1     -10.794  15.248  66.491  0.00  0.00    +0.137 A 
ATOM      4  O   UNL     1     -10.550  14.218  65.488  0.00  0.00    -0.483 OA
ATOM      5  C   UNL     1     -10.850  13.070  64.907  0.00  0.00    +0.134 C 
ATOM      6  C   UNL     1     -11.803  12.653  66.117  0.00  0.00    +0.042 C 
ATOM      7  C   UNL     1     -10.690  13.583  66.993  0.00  0.00    +0.039 C 
ATOM      8  C   UNL     1     -10.075  14.367  65.669  0.00  0.00    +0.069 C 
ATOM      9  C   UNL     1     -11.192  15.178  64.882  0.00  0.00    +0.151 C 
ATOM     10  O   UNL     1     -10.993  16.165  64.208  0.00  0.00    -0.296 OA
ATOM     11  C   UNL     1     -12.558  14.653  64.625  0.00  0.00    +0.065 C 
ATOM     12  C   UNL     1     -12.906  13.801  65.806  0.00  0.00    +0.012 C 
ATOM     13  C   UNL     1     -11.492  12.762  63.635  0.00  0.00    +0.044 C 
ATOM     14  C   UNL     1      -9.671  12.081  64.949  0.00  0.00    +0.044 C 
ATOM     15  C   UNL     1     -11.579  14.806  67.369  0.00  0.00    +0.051 A 
ATOM     16  C   UNL     1     -11.537  15.472  68.529  0.00  0.00    +0.194 A 
ATOM     17  O   UNL     1     -11.695  14.600  69.620  0.00  0.00    -0.287 OA
ATOM     18  C   UNL     1     -10.922  16.731  68.647  0.00  0.00    +0.038 A 
ENDROOT
BRANCH   1  19
ATOM     19  C   UNL     1      -8.684  17.736  67.800  0.00  0.00    +0.019 C 
ATOM     20  C   UNL     1      -8.553  19.049  68.567  0.00  0.00    +0.004 C 
ATOM     21  C   UNL     1      -7.879  16.710  68.523  0.00  0.00    +0.004 C 
BRANCH  19  22
ATOM     22  C   UNL     1      -8.222  17.981  66.411  0.00  0.00    +0.004 C 
BRANCH  22  23
ATOM     23  C   UNL     1      -6.772  17.630  66.354  0.00  0.00    +0.000 C 
BRANCH  23  24
ATOM     24  C   UNL     1      -6.107  18.451  65.256  0.00  0.00    +0.000 C 
BRANCH  24  25
ATOM     25  C   UNL     1      -6.666  19.841  65.395  0.00  0.00    +0.000 C 
BRANCH  25  27
ATOM     26  C   UNL     1      -6.082  21.250  66.992  0.00  0.00    +0.000 C 
ATOM     27  C   UNL     1      -5.646  20.827  65.947  0.00  0.00    +0.000 C 
ENDBRANCH  25  27
ENDBRANCH  24  25
ENDBRANCH  23  24
ENDBRANCH  22  23
ENDBRANCH  19  22
ENDBRANCH   1  19
TORSDOF 6
ENDMDL
MODEL 5
REMARK VINA RESULT:      -6.2      1.063      2.575
REMARK  Name = 
REMARK  6 active torsions:
REMARK  status: ('A' for Active; 'I' for Inactive)
REMARK    1  A    between atoms: C_2  and  C_3
REMARK    2  A    between atoms: C_3  and  C_4
REMARK    3  A    between atoms: C_4  and  C_5
REMARK    4  A    between atoms: C_5  and  C_6
REMARK    5  A    between atoms: C_6  and  C_7
REMARK    6  A    between atoms: C_7  and  C_10
REMARK                            x       y       z     vdW  Elec       q    Type
REMARK                         _______ _______ _______ _____ _____    ______ ____
ROOT
ATOM      1  C   UNL     1      -9.924  17.417  67.208  0.00  0.00    -0.017 A 
ATOM      2  C   UNL     1     -10.222  16.714  66.205  0.00  0.00    +0.032 A 
ATOM      3  C   UNL     1     -10.760  15.409  66.157  0.00  0.00    +0.137 A 
ATOM      4  O   UNL     1     -10.644  14.393  65.118  0.00  0.00    -0.483 OA
ATOM      5  C   UNL     1     -10.978  13.227  64.593  0.00  0.00    +0.134 C 
ATOM      6  C   UNL     1     -11.670  12.759  65.952  0.00  0.00    +0.042 C 
ATOM      7  C   UNL     1     -10.472  13.754  66.619  0.00  0.00    +0.039 C 
ATOM      8  C   UNL     1     -10.153  14.569  65.212  0.00  0.00    +0.069 C 
ATOM      9  C   UNL     1     -11.440  15.312  64.647  0.00  0.00    +0.151 C 
ATOM     10  O   UNL     1     -11.423  16.307  63.955  0.00  0.00    -0.296 OA
ATOM     11  C   UNL     1     -12.797  14.708  64.638  0.00  0.00    +0.065 C 
ATOM     12  C   UNL     1     -12.875  13.841  65.855  0.00  0.00    +0.012 C 
ATOM     13  C   UNL     1     -11.822  12.879  63.456  0.00  0.00    +0.044 C 
ATOM     14  C   UNL     1      -9.756  12.307  64.412  0.00  0.00    +0.044 C 
ATOM     15  C   UNL     1     -11.346  14.925  67.159  0.00  0.00    +0.051 A 
ATOM     16  C   UNL     1     -11.133  15.596  68.298  0.00  0.00    +0.194 A 
ATOM     17  O   UNL     1     -11.040  14.719  69.392  0.00  0.00    -0.287 OA
ATOM     18  C   UNL     1     -10.579  16.888  68.312  0.00  0.00    +0.038 A 
ENDROOT
BRANCH   1  19
ATOM     19  C   UNL     1      -8.594  18.018  67.081  0.00  0.00    +0.019 C 
ATOM     20  C   UNL     1      -7.653  17.317  66.105  0.00  0.00    +0.004 C 
ATOM     21  C   UNL     1      -8.783  19.415  66.599  0.00  0.00    +0.004 C 
BRANCH  19  22
ATOM     22  C   UNL     1      -7.982  17.934  68.430  0.00  0.00    +0.004 C 
BRANCH  22  23
ATOM     23  C   UNL     1      -6.662  17.252  68.282  0.00  0.00    +0.000 C 
BRANCH  23  24
ATOM     24  C   UNL     1      -6.456  16.310  69.461  0.00  0.00    +0.000 C 
BRANCH  24  25
ATOM     25  C   UNL     1      -7.530  15.263  69.334  0.00  0.00    +0.000 C 
BRANCH  25  27
ATOM     26  C   UNL     1      -6.338  13.576  68.552  0.00  0.00    +0.000 C 
ATOM     27  C   UNL     1      -7.256  14.281  68.203  0.00  0.00    +0.000 C 
ENDBRANCH  25  27
ENDBRANCH  24  25
ENDBRANCH  23  24
ENDBRANCH  22  23
ENDBRANCH  19  22
ENDBRANCH   1  19
TORSDOF 6
ENDMDL
MODEL 6
REMARK VINA RESULT:      -6.1      3.115      6.807
REMARK  Name = 
REMARK  6 active torsions:
REMARK  status: ('A' for Active; 'I' for Inactive)
REMARK    1  A    between atoms: C_2  and  C_3
REMARK    2  A    between atoms: C_3  and  C_4
REMARK    3  A    between atoms: C_4  and  C_5
REMARK    4  A    between atoms: C_5  and  C_6
REMARK    5  A    between atoms: C_6  and  C_7
REMARK    6  A    between atoms: C_7  and  C_10
REMARK                            x       y       z     vdW  Elec       q    Type
REMARK                         _______ _______ _______ _____ _____    ______ ____
ROOT
ATOM      1  C   UNL     1      -9.953  17.546  68.351  0.00  0.00    -0.017 A 
ATOM      2  C   UNL     1      -8.714  17.775  68.357  0.00  0.00    +0.032 A 
ATOM      3  C   UNL     1      -7.965  18.665  67.556  0.00  0.00    +0.137 A 
ATOM      4  O   UNL     1      -6.563  18.607  67.161  0.00  0.00    -0.483 OA
ATOM      5  C   UNL     1      -5.492  19.142  66.600  0.00  0.00    +0.134 C 
ATOM      6  C   UNL     1      -6.366  20.280  65.905  0.00  0.00    +0.042 C 
ATOM      7  C   UNL     1      -7.531  19.050  65.913  0.00  0.00    +0.039 C 
ATOM      8  C   UNL     1      -6.768  18.129  67.059  0.00  0.00    +0.069 C 
ATOM      9  C   UNL     1      -6.576  18.915  68.427  0.00  0.00    +0.151 C 
ATOM     10  O   UNL     1      -6.496  18.401  69.522  0.00  0.00    -0.296 OA
ATOM     11  C   UNL     1      -6.163  20.340  68.502  0.00  0.00    +0.065 C 
ATOM     12  C   UNL     1      -6.754  21.009  67.300  0.00  0.00    +0.012 C 
ATOM     13  C   UNL     1      -4.282  19.720  67.173  0.00  0.00    +0.044 C 
ATOM     14  C   UNL     1      -4.952  18.273  65.450  0.00  0.00    +0.044 C 
ATOM     15  C   UNL     1      -8.533  19.618  66.963  0.00  0.00    +0.051 A 
ATOM     16  C   UNL     1      -9.867  19.512  66.904  0.00  0.00    +0.194 A 
ATOM     17  O   UNL     1     -10.359  19.996  65.680  0.00  0.00    -0.287 OA
ATOM     18  C   UNL     1     -10.580  18.602  67.703  0.00  0.00    +0.038 A 
ENDROOT
BRANCH   1  19
ATOM     19  C   UNL     1     -10.246  16.110  68.344  0.00  0.00    +0.019 C 
ATOM     20  C   UNL     1     -10.183  15.438  66.975  0.00  0.00    +0.004 C 
ATOM     21  C   UNL     1      -9.235  15.448  69.217  0.00  0.00    +0.004 C 
BRANCH  19  22
ATOM     22  C   UNL     1     -11.637  15.978  68.844  0.00  0.00    +0.004 C 
BRANCH  22  23
ATOM     23  C   UNL     1     -11.579  15.981  70.335  0.00  0.00    +0.000 C 
BRANCH  23  24
ATOM     24  C   UNL     1     -12.831  15.305  70.881  0.00  0.00    +0.000 C 
BRANCH  24  25
ATOM     25  C   UNL     1     -12.490  14.900  72.290  0.00  0.00    +0.000 C 
BRANCH  25  27
ATOM     26  C   UNL     1     -12.468  15.618  74.378  0.00  0.00    +0.000 C 
ATOM     27  C   UNL     1     -12.970  15.914  73.319  0.00  0.00    +0.000 C 
ENDBRANCH  25  27
ENDBRANCH  24  25
ENDBRANCH  23  24
ENDBRANCH  22  23
ENDBRANCH  19  22
ENDBRANCH   1  19
TORSDOF 6
ENDMDL
MODEL 7
REMARK VINA RESULT:      -6.0      1.572      6.064
REMARK  Name = 
REMARK  6 active torsions:
REMARK  status: ('A' for Active; 'I' for Inactive)
REMARK    1  A    between atoms: C_2  and  C_3
REMARK    2  A    between atoms: C_3  and  C_4
REMARK    3  A    between atoms: C_4  and  C_5
REMARK    4  A    between atoms: C_5  and  C_6
REMARK    5  A    between atoms: C_6  and  C_7
REMARK    6  A    between atoms: C_7  and  C_10
REMARK                            x       y       z     vdW  Elec       q    Type
REMARK                         _______ _______ _______ _____ _____    ______ ____
ROOT
ATOM      1  C   UNL     1     -10.139  13.904  67.184  0.00  0.00    -0.017 A 
ATOM      2  C   UNL     1     -10.108  15.141  66.946  0.00  0.00    +0.032 A 
ATOM      3  C   UNL     1      -9.237  16.129  67.457  0.00  0.00    +0.137 A 
ATOM      4  O   UNL     1      -9.454  17.559  67.635  0.00  0.00    -0.483 OA
ATOM      5  C   UNL     1      -9.016  18.773  67.922  0.00  0.00    +0.134 C 
ATOM      6  C   UNL     1      -7.666  18.190  68.541  0.00  0.00    +0.042 C 
ATOM      7  C   UNL     1      -8.689  16.894  68.924  0.00  0.00    +0.039 C 
ATOM      8  C   UNL     1      -9.875  17.316  67.846  0.00  0.00    +0.069 C 
ATOM      9  C   UNL     1      -9.336  17.361  66.351  0.00  0.00    +0.151 C 
ATOM     10  O   UNL     1     -10.011  17.178  65.361  0.00  0.00    -0.296 OA
ATOM     11  C   UNL     1      -8.019  17.933  65.972  0.00  0.00    +0.065 C 
ATOM     12  C   UNL     1      -7.098  17.656  67.119  0.00  0.00    +0.012 C 
ATOM     13  C   UNL     1      -8.723  19.925  67.079  0.00  0.00    +0.044 C 
ATOM     14  C   UNL     1      -9.781  19.393  69.105  0.00  0.00    +0.044 C 
ATOM     15  C   UNL     1      -8.132  15.802  67.961  0.00  0.00    +0.051 A 
ATOM     16  C   UNL     1      -8.019  14.498  68.243  0.00  0.00    +0.194 A 
ATOM     17  O   UNL     1      -7.292  14.298  69.429  0.00  0.00    -0.287 OA
ATOM     18  C   UNL     1      -8.915  13.543  67.731  0.00  0.00    +0.038 A 
ENDROOT
BRANCH   1  19
ATOM     19  C   UNL     1     -11.495  13.435  67.480  0.00  0.00    +0.019 C 
ATOM     20  C   UNL     1     -11.642  11.924  67.639  0.00  0.00    +0.004 C 
ATOM     21  C   UNL     1     -11.910  14.065  68.765  0.00  0.00    +0.004 C 
BRANCH  19  22
ATOM     22  C   UNL     1     -12.327  13.846  66.323  0.00  0.00    +0.004 C 
BRANCH  22  23
ATOM     23  C   UNL     1     -12.416  12.679  65.397  0.00  0.00    +0.000 C 
BRANCH  23  24
ATOM     24  C   UNL     1     -11.939  13.106  64.014  0.00  0.00    +0.000 C 
BRANCH  24  25
ATOM     25  C   UNL     1     -10.563  12.516  63.860  0.00  0.00    +0.000 C 
BRANCH  25  27
ATOM     26  C   UNL     1      -9.477  10.802  64.732  0.00  0.00    +0.000 C 
ATOM     27  C   UNL     1     -10.528  11.028  64.179  0.00  0.00    +0.000 C 
ENDBRANCH  25  27
ENDBRANCH  24  25
ENDBRANCH  23  24
ENDBRANCH  22  23
ENDBRANCH  19  22
ENDBRANCH   1  19
TORSDOF 6
ENDMDL
MODEL 8
REMARK VINA RESULT:      -5.9      2.108      6.434
REMARK  Name = 
REMARK  6 active torsions:
REMARK  status: ('A' for Active; 'I' for Inactive)
REMARK    1  A    between atoms: C_2  and  C_3
REMARK    2  A    between atoms: C_3  and  C_4
REMARK    3  A    between atoms: C_4  and  C_5
REMARK    4  A    between atoms: C_5  and  C_6
REMARK    5  A    between atoms: C_6  and  C_7
REMARK    6  A    between atoms: C_7  and  C_10
REMARK                            x       y       z     vdW  Elec       q    Type
REMARK                         _______ _______ _______ _____ _____    ______ ____
ROOT
ATOM      1  C   UNL     1     -10.137  15.753  67.470  0.00  0.00    -0.017 A 
ATOM      2  C   UNL     1      -8.926  16.069  67.319  0.00  0.00    +0.032 A 
ATOM      3  C   UNL     1      -8.340  17.351  67.229  0.00  0.00    +0.137 A 
ATOM      4  O   UNL     1      -7.109  17.767  66.568  0.00  0.00    -0.483 OA
ATOM      5  C   UNL     1      -6.183  18.672  66.303  0.00  0.00    +0.134 C 
ATOM      6  C   UNL     1      -7.102  19.846  66.871  0.00  0.00    +0.042 C 
ATOM      7  C   UNL     1      -8.332  18.828  66.305  0.00  0.00    +0.039 C 
ATOM      8  C   UNL     1      -7.378  17.476  66.216  0.00  0.00    +0.069 C 
ATOM      9  C   UNL     1      -6.751  17.093  67.626  0.00  0.00    +0.151 C 
ATOM     10  O   UNL     1      -6.427  15.976  67.965  0.00  0.00    -0.296 OA
ATOM     11  C   UNL     1      -6.201  18.094  68.576  0.00  0.00    +0.065 C 
ATOM     12  C   UNL     1      -7.028  19.329  68.406  0.00  0.00    +0.012 C 
ATOM     13  C   UNL     1      -4.815  18.831  66.780  0.00  0.00    +0.044 C 
ATOM     14  C   UNL     1      -6.058  18.938  64.792  0.00  0.00    +0.044 C 
ATOM     15  C   UNL     1      -8.955  18.362  67.655  0.00  0.00    +0.051 A 
ATOM     16  C   UNL     1     -10.259  18.158  67.882  0.00  0.00    +0.194 A 
ATOM     17  O   UNL     1     -11.015  19.292  67.541  0.00  0.00    -0.287 OA
ATOM     18  C   UNL     1     -10.813  16.868  67.949  0.00  0.00    +0.038 A 
ENDROOT
BRANCH   1  19
ATOM     19  C   UNL     1     -10.555  14.713  66.526  0.00  0.00    +0.019 C 
ATOM     20  C   UNL     1     -11.896  14.053  66.834  0.00  0.00    +0.004 C 
ATOM     21  C   UNL     1     -10.666  15.352  65.184  0.00  0.00    +0.004 C 
BRANCH  19  22
ATOM     22  C   UNL     1      -9.512  13.660  66.596  0.00  0.00    +0.004 C 
BRANCH  22  23
ATOM     23  C   UNL     1     -10.200  12.340  66.484  0.00  0.00    +0.000 C 
BRANCH  23  24
ATOM     24  C   UNL     1      -9.564  11.545  65.351  0.00  0.00    +0.000 C 
BRANCH  24  25
ATOM     25  C   UNL     1     -10.708  11.090  64.484  0.00  0.00    +0.000 C 
BRANCH  25  27
ATOM     26  C   UNL     1     -12.346  12.155  63.454  0.00  0.00    +0.000 C 
ATOM     27  C   UNL     1     -11.137  12.153  63.482  0.00  0.00    +0.000 C 
ENDBRANCH  25  27
ENDBRANCH  24  25
ENDBRANCH  23  24
ENDBRANCH  22  23
ENDBRANCH  19  22
ENDBRANCH   1  19
TORSDOF 6
ENDMDL
MODEL 9
REMARK VINA RESULT:      -5.9      2.205      6.426
REMARK  Name = 
REMARK  6 active torsions:
REMARK  status: ('A' for Active; 'I' for Inactive)
REMARK    1  A    between atoms: C_2  and  C_3
REMARK    2  A    between atoms: C_3  and  C_4
REMARK    3  A    between atoms: C_4  and  C_5
REMARK    4  A    between atoms: C_5  and  C_6
REMARK    5  A    between atoms: C_6  and  C_7
REMARK    6  A    between atoms: C_7  and  C_10
REMARK                            x       y       z     vdW  Elec       q    Type
REMARK                         _______ _______ _______ _____ _____    ______ ____
ROOT
ATOM      1  C   UNL     1      -9.710  15.966  68.287  0.00  0.00    -0.017 A 
ATOM      2  C   UNL     1      -8.546  16.381  68.038  0.00  0.00    +0.032 A 
ATOM      3  C   UNL     1      -8.123  17.667  67.635  0.00  0.00    +0.137 A 
ATOM      4  O   UNL     1      -6.949  18.061  66.867  0.00  0.00    -0.483 OA
ATOM      5  C   UNL     1      -6.140  18.983  66.374  0.00  0.00    +0.134 C 
ATOM      6  C   UNL     1      -7.200  20.138  66.670  0.00  0.00    +0.042 C 
ATOM      7  C   UNL     1      -8.291  18.872  66.388  0.00  0.00    +0.039 C 
ATOM      8  C   UNL     1      -7.177  17.665  66.599  0.00  0.00    +0.069 C 
ATOM      9  C   UNL     1      -6.517  17.706  68.044  0.00  0.00    +0.151 C 
ATOM     10  O   UNL     1      -6.060  16.749  68.630  0.00  0.00    -0.296 OA
ATOM     11  C   UNL     1      -6.101  18.962  68.719  0.00  0.00    +0.065 C 
ATOM     12  C   UNL     1      -7.074  20.013  68.282  0.00  0.00    +0.012 C 
ATOM     13  C   UNL     1      -4.805  19.416  66.768  0.00  0.00    +0.044 C 
ATOM     14  C   UNL     1      -6.038  18.897  64.840  0.00  0.00    +0.044 C 
ATOM     15  C   UNL     1      -8.861  18.668  67.824  0.00  0.00    +0.051 A 
ATOM     16  C   UNL     1     -10.131  18.366  68.123  0.00  0.00    +0.194 A 
ATOM     17  O   UNL     1     -11.020  19.287  67.541  0.00  0.00    -0.287 OA
ATOM     18  C   UNL     1     -10.522  17.071  68.505  0.00  0.00    +0.038 A 
ENDROOT
BRANCH   1  19
ATOM     19  C   UNL     1      -9.990  14.689  67.625  0.00  0.00    +0.019 C 
ATOM     20  C   UNL     1      -8.771  13.970  67.052  0.00  0.00    +0.004 C 
ATOM     21  C   UNL     1     -10.605  13.789  68.642  0.00  0.00    +0.004 C 
BRANCH  19  22
ATOM     22  C   UNL     1     -10.894  15.009  66.493  0.00  0.00    +0.004 C 
BRANCH  22  23
ATOM     23  C   UNL     1     -12.127  14.185  66.658  0.00  0.00    +0.000 C 
BRANCH  23  24
ATOM     24  C   UNL     1     -12.740  13.929  65.287  0.00  0.00    +0.000 C 
BRANCH  24  25
ATOM     25  C   UNL     1     -12.357  12.518  64.929  0.00  0.00    +0.000 C 
BRANCH  25  27
ATOM     26  C   UNL     1     -10.466  12.364  63.799  0.00  0.00    +0.000 C 
ATOM     27  C   UNL     1     -11.653  12.428  63.582  0.00  0.00    +0.000 C 
ENDBRANCH  25  27
ENDBRANCH  24  25
ENDBRANCH  23  24
ENDBRANCH  22  23
ENDBRANCH  19  22
ENDBRANCH   1  19
TORSDOF 6
ENDMDL
