MODEL 1
REMARK VINA RESULT:      -5.8      0.000      0.000
REMARK  Name = 
REMARK  7 active torsions:
REMARK  status: ('A' for Active; 'I' for Inactive)
REMARK    1  A    between atoms: C_2  and  C_3
REMARK    2  A    between atoms: C_3  and  C_4
REMARK    3  A    between atoms: C_6  and  C_7
REMARK    4  A    between atoms: N_9  and  C_10
REMARK    5  A    between atoms: C_10  and  C_11
REMARK    6  A    between atoms: C_10  and  C_14
REMARK    7  A    between atoms: C_16  and  S_17
REMARK                            x       y       z     vdW  Elec       q    Type
REMARK                         _______ _______ _______ _____ _____    ______ ____
ROOT
ATOM      1  C   UNL     1     -10.861  15.905  66.257  0.00  0.00    +0.155 C 
ENDROOT
BRANCH   1   2
ATOM      2  C   UNL     1      -9.299  16.305  66.751  0.00  0.00    +0.172 C 
ATOM      3  C   UNL     1      -9.843  17.718  67.540  0.00  0.00    +0.213 C 
ATOM      4  O   UNL     1     -10.481  18.373  66.352  0.00  0.00    -0.218 OA
ATOM      5  C   UNL     1      -8.503  18.727  67.670  0.00  0.00    +0.218 C 
ATOM      6  O   UNL     1      -8.795  19.633  66.449  0.00  0.00    -0.217 OA
ATOM      7  C   UNL     1      -7.195  18.268  66.705  0.00  0.00    +0.222 C 
ATOM      8  O   UNL     1      -6.279  18.174  67.939  0.00  0.00    -0.217 OA
ATOM      9  C   UNL     1      -7.446  16.632  66.444  0.00  0.00    +0.195 C 
ATOM     10  O   UNL     1      -8.678  17.081  65.702  0.00  0.00    -0.341 OA
BRANCH   9  11
ATOM     11  S   UNL     1      -7.901  16.284  68.243  0.00  0.00    -0.108 S 
ATOM     12  C   UNL     1      -7.271  15.252  69.300  0.00  0.00    +0.072 C 
ENDBRANCH   9  11
ENDBRANCH   1   2
BRANCH   1  13
ATOM     13  C   UNL     1     -10.868  15.525  64.618  0.00  0.00    +0.174 C 
ATOM     14  O   UNL     1     -11.614  16.675  64.046  0.00  0.00    -0.221 OA
ATOM     15  C   UNL     1     -12.182  14.510  64.605  0.00  0.00    +0.037 C 
ENDBRANCH   1  13
BRANCH   1  17
ATOM     16  C   UNL     1     -10.821  13.797  67.911  0.00  0.00    +0.256 C 
ATOM     17  N   UNL     1     -10.450  14.436  66.698  0.00  0.00    -0.201 NA
ATOM     18  O   UNL     1     -11.032  14.655  68.819  0.00  0.00    -0.272 OA
BRANCH  16  23
ATOM     19  C   UNL     1     -10.520  10.406  67.411  0.00  0.00    +0.018 C 
ATOM     20  C   UNL     1      -9.803  10.561  68.867  0.00  0.00    +0.073 C 
ATOM     21  N   UNL     1     -10.687  11.740  69.065  0.00  0.00    -0.265 NA
ATOM     22  C   UNL     1     -11.959  11.648  68.425  0.00  0.00    +0.090 C 
ATOM     23  C   UNL     1      -9.717  12.649  68.237  0.00  0.00    +0.137 C 
ATOM     24  C   UNL     1      -9.825  11.766  66.855  0.00  0.00    +0.027 C 
BRANCH  19  25
ATOM     25  C   UNL     1      -9.484   9.333  66.772  0.00  0.00    +0.001 C 
BRANCH  25  27
ATOM     26  C   UNL     1     -10.602   7.445  66.933  0.00  0.00    +0.000 C 
ATOM     27  C   UNL     1     -10.173   7.884  66.832  0.00  0.00    +0.000 C 
ENDBRANCH  25  27
ENDBRANCH  19  25
ENDBRANCH  16  23
ENDBRANCH   1  17
TORSDOF 7
ENDMDL
MODEL 2
REMARK VINA RESULT:      -5.8      3.116      5.102
REMARK  Name = 
REMARK  7 active torsions:
REMARK  status: ('A' for Active; 'I' for Inactive)
REMARK    1  A    between atoms: C_2  and  C_3
REMARK    2  A    between atoms: C_3  and  C_4
REMARK    3  A    between atoms: C_6  and  C_7
REMARK    4  A    between atoms: N_9  and  C_10
REMARK    5  A    between atoms: C_10  and  C_11
REMARK    6  A    between atoms: C_10  and  C_14
REMARK    7  A    between atoms: C_16  and  S_17
REMARK                            x       y       z     vdW  Elec       q    Type
REMARK                         _______ _______ _______ _____ _____    ______ ____
ROOT
ATOM      1  C   UNL     1      -7.753  15.802  67.262  0.00  0.00    +0.155 C 
ENDROOT
BRANCH   1   2
ATOM      2  C   UNL     1      -7.800  17.458  67.574  0.00  0.00    +0.172 C 
ATOM      3  C   UNL     1      -7.314  17.836  65.981  0.00  0.00    +0.213 C 
ATOM      4  O   UNL     1      -6.022  17.075  65.985  0.00  0.00    -0.218 OA
ATOM      5  C   UNL     1      -6.669  19.388  66.045  0.00  0.00    +0.218 C 
ATOM      6  O   UNL     1      -5.172  18.999  66.110  0.00  0.00    -0.217 OA
ATOM      7  C   UNL     1      -6.340  19.938  67.608  0.00  0.00    +0.222 C 
ATOM      8  O   UNL     1      -7.254  21.160  67.404  0.00  0.00    -0.217 OA
ATOM      9  C   UNL     1      -7.351  19.017  68.576  0.00  0.00    +0.195 C 
ATOM     10  O   UNL     1      -6.515  17.856  68.104  0.00  0.00    -0.341 OA
BRANCH   9  11
ATOM     11  S   UNL     1      -8.839  19.214  67.431  0.00  0.00    -0.108 S 
ATOM     12  C   UNL     1     -10.370  19.571  67.758  0.00  0.00    +0.072 C 
ENDBRANCH   9  11
ENDBRANCH   1   2
BRANCH   1  13
ATOM     13  C   UNL     1      -6.852  15.017  68.447  0.00  0.00    +0.174 C 
ATOM     14  O   UNL     1      -5.683  14.535  67.666  0.00  0.00    -0.221 OA
ATOM     15  C   UNL     1      -7.630  13.550  68.418  0.00  0.00    +0.037 C 
ENDBRANCH   1  13
BRANCH   1  17
ATOM     16  C   UNL     1     -10.336  15.231  67.688  0.00  0.00    +0.256 C 
ATOM     17  N   UNL     1      -9.091  15.766  68.115  0.00  0.00    -0.201 NA
ATOM     18  O   UNL     1     -10.434  15.285  66.426  0.00  0.00    -0.272 OA
BRANCH  16  23
ATOM     19  C   UNL     1     -11.475  15.157  70.934  0.00  0.00    +0.018 C 
ATOM     20  C   UNL     1     -12.881  15.322  70.125  0.00  0.00    +0.073 C 
ATOM     21  N   UNL     1     -12.201  14.621  69.002  0.00  0.00    -0.265 NA
ATOM     22  C   UNL     1     -11.221  13.664  69.402  0.00  0.00    +0.090 C 
ATOM     23  C   UNL     1     -11.517  15.952  68.541  0.00  0.00    +0.137 C 
ATOM     24  C   UNL     1     -10.716  16.208  69.953  0.00  0.00    +0.027 C 
BRANCH  19  25
ATOM     25  C   UNL     1     -11.808  16.172  72.155  0.00  0.00    +0.001 C 
BRANCH  25  27
ATOM     26  C   UNL     1     -12.506  15.132  73.964  0.00  0.00    +0.000 C 
ATOM     27  C   UNL     1     -12.375  15.302  73.380  0.00  0.00    +0.000 C 
ENDBRANCH  25  27
ENDBRANCH  19  25
ENDBRANCH  16  23
ENDBRANCH   1  17
TORSDOF 7
ENDMDL
MODEL 3
REMARK VINA RESULT:      -5.7      3.225      7.576
REMARK  Name = 
REMARK  7 active torsions:
REMARK  status: ('A' for Active; 'I' for Inactive)
REMARK    1  A    between atoms: C_2  and  C_3
REMARK    2  A    between atoms: C_3  and  C_4
REMARK    3  A    between atoms: C_6  and  C_7
REMARK    4  A    between atoms: N_9  and  C_10
REMARK    5  A    between atoms: C_10  and  C_11
REMARK    6  A    between atoms: C_10  and  C_14
REMARK    7  A    between atoms: C_16  and  S_17
REMARK                            x       y       z     vdW  Elec       q    Type
REMARK                         _______ _______ _______ _____ _____    ______ ____
ROOT
ATOM      1  C   UNL     1      -9.733  18.167  66.425  0.00  0.00    +0.155 C 
ENDROOT
BRANCH   1   2
ATOM      2  C   UNL     1      -9.649  16.699  67.250  0.00  0.00    +0.172 C 
ATOM      3  C   UNL     1      -9.386  15.829  65.804  0.00  0.00    +0.213 C 
ATOM      4  O   UNL     1     -10.632  16.255  65.089  0.00  0.00    -0.218 OA
ATOM      5  C   UNL     1      -9.834  14.240  66.125  0.00  0.00    +0.218 C 
ATOM      6  O   UNL     1     -11.253  14.286  65.508  0.00  0.00    -0.217 OA
ATOM      7  C   UNL     1     -10.725  14.046  67.547  0.00  0.00    +0.222 C 
ATOM      8  O   UNL     1      -9.688  13.051  68.098  0.00  0.00    -0.217 OA
ATOM      9  C   UNL     1     -10.311  15.386  68.463  0.00  0.00    +0.195 C 
ATOM     10  O   UNL     1     -10.989  16.170  67.371  0.00  0.00    -0.341 OA
BRANCH   9  11
ATOM     11  S   UNL     1      -8.470  15.245  68.072  0.00  0.00    -0.108 S 
ATOM     12  C   UNL     1      -7.199  15.121  69.047  0.00  0.00    +0.072 C 
ENDBRANCH   9  11
ENDBRANCH   1   2
BRANCH   1  13
ATOM     13  C   UNL     1     -10.604  19.288  67.329  0.00  0.00    +0.174 C 
ATOM     14  O   UNL     1      -9.898  20.552  67.000  0.00  0.00    -0.221 OA
ATOM     15  C   UNL     1      -9.825  19.089  68.783  0.00  0.00    +0.037 C 
ENDBRANCH   1  13
BRANCH   1  17
ATOM     16  C   UNL     1      -7.162  18.910  66.550  0.00  0.00    +0.256 C 
ATOM     17  N   UNL     1      -8.366  18.479  67.169  0.00  0.00    -0.201 NA
ATOM     18  O   UNL     1      -7.110  18.510  65.350  0.00  0.00    -0.272 OA
BRANCH  16  23
ATOM     19  C   UNL     1      -5.748  20.084  69.460  0.00  0.00    +0.018 C 
ATOM     20  C   UNL     1      -4.419  19.586  68.658  0.00  0.00    +0.073 C 
ATOM     21  N   UNL     1      -5.185  19.871  67.414  0.00  0.00    -0.265 NA
ATOM     22  C   UNL     1      -6.117  20.946  67.520  0.00  0.00    +0.090 C 
ATOM     23  C   UNL     1      -5.920  18.492  67.511  0.00  0.00    +0.137 C 
ATOM     24  C   UNL     1      -6.600  18.786  68.979  0.00  0.00    +0.027 C 
BRANCH  19  25
ATOM     25  C   UNL     1      -5.323  19.556  70.933  0.00  0.00    +0.001 C 
BRANCH  25  27
ATOM     26  C   UNL     1      -4.228  21.258  71.796  0.00  0.00    +0.000 C 
ATOM     27  C   UNL     1      -4.593  20.763  71.700  0.00  0.00    +0.000 C 
ENDBRANCH  25  27
ENDBRANCH  19  25
ENDBRANCH  16  23
ENDBRANCH   1  17
TORSDOF 7
ENDMDL
MODEL 4
REMARK VINA RESULT:      -5.6      3.711      6.414
REMARK  Name = 
REMARK  7 active torsions:
REMARK  status: ('A' for Active; 'I' for Inactive)
REMARK    1  A    between atoms: C_2  and  C_3
REMARK    2  A    between atoms: C_3  and  C_4
REMARK    3  A    between atoms: C_6  and  C_7
REMARK    4  A    between atoms: N_9  and  C_10
REMARK    5  A    between atoms: C_10  and  C_11
REMARK    6  A    between atoms: C_10  and  C_14
REMARK    7  A    between atoms: C_16  and  S_17
REMARK                            x       y       z     vdW  Elec       q    Type
REMARK                         _______ _______ _______ _____ _____    ______ ____
ROOT
ATOM      1  C   UNL     1     -10.681  12.703  65.168  0.00  0.00    +0.155 C 
ENDROOT
BRANCH   1   2
ATOM      2  C   UNL     1     -10.043  11.348  65.942  0.00  0.00    +0.172 C 
ATOM      3  C   UNL     1      -8.739  11.257  64.844  0.00  0.00    +0.213 C 
ATOM      4  O   UNL     1      -9.547  11.134  63.587  0.00  0.00    -0.218 OA
ATOM      5  C   UNL     1      -8.176   9.674  64.915  0.00  0.00    +0.218 C 
ATOM      6  O   UNL     1      -8.904   9.129  63.661  0.00  0.00    -0.217 OA
ATOM      7  C   UNL     1      -9.227   8.600  65.687  0.00  0.00    +0.222 C 
ATOM      8  O   UNL     1      -8.136   8.216  66.703  0.00  0.00    -0.217 OA
ATOM      9  C   UNL     1     -10.157   9.589  66.668  0.00  0.00    +0.195 C 
ATOM     10  O   UNL     1     -10.657  10.170  65.372  0.00  0.00    -0.341 OA
BRANCH   9  11
ATOM     11  S   UNL     1      -8.681  10.599  67.270  0.00  0.00    -0.108 S 
ATOM     12  C   UNL     1      -8.166  10.916  68.758  0.00  0.00    +0.072 C 
ENDBRANCH   9  11
ENDBRANCH   1   2
BRANCH   1  13
ATOM     13  C   UNL     1     -12.346  12.536  64.992  0.00  0.00    +0.174 C 
ATOM     14  O   UNL     1     -12.515  12.739  63.530  0.00  0.00    -0.221 OA
ATOM     15  C   UNL     1     -12.793  14.088  65.381  0.00  0.00    +0.037 C 
ENDBRANCH   1  13
BRANCH   1  17
ATOM     16  C   UNL     1     -10.030  14.363  67.169  0.00  0.00    +0.256 C 
ATOM     17  N   UNL     1     -10.795  13.290  66.639  0.00  0.00    -0.201 NA
ATOM     18  O   UNL     1      -8.912  14.446  66.579  0.00  0.00    -0.272 OA
BRANCH  16  23
ATOM     19  C   UNL     1     -12.157  15.005  69.796  0.00  0.00    +0.018 C 
ATOM     20  C   UNL     1     -10.723  15.387  70.469  0.00  0.00    +0.073 C 
ATOM     21  N   UNL     1     -10.275  15.716  69.090  0.00  0.00    -0.265 NA
ATOM     22  C   UNL     1     -11.301  16.215  68.232  0.00  0.00    +0.090 C 
ATOM     23  C   UNL     1      -9.989  14.206  68.786  0.00  0.00    +0.137 C 
ATOM     24  C   UNL     1     -11.531  13.703  69.051  0.00  0.00    +0.027 C 
BRANCH  19  25
ATOM     25  C   UNL     1     -12.806  14.254  71.079  0.00  0.00    +0.001 C 
BRANCH  25  27
ATOM     26  C   UNL     1     -14.725  15.116  71.722  0.00  0.00    +0.000 C 
ATOM     27  C   UNL     1     -14.202  14.972  71.419  0.00  0.00    +0.000 C 
ENDBRANCH  25  27
ENDBRANCH  19  25
ENDBRANCH  16  23
ENDBRANCH   1  17
TORSDOF 7
ENDMDL
MODEL 5
REMARK VINA RESULT:      -5.5      2.540      5.965
REMARK  Name = 
REMARK  7 active torsions:
REMARK  status: ('A' for Active; 'I' for Inactive)
REMARK    1  A    between atoms: C_2  and  C_3
REMARK    2  A    between atoms: C_3  and  C_4
REMARK    3  A    between atoms: C_6  and  C_7
REMARK    4  A    between atoms: N_9  and  C_10
REMARK    5  A    between atoms: C_10  and  C_11
REMARK    6  A    between atoms: C_10  and  C_14
REMARK    7  A    between atoms: C_16  and  S_17
REMARK                            x       y       z     vdW  Elec       q    Type
REMARK                         _______ _______ _______ _____ _____    ______ ____
ROOT
ATOM      1  C   UNL     1      -9.522  16.718  66.842  0.00  0.00    +0.155 C 
ENDROOT
BRANCH   1   2
ATOM      2  C   UNL     1     -10.246  15.196  66.810  0.00  0.00    +0.172 C 
ATOM      3  C   UNL     1     -10.162  15.123  65.106  0.00  0.00    +0.213 C 
ATOM      4  O   UNL     1     -10.945  16.369  64.818  0.00  0.00    -0.218 OA
ATOM      5  C   UNL     1     -11.323  14.004  64.628  0.00  0.00    +0.218 C 
ATOM      6  O   UNL     1     -12.444  15.002  64.250  0.00  0.00    -0.217 OA
ATOM      7  C   UNL     1     -12.432  13.596  65.836  0.00  0.00    +0.222 C 
ATOM      8  O   UNL     1     -12.061  12.107  65.716  0.00  0.00    -0.217 OA
ATOM      9  C   UNL     1     -11.620  13.952  67.258  0.00  0.00    +0.195 C 
ATOM     10  O   UNL     1     -11.679  15.377  66.772  0.00  0.00    -0.341 OA
BRANCH   9  11
ATOM     11  S   UNL     1     -10.002  13.170  66.681  0.00  0.00    -0.108 S 
ATOM     12  C   UNL     1      -9.043  12.099  67.399  0.00  0.00    +0.072 C 
ENDBRANCH   9  11
ENDBRANCH   1   2
BRANCH   1  13
ATOM     13  C   UNL     1     -10.041  17.575  68.194  0.00  0.00    +0.174 C 
ATOM     14  O   UNL     1     -11.058  18.482  67.603  0.00  0.00    -0.221 OA
ATOM     15  C   UNL     1      -8.850  18.732  68.225  0.00  0.00    +0.037 C 
ENDBRANCH   1  13
BRANCH   1  17
ATOM     16  C   UNL     1      -6.970  16.143  67.426  0.00  0.00    +0.256 C 
ATOM     17  N   UNL     1      -8.365  15.973  67.635  0.00  0.00    -0.201 NA
ATOM     18  O   UNL     1      -6.740  16.505  66.234  0.00  0.00    -0.272 OA
BRANCH  16  23
ATOM     19  C   UNL     1      -5.632  15.003  70.384  0.00  0.00    +0.018 C 
ATOM     20  C   UNL     1      -4.570  14.384  69.314  0.00  0.00    +0.073 C 
ATOM     21  N   UNL     1      -4.927  15.536  68.443  0.00  0.00    -0.265 NA
ATOM     22  C   UNL     1      -5.274  16.729  69.145  0.00  0.00    +0.090 C 
ATOM     23  C   UNL     1      -6.213  14.799  67.938  0.00  0.00    +0.137 C 
ATOM     24  C   UNL     1      -6.897  14.652  69.426  0.00  0.00    +0.027 C 
BRANCH  19  25
ATOM     25  C   UNL     1      -5.718  13.720  71.371  0.00  0.00    +0.001 C 
BRANCH  25  27
ATOM     26  C   UNL     1      -5.082  14.152  73.432  0.00  0.00    +0.000 C 
ATOM     27  C   UNL     1      -5.212  14.178  72.825  0.00  0.00    +0.000 C 
ENDBRANCH  25  27
ENDBRANCH  19  25
ENDBRANCH  16  23
ENDBRANCH   1  17
TORSDOF 7
ENDMDL
MODEL 6
REMARK VINA RESULT:      -5.3      2.627      3.840
REMARK  Name = 
REMARK  7 active torsions:
REMARK  status: ('A' for Active; 'I' for Inactive)
REMARK    1  A    between atoms: C_2  and  C_3
REMARK    2  A    between atoms: C_3  and  C_4
REMARK    3  A    between atoms: C_6  and  C_7
REMARK    4  A    between atoms: N_9  and  C_10
REMARK    5  A    between atoms: C_10  and  C_11
REMARK    6  A    between atoms: C_10  and  C_14
REMARK    7  A    between atoms: C_16  and  S_17
REMARK                            x       y       z     vdW  Elec       q    Type
REMARK                         _______ _______ _______ _____ _____    ______ ____
ROOT
ATOM      1  C   UNL     1      -8.434  18.127  68.109  0.00  0.00    +0.155 C 
ENDROOT
BRANCH   1   2
ATOM      2  C   UNL     1      -6.892  17.510  67.813  0.00  0.00    +0.172 C 
ATOM      3  C   UNL     1      -6.330  18.010  69.347  0.00  0.00    +0.213 C 
ATOM      4  O   UNL     1      -6.630  19.471  69.200  0.00  0.00    -0.218 OA
ATOM      5  C   UNL     1      -4.655  18.103  69.223  0.00  0.00    +0.218 C 
ATOM      6  O   UNL     1      -4.540  19.630  68.995  0.00  0.00    -0.217 OA
ATOM      7  C   UNL     1      -4.075  18.070  67.637  0.00  0.00    +0.222 C 
ATOM      8  O   UNL     1      -3.211  16.834  67.947  0.00  0.00    -0.217 OA
ATOM      9  C   UNL     1      -5.303  17.320  66.779  0.00  0.00    +0.195 C 
ATOM     10  O   UNL     1      -6.115  18.533  67.151  0.00  0.00    -0.341 OA
BRANCH   9  11
ATOM     11  S   UNL     1      -5.566  15.977  68.079  0.00  0.00    -0.108 S 
ATOM     12  C   UNL     1      -5.548  14.376  67.947  0.00  0.00    +0.072 C 
ENDBRANCH   9  11
ENDBRANCH   1   2
BRANCH   1  13
ATOM     13  C   UNL     1      -8.983  18.974  66.763  0.00  0.00    +0.174 C 
ATOM     14  O   UNL     1      -8.904  20.379  67.238  0.00  0.00    -0.221 OA
ATOM     15  C   UNL     1     -10.616  18.845  67.040  0.00  0.00    +0.037 C 
ENDBRANCH   1  13
BRANCH   1  17
ATOM     16  C   UNL     1      -9.557  15.702  68.311  0.00  0.00    +0.256 C 
ATOM     17  N   UNL     1      -8.926  16.724  67.552  0.00  0.00    -0.201 NA
ATOM     18  O   UNL     1      -9.208  15.773  69.527  0.00  0.00    -0.272 OA
BRANCH  16  23
ATOM     19  C   UNL     1     -11.025  13.927  65.756  0.00  0.00    +0.018 C 
ATOM     20  C   UNL     1     -10.584  12.714  66.751  0.00  0.00    +0.073 C 
ATOM     21  N   UNL     1     -10.725  13.701  67.855  0.00  0.00    -0.265 NA
ATOM     22  C   UNL     1     -11.727  14.694  67.642  0.00  0.00    +0.090 C 
ATOM     23  C   UNL     1      -9.301  14.283  67.562  0.00  0.00    +0.137 C 
ATOM     24  C   UNL     1      -9.634  14.728  66.014  0.00  0.00    +0.027 C 
BRANCH  19  25
ATOM     25  C   UNL     1     -10.629  13.212  64.355  0.00  0.00    +0.001 C 
BRANCH  25  27
ATOM     26  C   UNL     1     -12.337  12.150  63.463  0.00  0.00    +0.000 C 
ATOM     27  C   UNL     1     -11.961  12.564  63.735  0.00  0.00    +0.000 C 
ENDBRANCH  25  27
ENDBRANCH  19  25
ENDBRANCH  16  23
ENDBRANCH   1  17
TORSDOF 7
ENDMDL
MODEL 7
REMARK VINA RESULT:      -5.2      2.598      7.106
REMARK  Name = 
REMARK  7 active torsions:
REMARK  status: ('A' for Active; 'I' for Inactive)
REMARK    1  A    between atoms: C_2  and  C_3
REMARK    2  A    between atoms: C_3  and  C_4
REMARK    3  A    between atoms: C_6  and  C_7
REMARK    4  A    between atoms: N_9  and  C_10
REMARK    5  A    between atoms: C_10  and  C_11
REMARK    6  A    between atoms: C_10  and  C_14
REMARK    7  A    between atoms: C_16  and  S_17
REMARK                            x       y       z     vdW  Elec       q    Type
REMARK                         _______ _______ _______ _____ _____    ______ ____
ROOT
ATOM      1  C   UNL     1     -11.209  14.745  67.370  0.00  0.00    +0.155 C 
ENDROOT
BRANCH   1   2
ATOM      2  C   UNL     1     -10.029  13.551  67.531  0.00  0.00    +0.172 C 
ATOM      3  C   UNL     1     -10.169  13.103  65.889  0.00  0.00    +0.213 C 
ATOM      4  O   UNL     1     -11.630  12.767  65.901  0.00  0.00    -0.218 OA
ATOM      5  C   UNL     1      -9.571  11.535  65.780  0.00  0.00    +0.218 C 
ATOM      6  O   UNL     1     -10.925  10.784  65.809  0.00  0.00    -0.217 OA
ATOM      7  C   UNL     1      -9.389  10.757  67.269  0.00  0.00    +0.222 C 
ATOM      8  O   UNL     1      -7.892  10.522  66.997  0.00  0.00    -0.217 OA
ATOM      9  C   UNL     1      -9.258  12.019  68.363  0.00  0.00    +0.195 C 
ATOM     10  O   UNL     1     -10.676  12.332  67.961  0.00  0.00    -0.341 OA
BRANCH   9  11
ATOM     11  S   UNL     1      -8.074  13.009  67.277  0.00  0.00    -0.108 S 
ATOM     12  C   UNL     1      -6.663  13.695  67.623  0.00  0.00    +0.072 C 
ENDBRANCH   9  11
ENDBRANCH   1   2
BRANCH   1  13
ATOM     13  C   UNL     1     -11.728  15.252  68.888  0.00  0.00    +0.174 C 
ATOM     14  O   UNL     1     -11.773  16.726  68.714  0.00  0.00    -0.221 OA
ATOM     15  C   UNL     1     -10.257  15.267  69.660  0.00  0.00    +0.037 C 
ENDBRANCH   1  13
BRANCH   1  17
ATOM     16  C   UNL     1      -9.711  16.727  66.364  0.00  0.00    +0.256 C 
ATOM     17  N   UNL     1      -9.971  15.739  67.351  0.00  0.00    -0.201 NA
ATOM     18  O   UNL     1     -10.225  16.393  65.255  0.00  0.00    -0.272 OA
BRANCH  16  23
ATOM     19  C   UNL     1      -7.586  18.902  67.973  0.00  0.00    +0.018 C 
ATOM     20  C   UNL     1      -6.893  18.839  66.499  0.00  0.00    +0.073 C 
ATOM     21  N   UNL     1      -8.256  18.547  65.980  0.00  0.00    -0.265 NA
ATOM     22  C   UNL     1      -9.318  19.155  66.716  0.00  0.00    +0.090 C 
ATOM     23  C   UNL     1      -8.115  17.035  66.363  0.00  0.00    +0.137 C 
ATOM     24  C   UNL     1      -7.889  17.305  67.968  0.00  0.00    +0.027 C 
BRANCH  19  25
ATOM     25  C   UNL     1      -6.225  18.883  68.854  0.00  0.00    +0.001 C 
BRANCH  25  27
ATOM     26  C   UNL     1      -5.491  20.888  69.384  0.00  0.00    +0.000 C 
ATOM     27  C   UNL     1      -5.807  20.404  69.155  0.00  0.00    +0.000 C 
ENDBRANCH  25  27
ENDBRANCH  19  25
ENDBRANCH  16  23
ENDBRANCH   1  17
TORSDOF 7
ENDMDL
MODEL 8
REMARK VINA RESULT:      -5.1      1.334      1.960
REMARK  Name = 
REMARK  7 active torsions:
REMARK  status: ('A' for Active; 'I' for Inactive)
REMARK    1  A    between atoms: C_2  and  C_3
REMARK    2  A    between atoms: C_3  and  C_4
REMARK    3  A    between atoms: C_6  and  C_7
REMARK    4  A    between atoms: N_9  and  C_10
REMARK    5  A    between atoms: C_10  and  C_11
REMARK    6  A    between atoms: C_10  and  C_14
REMARK    7  A    between atoms: C_16  and  S_17
REMARK                            x       y       z     vdW  Elec       q    Type
REMARK                         _______ _______ _______ _____ _____    ______ ____
ROOT
ATOM      1  C   UNL     1     -10.929  15.989  66.491  0.00  0.00    +0.155 C 
ENDROOT
BRANCH   1   2
ATOM      2  C   UNL     1      -9.468  16.550  67.119  0.00  0.00    +0.172 C 
ATOM      3  C   UNL     1     -10.266  17.604  68.200  0.00  0.00    +0.213 C 
ATOM      4  O   UNL     1     -11.033  18.390  67.180  0.00  0.00    -0.218 OA
ATOM      5  C   UNL     1      -9.145  18.789  68.611  0.00  0.00    +0.218 C 
ATOM      6  O   UNL     1      -9.622  19.888  67.630  0.00  0.00    -0.217 OA
ATOM      7  C   UNL     1      -7.784  18.833  67.610  0.00  0.00    +0.222 C 
ATOM      8  O   UNL     1      -6.852  18.624  68.817  0.00  0.00    -0.217 OA
ATOM      9  C   UNL     1      -7.718  17.289  66.962  0.00  0.00    +0.195 C 
ATOM     10  O   UNL     1      -9.022  17.659  66.305  0.00  0.00    -0.341 OA
BRANCH   9  11
ATOM     11  S   UNL     1      -8.074  16.441  68.610  0.00  0.00    -0.108 S 
ATOM     12  C   UNL     1      -7.253  15.312  69.405  0.00  0.00    +0.072 C 
ENDBRANCH   9  11
ENDBRANCH   1   2
BRANCH   1  13
ATOM     13  C   UNL     1     -10.752  15.622  64.859  0.00  0.00    +0.174 C 
ATOM     14  O   UNL     1     -11.334  16.827  64.214  0.00  0.00    -0.221 OA
ATOM     15  C   UNL     1     -12.124  14.706  64.662  0.00  0.00    +0.037 C 
ENDBRANCH   1  13
BRANCH   1  17
ATOM     16  C   UNL     1     -11.157  13.604  67.692  0.00  0.00    +0.256 C 
ATOM     17  N   UNL     1     -10.404  14.569  66.970  0.00  0.00    -0.201 NA
ATOM     18  O   UNL     1     -12.064  14.167  68.374  0.00  0.00    -0.272 OA
BRANCH  16  23
ATOM     19  C   UNL     1      -8.981  11.052  66.924  0.00  0.00    +0.018 C 
ATOM     20  C   UNL     1      -9.523  10.558  68.380  0.00  0.00    +0.073 C 
ATOM     21  N   UNL     1     -10.769  11.303  68.057  0.00  0.00    -0.265 NA
ATOM     22  C   UNL     1     -11.101  11.340  66.670  0.00  0.00    +0.090 C 
ATOM     23  C   UNL     1     -10.117  12.655  68.504  0.00  0.00    +0.137 C 
ATOM     24  C   UNL     1      -8.889  12.599  67.413  0.00  0.00    +0.027 C 
BRANCH  19  25
ATOM     25  C   UNL     1      -7.423  10.647  67.124  0.00  0.00    +0.001 C 
BRANCH  25  27
ATOM     26  C   UNL     1      -6.072  12.381  67.228  0.00  0.00    +0.000 C 
ATOM     27  C   UNL     1      -6.561  12.002  67.164  0.00  0.00    +0.000 C 
ENDBRANCH  25  27
ENDBRANCH  19  25
ENDBRANCH  16  23
ENDBRANCH   1  17
TORSDOF 7
ENDMDL
MODEL 9
REMARK VINA RESULT:      -5.1      2.539      3.192
REMARK  Name = 
REMARK  7 active torsions:
REMARK  status: ('A' for Active; 'I' for Inactive)
REMARK    1  A    between atoms: C_2  and  C_3
REMARK    2  A    between atoms: C_3  and  C_4
REMARK    3  A    between atoms: C_6  and  C_7
REMARK    4  A    between atoms: N_9  and  C_10
REMARK    5  A    between atoms: C_10  and  C_11
REMARK    6  A    between atoms: C_10  and  C_14
REMARK    7  A    between atoms: C_16  and  S_17
REMARK                            x       y       z     vdW  Elec       q    Type
REMARK                         _______ _______ _______ _____ _____    ______ ____
ROOT
ATOM      1  C   UNL     1     -11.427  13.616  66.644  0.00  0.00    +0.155 C 
ENDROOT
BRANCH   1   2
ATOM      2  C   UNL     1     -10.044  14.558  66.847  0.00  0.00    +0.172 C 
ATOM      3  C   UNL     1     -10.505  15.004  68.430  0.00  0.00    +0.213 C 
ATOM      4  O   UNL     1     -11.828  15.619  68.084  0.00  0.00    -0.218 OA
ATOM      5  C   UNL     1      -9.673  16.424  68.778  0.00  0.00    +0.218 C 
ATOM      6  O   UNL     1     -10.812  17.424  68.466  0.00  0.00    -0.217 OA
ATOM      7  C   UNL     1      -8.982  17.170  67.429  0.00  0.00    +0.222 C 
ATOM      8  O   UNL     1      -7.584  17.105  68.070  0.00  0.00    -0.217 OA
ATOM      9  C   UNL     1      -8.818  15.921  66.323  0.00  0.00    +0.195 C 
ATOM     10  O   UNL     1     -10.324  15.886  66.349  0.00  0.00    -0.341 OA
BRANCH   9  11
ATOM     11  S   UNL     1      -8.149  14.704  67.602  0.00  0.00    -0.108 S 
ATOM     12  C   UNL     1      -6.778  13.868  67.634  0.00  0.00    +0.072 C 
ENDBRANCH   9  11
ENDBRANCH   1   2
BRANCH   1  13
ATOM     13  C   UNL     1     -12.093  13.891  65.123  0.00  0.00    +0.174 C 
ATOM     14  O   UNL     1     -13.517  14.145  65.460  0.00  0.00    -0.221 OA
ATOM     15  C   UNL     1     -12.354  12.312  64.678  0.00  0.00    +0.037 C 
ENDBRANCH   1  13
BRANCH   1  17
ATOM     16  C   UNL     1      -9.976  11.369  66.817  0.00  0.00    +0.256 C 
ATOM     17  N   UNL     1     -10.407  12.523  66.109  0.00  0.00    -0.201 NA
ATOM     18  O   UNL     1     -10.039  11.565  68.067  0.00  0.00    -0.272 OA
BRANCH  16  23
ATOM     19  C   UNL     1      -8.833   9.186  64.416  0.00  0.00    +0.018 C 
ATOM     20  C   UNL     1      -7.664   9.036  65.542  0.00  0.00    +0.073 C 
ATOM     21  N   UNL     1      -8.711   9.395  66.535  0.00  0.00    -0.265 NA
ATOM     22  C   UNL     1     -10.029   8.964  66.195  0.00  0.00    +0.090 C 
ATOM     23  C   UNL     1      -8.532  10.919  66.223  0.00  0.00    +0.137 C 
ATOM     24  C   UNL     1      -8.919  10.795  64.630  0.00  0.00    +0.027 C 
BRANCH  19  25
ATOM     25  C   UNL     1      -7.877   9.172  63.107  0.00  0.00    +0.001 C 
BRANCH  25  27
ATOM     26  C   UNL     1      -9.250   8.985  61.397  0.00  0.00    +0.000 C 
ATOM     27  C   UNL     1      -8.801   8.904  61.821  0.00  0.00    +0.000 C 
ENDBRANCH  25  27
ENDBRANCH  19  25
ENDBRANCH  16  23
ENDBRANCH   1  17
TORSDOF 7
ENDMDL
