MODEL 1
REMARK VINA RESULT:      -6.4      0.000      0.000
REMARK  Name = 
REMARK  6 active torsions:
REMARK  status: ('A' for Active; 'I' for Inactive)
REMARK    1  A    between atoms: C_2  and  N_5
REMARK    2  A    between atoms: N_5  and  C_6
REMARK    3  A    between atoms: C_6  and  C_7
REMARK    4  A    between atoms: C_7  and  C_9
REMARK    5  A    between atoms: C_9  and  O_10
REMARK    6  A    between atoms: O_10  and  C_11
REMARK                            x       y       z     vdW  Elec       q    Type
REMARK                         _______ _______ _______ _____ _____    ______ ____
ROOT
ATOM      1  C   UNL     1     -11.596  11.625  69.334  0.00  0.00    +0.136 A 
ATOM      2  C   UNL     1     -11.751  10.543  70.192  0.00  0.00    +0.028 A 
ATOM      3  C   UNL     1     -12.556  10.601  71.428  0.00  0.00    +0.040 C 
ATOM      4  C   UNL     1     -13.397   9.335  71.552  0.00  0.00    +0.092 C 
ATOM      5  C   UNL     1     -12.519   8.128  71.467  0.00  0.00    +0.246 C 
ATOM      6  N   UNL     1     -11.415   8.184  70.564  0.00  0.00    -0.179 NA
ATOM      7  O   UNL     1     -13.065   7.029  71.716  0.00  0.00    -0.273 OA
ATOM      8  C   UNL     1     -11.126   9.363  69.804  0.00  0.00    +0.072 A 
ATOM      9  C   UNL     1     -10.499   9.263  68.569  0.00  0.00    +0.016 A 
ATOM     10  C   UNL     1     -10.695  10.269  67.633  0.00  0.00    +0.004 A 
ATOM     11  C   UNL     1     -11.444  11.389  67.973  0.00  0.00    +0.037 A 
ENDROOT
BRANCH   1  12
ATOM     12  O   UNL     1     -11.780  12.891  69.860  0.00  0.00    -0.473 OA
BRANCH  12  13
ATOM     13  C   UNL     1     -12.124  13.993  69.060  0.00  0.00    +0.239 C 
BRANCH  13  14
ATOM     14  C   UNL     1     -11.069  15.155  69.572  0.00  0.00    +0.213 C 
ATOM     15  O   UNL     1     -12.078  16.264  69.314  0.00  0.00    -0.218 OA
BRANCH  14  16
ATOM     16  C   UNL     1     -11.544  14.973  71.143  0.00  0.00    +0.125 C 
BRANCH  16  17
ATOM     17  N   UNL     1     -12.761  15.710  71.271  0.00  0.00    -0.218 NA
BRANCH  17  19
ATOM     18  C   UNL     1     -13.781  15.603  72.365  0.00  0.00    +0.017 C 
ATOM     19  C   UNL     1     -13.493  15.269  72.398  0.00  0.00    +0.060 C 
ATOM     20  C   UNL     1     -14.121  13.902  72.244  0.00  0.00    +0.017 C 
ATOM     21  C   UNL     1     -12.748  15.329  73.705  0.00  0.00    +0.017 C 
ENDBRANCH  17  19
ENDBRANCH  16  17
ENDBRANCH  14  16
ENDBRANCH  13  14
ENDBRANCH  12  13
ENDBRANCH   1  12
TORSDOF 6
ENDMDL
MODEL 2
REMARK VINA RESULT:      -6.2      3.130      5.370
REMARK  Name = 
REMARK  6 active torsions:
REMARK  status: ('A' for Active; 'I' for Inactive)
REMARK    1  A    between atoms: C_2  and  N_5
REMARK    2  A    between atoms: N_5  and  C_6
REMARK    3  A    between atoms: C_6  and  C_7
REMARK    4  A    between atoms: C_7  and  C_9
REMARK    5  A    between atoms: C_9  and  O_10
REMARK    6  A    between atoms: O_10  and  C_11
REMARK                            x       y       z     vdW  Elec       q    Type
REMARK                         _______ _______ _______ _____ _____    ______ ____
ROOT
ATOM      1  C   UNL     1     -12.061  15.063  70.552  0.00  0.00    +0.136 A 
ATOM      2  C   UNL     1     -12.473  13.740  70.658  0.00  0.00    +0.028 A 
ATOM      3  C   UNL     1     -12.194  12.722  69.625  0.00  0.00    +0.040 C 
ATOM      4  C   UNL     1     -11.753  11.424  70.291  0.00  0.00    +0.092 C 
ATOM      5  C   UNL     1     -12.773  10.992  71.297  0.00  0.00    +0.246 C 
ATOM      6  N   UNL     1     -13.420  12.016  72.052  0.00  0.00    -0.179 NA
ATOM      7  O   UNL     1     -12.609   9.857  71.798  0.00  0.00    -0.273 OA
ATOM      8  C   UNL     1     -13.145  13.403  71.827  0.00  0.00    +0.072 A 
ATOM      9  C   UNL     1     -13.272  14.318  72.863  0.00  0.00    +0.016 A 
ATOM     10  C   UNL     1     -12.531  15.491  72.819  0.00  0.00    +0.004 A 
ATOM     11  C   UNL     1     -11.741  15.764  71.708  0.00  0.00    +0.037 A 
ENDROOT
BRANCH   1  12
ATOM     12  O   UNL     1     -11.819  15.558  69.283  0.00  0.00    -0.473 OA
BRANCH  12  13
ATOM     13  C   UNL     1     -10.883  16.578  69.042  0.00  0.00    +0.239 C 
BRANCH  13  14
ATOM     14  C   UNL     1     -10.007  15.973  67.780  0.00  0.00    +0.213 C 
ATOM     15  O   UNL     1     -11.227  15.279  67.192  0.00  0.00    -0.218 OA
BRANCH  14  16
ATOM     16  C   UNL     1     -10.249  17.340  66.885  0.00  0.00    +0.125 C 
BRANCH  16  17
ATOM     17  N   UNL     1     -10.538  18.375  67.824  0.00  0.00    -0.218 NA
BRANCH  17  19
ATOM     18  C   UNL     1     -10.413  19.850  67.585  0.00  0.00    +0.017 C 
ATOM     19  C   UNL     1     -10.138  19.633  67.316  0.00  0.00    +0.060 C 
ATOM     20  C   UNL     1      -8.679  19.964  67.535  0.00  0.00    +0.017 C 
ATOM     21  C   UNL     1     -10.491  19.880  65.873  0.00  0.00    +0.017 C 
ENDBRANCH  17  19
ENDBRANCH  16  17
ENDBRANCH  14  16
ENDBRANCH  13  14
ENDBRANCH  12  13
ENDBRANCH   1  12
TORSDOF 6
ENDMDL
MODEL 3
REMARK VINA RESULT:      -6.1      3.029      5.503
REMARK  Name = 
REMARK  6 active torsions:
REMARK  status: ('A' for Active; 'I' for Inactive)
REMARK    1  A    between atoms: C_2  and  N_5
REMARK    2  A    between atoms: N_5  and  C_6
REMARK    3  A    between atoms: C_6  and  C_7
REMARK    4  A    between atoms: C_7  and  C_9
REMARK    5  A    between atoms: C_9  and  O_10
REMARK    6  A    between atoms: O_10  and  C_11
REMARK                            x       y       z     vdW  Elec       q    Type
REMARK                         _______ _______ _______ _____ _____    ______ ____
ROOT
ATOM      1  C   UNL     1     -11.516  14.734  69.351  0.00  0.00    +0.136 A 
ATOM      2  C   UNL     1     -12.035  13.517  69.777  0.00  0.00    +0.028 A 
ATOM      3  C   UNL     1     -11.958  12.281  68.972  0.00  0.00    +0.040 C 
ATOM      4  C   UNL     1     -11.571  11.109  69.868  0.00  0.00    +0.092 C 
ATOM      5  C   UNL     1     -12.518  11.014  71.022  0.00  0.00    +0.246 C 
ATOM      6  N   UNL     1     -12.989  12.239  71.585  0.00  0.00    -0.179 NA
ATOM      7  O   UNL     1     -12.408   9.998  71.745  0.00  0.00    -0.273 OA
ATOM      8  C   UNL     1     -12.612  13.509  71.041  0.00  0.00    +0.072 A 
ATOM      9  C   UNL     1     -12.548  14.628  71.859  0.00  0.00    +0.016 A 
ATOM     10  C   UNL     1     -11.711  15.676  71.500  0.00  0.00    +0.004 A 
ATOM     11  C   UNL     1     -11.017  15.621  70.297  0.00  0.00    +0.037 A 
ENDROOT
BRANCH   1  12
ATOM     12  O   UNL     1     -11.362  14.923  67.989  0.00  0.00    -0.473 OA
BRANCH  12  13
ATOM     13  C   UNL     1     -10.119  15.233  67.412  0.00  0.00    +0.239 C 
BRANCH  13  14
ATOM     14  C   UNL     1     -10.550  15.946  65.987  0.00  0.00    +0.213 C 
ATOM     15  O   UNL     1      -9.108  16.319  65.673  0.00  0.00    -0.218 OA
BRANCH  14  16
ATOM     16  C   UNL     1     -10.445  14.513  65.173  0.00  0.00    +0.125 C 
BRANCH  16  17
ATOM     17  N   UNL     1     -11.768  14.224  64.721  0.00  0.00    -0.218 NA
BRANCH  17  19
ATOM     18  C   UNL     1     -12.379  12.899  65.067  0.00  0.00    +0.017 C 
ATOM     19  C   UNL     1     -12.030  12.836  64.804  0.00  0.00    +0.060 C 
ATOM     20  C   UNL     1     -12.369  12.180  63.483  0.00  0.00    +0.017 C 
ATOM     21  C   UNL     1     -10.967  12.027  65.500  0.00  0.00    +0.017 C 
ENDBRANCH  17  19
ENDBRANCH  16  17
ENDBRANCH  14  16
ENDBRANCH  13  14
ENDBRANCH  12  13
ENDBRANCH   1  12
TORSDOF 6
ENDMDL
MODEL 4
REMARK VINA RESULT:      -6.1      2.685      5.409
REMARK  Name = 
REMARK  6 active torsions:
REMARK  status: ('A' for Active; 'I' for Inactive)
REMARK    1  A    between atoms: C_2  and  N_5
REMARK    2  A    between atoms: N_5  and  C_6
REMARK    3  A    between atoms: C_6  and  C_7
REMARK    4  A    between atoms: C_7  and  C_9
REMARK    5  A    between atoms: C_9  and  O_10
REMARK    6  A    between atoms: O_10  and  C_11
REMARK                            x       y       z     vdW  Elec       q    Type
REMARK                         _______ _______ _______ _____ _____    ______ ____
ROOT
ATOM      1  C   UNL     1     -12.068  15.552  70.663  0.00  0.00    +0.136 A 
ATOM      2  C   UNL     1     -12.387  14.203  70.567  0.00  0.00    +0.028 A 
ATOM      3  C   UNL     1     -12.003  13.362  69.415  0.00  0.00    +0.040 C 
ATOM      4  C   UNL     1     -11.491  12.015  69.911  0.00  0.00    +0.092 C 
ATOM      5  C   UNL     1     -12.508  11.378  70.803  0.00  0.00    +0.246 C 
ATOM      6  N   UNL     1     -13.252  12.238  71.666  0.00  0.00    -0.179 NA
ATOM      7  O   UNL     1     -12.279  10.196  71.148  0.00  0.00    -0.273 OA
ATOM      8  C   UNL     1     -13.070  13.659  71.648  0.00  0.00    +0.072 A 
ATOM      9  C   UNL     1     -13.296  14.407  72.796  0.00  0.00    +0.016 A 
ATOM     10  C   UNL     1     -12.640  15.621  72.946  0.00  0.00    +0.004 A 
ATOM     11  C   UNL     1     -11.837  16.101  71.918  0.00  0.00    +0.037 A 
ENDROOT
BRANCH   1  12
ATOM     12  O   UNL     1     -11.823  16.237  69.487  0.00  0.00    -0.473 OA
BRANCH  12  13
ATOM     13  C   UNL     1     -10.576  16.820  69.205  0.00  0.00    +0.239 C 
BRANCH  13  14
ATOM     14  C   UNL     1     -10.735  17.267  67.624  0.00  0.00    +0.213 C 
ATOM     15  O   UNL     1      -9.319  17.821  67.580  0.00  0.00    -0.218 OA
BRANCH  14  16
ATOM     16  C   UNL     1     -10.259  15.777  67.096  0.00  0.00    +0.125 C 
BRANCH  16  17
ATOM     17  N   UNL     1     -10.732  15.670  65.753  0.00  0.00    -0.218 NA
BRANCH  17  19
ATOM     18  C   UNL     1     -10.913  14.387  64.998  0.00  0.00    +0.017 C 
ATOM     19  C   UNL     1     -11.000  14.320  65.426  0.00  0.00    +0.060 C 
ATOM     20  C   UNL     1     -10.080  13.318  66.089  0.00  0.00    +0.017 C 
ATOM     21  C   UNL     1     -12.429  13.887  65.624  0.00  0.00    +0.017 C 
ENDBRANCH  17  19
ENDBRANCH  16  17
ENDBRANCH  14  16
ENDBRANCH  13  14
ENDBRANCH  12  13
ENDBRANCH   1  12
TORSDOF 6
ENDMDL
MODEL 5
REMARK VINA RESULT:      -6.1      3.697      5.724
REMARK  Name = 
REMARK  6 active torsions:
REMARK  status: ('A' for Active; 'I' for Inactive)
REMARK    1  A    between atoms: C_2  and  N_5
REMARK    2  A    between atoms: N_5  and  C_6
REMARK    3  A    between atoms: C_6  and  C_7
REMARK    4  A    between atoms: C_7  and  C_9
REMARK    5  A    between atoms: C_9  and  O_10
REMARK    6  A    between atoms: O_10  and  C_11
REMARK                            x       y       z     vdW  Elec       q    Type
REMARK                         _______ _______ _______ _____ _____    ______ ____
ROOT
ATOM      1  C   UNL     1     -11.530  14.648  67.975  0.00  0.00    +0.136 A 
ATOM      2  C   UNL     1     -11.899  14.475  69.304  0.00  0.00    +0.028 A 
ATOM      3  C   UNL     1     -12.267  15.596  70.192  0.00  0.00    +0.040 C 
ATOM      4  C   UNL     1     -13.496  15.219  71.011  0.00  0.00    +0.092 C 
ATOM      5  C   UNL     1     -13.251  13.935  71.739  0.00  0.00    +0.246 C 
ATOM      6  N   UNL     1     -12.491  12.935  71.062  0.00  0.00    -0.179 NA
ATOM      7  O   UNL     1     -14.122  13.598  72.573  0.00  0.00    -0.273 OA
ATOM      8  C   UNL     1     -11.940  13.163  69.760  0.00  0.00    +0.072 A 
ATOM      9  C   UNL     1     -11.745  12.101  68.887  0.00  0.00    +0.016 A 
ATOM     10  C   UNL     1     -11.734  12.347  67.521  0.00  0.00    +0.004 A 
ATOM     11  C   UNL     1     -11.839  13.652  67.056  0.00  0.00    +0.037 A 
ENDROOT
BRANCH   1  12
ATOM     12  O   UNL     1     -11.033  15.884  67.604  0.00  0.00    -0.473 OA
BRANCH  12  13
ATOM     13  C   UNL     1      -9.678  16.221  67.751  0.00  0.00    +0.239 C 
BRANCH  13  14
ATOM     14  C   UNL     1      -9.093  16.042  66.217  0.00  0.00    +0.213 C 
ATOM     15  O   UNL     1     -10.232  16.860  65.627  0.00  0.00    -0.218 OA
BRANCH  14  16
ATOM     16  C   UNL     1      -8.114  17.363  66.376  0.00  0.00    +0.125 C 
BRANCH  16  17
ATOM     17  N   UNL     1      -8.911  18.486  65.998  0.00  0.00    -0.218 NA
BRANCH  17  19
ATOM     18  C   UNL     1      -8.530  19.840  66.520  0.00  0.00    +0.017 C 
ATOM     19  C   UNL     1      -8.660  19.584  66.855  0.00  0.00    +0.060 C 
ATOM     20  C   UNL     1      -9.880  20.102  67.585  0.00  0.00    +0.017 C 
ATOM     21  C   UNL     1      -7.541  19.380  67.842  0.00  0.00    +0.017 C 
ENDBRANCH  17  19
ENDBRANCH  16  17
ENDBRANCH  14  16
ENDBRANCH  13  14
ENDBRANCH  12  13
ENDBRANCH   1  12
TORSDOF 6
ENDMDL
MODEL 6
REMARK VINA RESULT:      -6.0      3.616      4.488
REMARK  Name = 
REMARK  6 active torsions:
REMARK  status: ('A' for Active; 'I' for Inactive)
REMARK    1  A    between atoms: C_2  and  N_5
REMARK    2  A    between atoms: N_5  and  C_6
REMARK    3  A    between atoms: C_6  and  C_7
REMARK    4  A    between atoms: C_7  and  C_9
REMARK    5  A    between atoms: C_9  and  O_10
REMARK    6  A    between atoms: O_10  and  C_11
REMARK                            x       y       z     vdW  Elec       q    Type
REMARK                         _______ _______ _______ _____ _____    ______ ____
ROOT
ATOM      1  C   UNL     1      -9.704  14.029  67.428  0.00  0.00    +0.136 A 
ATOM      2  C   UNL     1     -10.741  13.516  66.657  0.00  0.00    +0.028 A 
ATOM      3  C   UNL     1     -11.901  14.322  66.226  0.00  0.00    +0.040 C 
ATOM      4  C   UNL     1     -12.217  14.025  64.764  0.00  0.00    +0.092 C 
ATOM      5  C   UNL     1     -12.406  12.553  64.572  0.00  0.00    +0.246 C 
ATOM      6  N   UNL     1     -11.567  11.681  65.329  0.00  0.00    -0.179 NA
ATOM      7  O   UNL     1     -12.829  12.193  63.449  0.00  0.00    -0.273 OA
ATOM      8  C   UNL     1     -10.615  12.187  66.272  0.00  0.00    +0.072 A 
ATOM      9  C   UNL     1      -9.455  11.475  66.545  0.00  0.00    +0.016 A 
ATOM     10  C   UNL     1      -8.337  12.160  67.002  0.00  0.00    +0.004 A 
ATOM     11  C   UNL     1      -8.422  13.524  67.252  0.00  0.00    +0.037 A 
ENDROOT
BRANCH   1  12
ATOM     12  O   UNL     1      -9.974  15.141  68.205  0.00  0.00    -0.473 OA
BRANCH  12  13
ATOM     13  C   UNL     1     -10.336  15.040  69.558  0.00  0.00    +0.239 C 
BRANCH  13  14
ATOM     14  C   UNL     1     -10.954  16.537  69.880  0.00  0.00    +0.213 C 
ATOM     15  O   UNL     1     -12.200  16.262  69.051  0.00  0.00    -0.218 OA
BRANCH  14  16
ATOM     16  C   UNL     1     -11.662  16.006  71.274  0.00  0.00    +0.125 C 
BRANCH  16  17
ATOM     17  N   UNL     1     -12.912  15.436  70.885  0.00  0.00    -0.218 NA
BRANCH  17  19
ATOM     18  C   UNL     1     -14.047  15.297  71.855  0.00  0.00    +0.017 C 
ATOM     19  C   UNL     1     -13.685  15.107  72.023  0.00  0.00    +0.060 C 
ATOM     20  C   UNL     1     -13.833  13.623  72.274  0.00  0.00    +0.017 C 
ATOM     21  C   UNL     1     -13.262  15.785  73.299  0.00  0.00    +0.017 C 
ENDBRANCH  17  19
ENDBRANCH  16  17
ENDBRANCH  14  16
ENDBRANCH  13  14
ENDBRANCH  12  13
ENDBRANCH   1  12
TORSDOF 6
ENDMDL
MODEL 7
REMARK VINA RESULT:      -6.0      3.730      6.801
REMARK  Name = 
REMARK  6 active torsions:
REMARK  status: ('A' for Active; 'I' for Inactive)
REMARK    1  A    between atoms: C_2  and  N_5
REMARK    2  A    between atoms: N_5  and  C_6
REMARK    3  A    between atoms: C_6  and  C_7
REMARK    4  A    between atoms: C_7  and  C_9
REMARK    5  A    between atoms: C_9  and  O_10
REMARK    6  A    between atoms: O_10  and  C_11
REMARK                            x       y       z     vdW  Elec       q    Type
REMARK                         _______ _______ _______ _____ _____    ______ ____
ROOT
ATOM      1  C   UNL     1     -10.492  11.873  65.522  0.00  0.00    +0.136 A 
ATOM      2  C   UNL     1     -10.979  13.171  65.417  0.00  0.00    +0.028 A 
ATOM      3  C   UNL     1     -10.568  14.262  66.323  0.00  0.00    +0.040 C 
ATOM      4  C   UNL     1     -10.313  15.530  65.516  0.00  0.00    +0.092 C 
ATOM      5  C   UNL     1     -11.516  15.859  64.689  0.00  0.00    +0.246 C 
ATOM      6  N   UNL     1     -12.239  14.767  64.122  0.00  0.00    -0.179 NA
ATOM      7  O   UNL     1     -11.497  16.965  64.102  0.00  0.00    -0.273 OA
ATOM      8  C   UNL     1     -11.863  13.408  64.372  0.00  0.00    +0.072 A 
ATOM      9  C   UNL     1     -12.130  12.424  63.430  0.00  0.00    +0.016 A 
ATOM     10  C   UNL     1     -11.339  11.283  63.406  0.00  0.00    +0.004 A 
ATOM     11  C   UNL     1     -10.352  11.111  64.369  0.00  0.00    +0.037 A 
ENDROOT
BRANCH   1  12
ATOM     12  O   UNL     1     -10.006  11.469  66.753  0.00  0.00    -0.473 OA
BRANCH  12  13
ATOM     13  C   UNL     1     -10.596  10.427  67.486  0.00  0.00    +0.239 C 
BRANCH  13  14
ATOM     14  C   UNL     1     -10.816  11.110  68.973  0.00  0.00    +0.213 C 
ATOM     15  O   UNL     1     -12.315  11.248  68.750  0.00  0.00    -0.218 OA
BRANCH  14  16
ATOM     16  C   UNL     1     -10.973   9.631  69.691  0.00  0.00    +0.125 C 
BRANCH  16  17
ATOM     17  N   UNL     1     -11.353   9.893  71.043  0.00  0.00    -0.218 NA
BRANCH  17  19
ATOM     18  C   UNL     1     -12.009   8.556  71.219  0.00  0.00    +0.017 C 
ATOM     19  C   UNL     1     -11.985   8.762  71.609  0.00  0.00    +0.060 C 
ATOM     20  C   UNL     1     -11.155   8.027  72.639  0.00  0.00    +0.017 C 
ATOM     21  C   UNL     1     -13.360   9.013  72.169  0.00  0.00    +0.017 C 
ENDBRANCH  17  19
ENDBRANCH  16  17
ENDBRANCH  14  16
ENDBRANCH  13  14
ENDBRANCH  12  13
ENDBRANCH   1  12
TORSDOF 6
ENDMDL
MODEL 8
REMARK VINA RESULT:      -5.9      2.773      3.613
REMARK  Name = 
REMARK  6 active torsions:
REMARK  status: ('A' for Active; 'I' for Inactive)
REMARK    1  A    between atoms: C_2  and  N_5
REMARK    2  A    between atoms: N_5  and  C_6
REMARK    3  A    between atoms: C_6  and  C_7
REMARK    4  A    between atoms: C_7  and  C_9
REMARK    5  A    between atoms: C_9  and  O_10
REMARK    6  A    between atoms: O_10  and  C_11
REMARK                            x       y       z     vdW  Elec       q    Type
REMARK                         _______ _______ _______ _____ _____    ______ ____
ROOT
ATOM      1  C   UNL     1     -11.399  13.350  66.455  0.00  0.00    +0.136 A 
ATOM      2  C   UNL     1     -10.781  12.106  66.470  0.00  0.00    +0.028 A 
ATOM      3  C   UNL     1     -10.276  11.469  67.703  0.00  0.00    +0.040 C 
ATOM      4  C   UNL     1     -10.653   9.991  67.708  0.00  0.00    +0.092 C 
ATOM      5  C   UNL     1     -10.168   9.335  66.454  0.00  0.00    +0.246 C 
ATOM      6  N   UNL     1     -10.230  10.100  65.250  0.00  0.00    -0.179 NA
ATOM      7  O   UNL     1     -10.272   8.089  66.407  0.00  0.00    -0.273 OA
ATOM      8  C   UNL     1     -10.691  11.456  65.244  0.00  0.00    +0.072 A 
ATOM      9  C   UNL     1     -11.301  11.982  64.114  0.00  0.00    +0.016 A 
ATOM     10  C   UNL     1     -12.190  13.039  64.260  0.00  0.00    +0.004 A 
ATOM     11  C   UNL     1     -12.391  13.599  65.515  0.00  0.00    +0.037 A 
ENDROOT
BRANCH   1  12
ATOM     12  O   UNL     1     -11.116  14.217  67.496  0.00  0.00    -0.473 OA
BRANCH  12  13
ATOM     13  C   UNL     1     -12.030  14.469  68.532  0.00  0.00    +0.239 C 
BRANCH  13  14
ATOM     14  C   UNL     1     -11.171  15.451  69.543  0.00  0.00    +0.213 C 
ATOM     15  O   UNL     1     -11.473  16.679  68.697  0.00  0.00    -0.218 OA
BRANCH  14  16
ATOM     16  C   UNL     1     -12.484  15.693  70.515  0.00  0.00    +0.125 C 
BRANCH  16  17
ATOM     17  N   UNL     1     -11.968  15.838  71.838  0.00  0.00    -0.218 NA
BRANCH  17  19
ATOM     18  C   UNL     1     -13.211  15.706  72.666  0.00  0.00    +0.017 C 
ATOM     19  C   UNL     1     -12.916  15.402  72.793  0.00  0.00    +0.060 C 
ATOM     20  C   UNL     1     -13.388  13.977  72.605  0.00  0.00    +0.017 C 
ATOM     21  C   UNL     1     -12.515  15.606  74.230  0.00  0.00    +0.017 C 
ENDBRANCH  17  19
ENDBRANCH  16  17
ENDBRANCH  14  16
ENDBRANCH  13  14
ENDBRANCH  12  13
ENDBRANCH   1  12
TORSDOF 6
ENDMDL
MODEL 9
REMARK VINA RESULT:      -5.9      2.861      5.574
REMARK  Name = 
REMARK  6 active torsions:
REMARK  status: ('A' for Active; 'I' for Inactive)
REMARK    1  A    between atoms: C_2  and  N_5
REMARK    2  A    between atoms: N_5  and  C_6
REMARK    3  A    between atoms: C_6  and  C_7
REMARK    4  A    between atoms: C_7  and  C_9
REMARK    5  A    between atoms: C_9  and  O_10
REMARK    6  A    between atoms: O_10  and  C_11
REMARK                            x       y       z     vdW  Elec       q    Type
REMARK                         _______ _______ _______ _____ _____    ______ ____
ROOT
ATOM      1  C   UNL     1     -11.420  12.121  66.810  0.00  0.00    +0.136 A 
ATOM      2  C   UNL     1     -11.344  13.477  66.517  0.00  0.00    +0.028 A 
ATOM      3  C   UNL     1     -11.460  14.533  67.543  0.00  0.00    +0.040 C 
ATOM      4  C   UNL     1     -10.405  15.606  67.296  0.00  0.00    +0.092 C 
ATOM      5  C   UNL     1     -10.514  16.118  65.895  0.00  0.00    +0.246 C 
ATOM      6  N   UNL     1     -10.846  15.174  64.878  0.00  0.00    -0.179 NA
ATOM      7  O   UNL     1      -9.810  17.115  65.615  0.00  0.00    -0.273 OA
ATOM      8  C   UNL     1     -11.113  13.801  65.185  0.00  0.00    +0.072 A 
ATOM      9  C   UNL     1     -10.850  12.811  64.248  0.00  0.00    +0.016 A 
ATOM     10  C   UNL     1     -10.596  11.519  64.689  0.00  0.00    +0.004 A 
ATOM     11  C   UNL     1     -10.686  11.224  66.044  0.00  0.00    +0.037 A 
ENDROOT
BRANCH   1  12
ATOM     12  O   UNL     1     -12.084  11.752  67.966  0.00  0.00    -0.473 OA
BRANCH  12  13
ATOM     13  C   UNL     1     -11.456  11.029  68.993  0.00  0.00    +0.239 C 
BRANCH  13  14
ATOM     14  C   UNL     1     -12.646  10.908  70.131  0.00  0.00    +0.213 C 
ATOM     15  O   UNL     1     -11.692  10.297  71.146  0.00  0.00    -0.218 OA
BRANCH  14  16
ATOM     16  C   UNL     1     -12.367  12.445  70.668  0.00  0.00    +0.125 C 
BRANCH  16  17
ATOM     17  N   UNL     1     -13.147  12.591  71.854  0.00  0.00    -0.218 NA
BRANCH  17  19
ATOM     18  C   UNL     1     -13.929  13.848  72.101  0.00  0.00    +0.017 C 
ATOM     19  C   UNL     1     -13.501  13.947  72.052  0.00  0.00    +0.060 C 
ATOM     20  C   UNL     1     -12.878  14.587  73.273  0.00  0.00    +0.017 C 
ATOM     21  C   UNL     1     -13.287  14.842  70.860  0.00  0.00    +0.017 C 
ENDBRANCH  17  19
ENDBRANCH  16  17
ENDBRANCH  14  16
ENDBRANCH  13  14
ENDBRANCH  12  13
ENDBRANCH   1  12
TORSDOF 6
ENDMDL
