MODEL 1
REMARK VINA RESULT:      -6.8      0.000      0.000
REMARK  Name = 
REMARK  6 active torsions:
REMARK  status: ('A' for Active; 'I' for Inactive)
REMARK    1  A    between atoms: C_5  and  C_6
REMARK    2  A    between atoms: C_6  and  O_7
REMARK    3  A    between atoms: O_7  and  C_8
REMARK    4  A    between atoms: C_8  and  C_9
REMARK    5  A    between atoms: C_8  and  C_15
REMARK    6  A    between atoms: C_9  and  N_10
REMARK                            x       y       z     vdW  Elec       q    Type
REMARK                         _______ _______ _______ _____ _____    ______ ____
ROOT
ATOM      1  C   UNL     1     -11.328  13.564  66.387  0.00  0.00    +0.161 C 
ENDROOT
BRANCH   1   2
ATOM      2  C   UNL     1     -11.175  12.118  65.675  0.00  0.00    +0.017 A 
ATOM      3  C   UNL     1     -11.029  12.261  64.316  0.00  0.00    +0.057 A 
ATOM      4 CL   UNL     1     -12.193  13.239  63.462  0.00  0.00    -0.082 Cl
ATOM      5  C   UNL     1     -10.299  11.297  63.644  0.00  0.00    +0.023 A 
ATOM      6  C   UNL     1      -9.808  10.210  64.356  0.00  0.00    +0.058 A 
ATOM      7 CL   UNL     1      -8.440   9.291  63.727  0.00  0.00    -0.082 Cl
ATOM      8  C   UNL     1     -10.193   9.983  65.674  0.00  0.00    +0.011 A 
ATOM      9  C   UNL     1     -10.603  11.117  66.367  0.00  0.00    -0.000 A 
ENDBRANCH   1   2
BRANCH   1  10
ATOM     10  O   UNL     1     -11.410  12.945  67.780  0.00  0.00    -0.345 OA
BRANCH  10  11
ATOM     11  C   UNL     1     -11.905  14.010  68.429  0.00  0.00    +0.170 C 
BRANCH  11  17
ATOM     12 CL   UNL     1     -13.052  15.883  73.758  0.00  0.00    -0.082 Cl
ATOM     13  C   UNL     1     -12.629  15.292  72.302  0.00  0.00    +0.058 A 
ATOM     14  C   UNL     1     -11.815  15.990  71.431  0.00  0.00    +0.023 A 
ATOM     15  C   UNL     1     -11.316  15.340  70.312  0.00  0.00    +0.057 A 
ATOM     16 CL   UNL     1     -10.376  16.341  69.206  0.00  0.00    -0.082 Cl
ATOM     17  C   UNL     1     -11.833  14.124  69.864  0.00  0.00    +0.018 A 
ATOM     18  C   UNL     1     -12.451  13.369  70.825  0.00  0.00    -0.000 A 
ATOM     19  C   UNL     1     -12.858  13.949  72.023  0.00  0.00    +0.011 A 
ENDBRANCH  11  17
ENDBRANCH  10  11
ENDBRANCH   1  10
BRANCH   1  20
ATOM     20  C   UNL     1      -9.696  13.789  66.508  0.00  0.00    +0.142 C 
BRANCH  20  21
ATOM     21  N   UNL     1      -9.579  15.148  66.062  0.00  0.00    -0.305 N 
ATOM     22  C   UNL     1     -10.425  15.919  65.379  0.00  0.00    +0.179 A 
ATOM     23  N   UNL     1     -10.094  17.204  65.650  0.00  0.00    -0.222 NA
ATOM     24  C   UNL     1      -8.842  17.213  66.117  0.00  0.00    +0.119 A 
ATOM     25  C   UNL     1      -8.477  15.889  66.258  0.00  0.00    +0.098 A 
ENDBRANCH  20  21
ENDBRANCH   1  20
TORSDOF 6
ENDMDL
MODEL 2
REMARK VINA RESULT:      -6.7      3.000      5.289
REMARK  Name = 
REMARK  6 active torsions:
REMARK  status: ('A' for Active; 'I' for Inactive)
REMARK    1  A    between atoms: C_5  and  C_6
REMARK    2  A    between atoms: C_6  and  O_7
REMARK    3  A    between atoms: O_7  and  C_8
REMARK    4  A    between atoms: C_8  and  C_9
REMARK    5  A    between atoms: C_8  and  C_15
REMARK    6  A    between atoms: C_9  and  N_10
REMARK                            x       y       z     vdW  Elec       q    Type
REMARK                         _______ _______ _______ _____ _____    ______ ____
ROOT
ATOM      1  C   UNL     1     -11.640  12.913  67.835  0.00  0.00    +0.161 C 
ENDROOT
BRANCH   1   2
ATOM      2  C   UNL     1     -11.283  12.020  69.137  0.00  0.00    +0.017 A 
ATOM      3  C   UNL     1     -12.201  12.235  70.138  0.00  0.00    +0.057 A 
ATOM      4 CL   UNL     1     -12.538  13.881  70.604  0.00  0.00    -0.082 Cl
ATOM      5  C   UNL     1     -12.448  11.195  71.016  0.00  0.00    +0.023 A 
ATOM      6  C   UNL     1     -11.722  10.020  70.885  0.00  0.00    +0.058 A 
ATOM      7 CL   UNL     1     -12.355   8.514  71.551  0.00  0.00    -0.082 Cl
ATOM      8  C   UNL     1     -10.635   9.941  70.019  0.00  0.00    +0.011 A 
ATOM      9  C   UNL     1     -10.667  10.839  68.957  0.00  0.00    -0.000 A 
ENDBRANCH   1   2
BRANCH   1  10
ATOM     10  O   UNL     1     -10.423  13.813  68.035  0.00  0.00    -0.345 OA
BRANCH  10  11
ATOM     11  C   UNL     1     -11.010  14.987  67.756  0.00  0.00    +0.170 C 
BRANCH  11  17
ATOM     12 CL   UNL     1      -9.931  20.631  67.305  0.00  0.00    -0.082 Cl
ATOM     13  C   UNL     1     -10.110  19.018  67.430  0.00  0.00    +0.058 A 
ATOM     14  C   UNL     1     -10.295  18.209  66.326  0.00  0.00    +0.023 A 
ATOM     15  C   UNL     1     -10.218  16.833  66.481  0.00  0.00    +0.057 A 
ATOM     16 CL   UNL     1     -10.572  15.882  65.039  0.00  0.00    -0.082 Cl
ATOM     17  C   UNL     1     -10.266  16.221  67.734  0.00  0.00    +0.018 A 
ATOM     18  C   UNL     1      -9.868  17.010  68.780  0.00  0.00    -0.000 A 
ATOM     19  C   UNL     1      -9.806  18.393  68.634  0.00  0.00    +0.011 A 
ENDBRANCH  11  17
ENDBRANCH  10  11
ENDBRANCH   1  10
BRANCH   1  20
ATOM     20  C   UNL     1     -10.821  11.917  66.802  0.00  0.00    +0.142 C 
BRANCH  20  21
ATOM     21  N   UNL     1     -11.510  12.181  65.572  0.00  0.00    -0.305 N 
ATOM     22  C   UNL     1     -12.607  12.898  65.320  0.00  0.00    +0.179 A 
ATOM     23  N   UNL     1     -12.554  13.255  64.015  0.00  0.00    -0.222 NA
ATOM     24  C   UNL     1     -11.700  12.431  63.401  0.00  0.00    +0.119 A 
ATOM     25  C   UNL     1     -11.130  11.661  64.395  0.00  0.00    +0.098 A 
ENDBRANCH  20  21
ENDBRANCH   1  20
TORSDOF 6
ENDMDL
MODEL 3
REMARK VINA RESULT:      -6.6      2.862      6.139
REMARK  Name = 
REMARK  6 active torsions:
REMARK  status: ('A' for Active; 'I' for Inactive)
REMARK    1  A    between atoms: C_5  and  C_6
REMARK    2  A    between atoms: C_6  and  O_7
REMARK    3  A    between atoms: O_7  and  C_8
REMARK    4  A    between atoms: C_8  and  C_9
REMARK    5  A    between atoms: C_8  and  C_15
REMARK    6  A    between atoms: C_9  and  N_10
REMARK                            x       y       z     vdW  Elec       q    Type
REMARK                         _______ _______ _______ _____ _____    ______ ____
ROOT
ATOM      1  C   UNL     1     -11.128  14.747  67.307  0.00  0.00    +0.161 C 
ENDROOT
BRANCH   1   2
ATOM      2  C   UNL     1     -11.349  14.464  68.885  0.00  0.00    +0.017 A 
ATOM      3  C   UNL     1     -11.710  15.620  69.538  0.00  0.00    +0.057 A 
ATOM      4 CL   UNL     1     -10.720  17.037  69.307  0.00  0.00    -0.082 Cl
ATOM      5  C   UNL     1     -12.508  15.499  70.661  0.00  0.00    +0.023 A 
ATOM      6  C   UNL     1     -12.851  14.230  71.107  0.00  0.00    +0.058 A 
ATOM      7 CL   UNL     1     -14.274  14.010  72.127  0.00  0.00    -0.082 Cl
ATOM      8  C   UNL     1     -12.259  13.095  70.563  0.00  0.00    +0.011 A 
ATOM      9  C   UNL     1     -11.779  13.249  69.267  0.00  0.00    -0.000 A 
ENDBRANCH   1   2
BRANCH   1  10
ATOM     10  O   UNL     1      -9.608  14.692  67.441  0.00  0.00    -0.345 OA
BRANCH  10  11
ATOM     11  C   UNL     1      -9.300  15.479  66.398  0.00  0.00    +0.170 C 
BRANCH  11  17
ATOM     12 CL   UNL     1      -6.165  19.787  68.598  0.00  0.00    -0.082 Cl
ATOM     13  C   UNL     1      -6.993  18.592  67.866  0.00  0.00    +0.058 A 
ATOM     14  C   UNL     1      -8.239  18.794  67.307  0.00  0.00    +0.023 A 
ATOM     15  C   UNL     1      -8.787  17.800  66.510  0.00  0.00    +0.057 A 
ATOM     16 CL   UNL     1     -10.423  18.104  65.928  0.00  0.00    -0.082 Cl
ATOM     17  C   UNL     1      -8.285  16.498  66.492  0.00  0.00    +0.018 A 
ATOM     18  C   UNL     1      -6.971  16.380  66.857  0.00  0.00    -0.000 A 
ATOM     19  C   UNL     1      -6.337  17.408  67.550  0.00  0.00    +0.011 A 
ENDBRANCH  11  17
ENDBRANCH  10  11
ENDBRANCH   1  10
BRANCH   1  20
ATOM     20  C   UNL     1     -11.220  13.147  66.905  0.00  0.00    +0.142 C 
BRANCH  20  21
ATOM     21  N   UNL     1     -11.857  13.229  65.621  0.00  0.00    -0.305 N 
ATOM     22  C   UNL     1     -12.585  14.200  65.067  0.00  0.00    +0.179 A 
ATOM     23  N   UNL     1     -12.516  14.028  63.726  0.00  0.00    -0.222 NA
ATOM     24  C   UNL     1     -12.136  12.767  63.495  0.00  0.00    +0.119 A 
ATOM     25  C   UNL     1     -11.837  12.227  64.730  0.00  0.00    +0.098 A 
ENDBRANCH  20  21
ENDBRANCH   1  20
TORSDOF 6
ENDMDL
MODEL 4
REMARK VINA RESULT:      -6.4      3.427      6.139
REMARK  Name = 
REMARK  6 active torsions:
REMARK  status: ('A' for Active; 'I' for Inactive)
REMARK    1  A    between atoms: C_5  and  C_6
REMARK    2  A    between atoms: C_6  and  O_7
REMARK    3  A    between atoms: O_7  and  C_8
REMARK    4  A    between atoms: C_8  and  C_9
REMARK    5  A    between atoms: C_8  and  C_15
REMARK    6  A    between atoms: C_9  and  N_10
REMARK                            x       y       z     vdW  Elec       q    Type
REMARK                         _______ _______ _______ _____ _____    ______ ____
ROOT
ATOM      1  C   UNL     1     -10.721  15.811  69.247  0.00  0.00    +0.161 C 
ENDROOT
BRANCH   1   2
ATOM      2  C   UNL     1     -10.599  14.590  68.191  0.00  0.00    +0.017 A 
ATOM      3  C   UNL     1      -9.535  13.780  68.508  0.00  0.00    +0.057 A 
ATOM      4 CL   UNL     1      -7.979  14.526  68.757  0.00  0.00    -0.082 Cl
ATOM      5  C   UNL     1      -9.623  12.443  68.165  0.00  0.00    +0.023 A 
ATOM      6  C   UNL     1     -10.740  12.001  67.468  0.00  0.00    +0.058 A 
ATOM      7 CL   UNL     1     -11.184  10.294  67.509  0.00  0.00    -0.082 Cl
ATOM      8  C   UNL     1     -11.667  12.902  66.954  0.00  0.00    +0.011 A 
ATOM      9  C   UNL     1     -11.721  14.126  67.612  0.00  0.00    -0.000 A 
ENDBRANCH   1   2
BRANCH   1  10
ATOM     10  O   UNL     1     -10.845  16.850  68.136  0.00  0.00    -0.345 OA
BRANCH  10  11
ATOM     11  C   UNL     1     -10.132  17.828  68.714  0.00  0.00    +0.170 C 
BRANCH  11  17
ATOM     12 CL   UNL     1      -5.683  21.330  67.631  0.00  0.00    -0.082 Cl
ATOM     13  C   UNL     1      -6.899  20.268  67.841  0.00  0.00    +0.058 A 
ATOM     14  C   UNL     1      -8.135  20.437  67.249  0.00  0.00    +0.023 A 
ATOM     15  C   UNL     1      -9.046  19.393  67.287  0.00  0.00    +0.057 A 
ATOM     16 CL   UNL     1     -10.632  19.739  66.599  0.00  0.00    -0.082 Cl
ATOM     17  C   UNL     1      -8.896  18.303  68.145  0.00  0.00    +0.018 A 
ATOM     18  C   UNL     1      -7.608  18.050  68.538  0.00  0.00    -0.000 A 
ATOM     19  C   UNL     1      -6.625  19.026  68.402  0.00  0.00    +0.011 A 
ENDBRANCH  11  17
ENDBRANCH  10  11
ENDBRANCH   1  10
BRANCH   1  20
ATOM     20  C   UNL     1     -12.361  15.661  69.385  0.00  0.00    +0.142 C 
BRANCH  20  21
ATOM     21  N   UNL     1     -12.506  15.603  70.811  0.00  0.00    -0.305 N 
ATOM     22  C   UNL     1     -11.622  15.807  71.789  0.00  0.00    +0.179 A 
ATOM     23  N   UNL     1     -12.328  16.137  72.896  0.00  0.00    -0.222 NA
ATOM     24  C   UNL     1     -13.586  15.724  72.717  0.00  0.00    +0.119 A 
ATOM     25  C   UNL     1     -13.656  15.267  71.416  0.00  0.00    +0.098 A 
ENDBRANCH  20  21
ENDBRANCH   1  20
TORSDOF 6
ENDMDL
MODEL 5
REMARK VINA RESULT:      -6.3      2.746      6.936
REMARK  Name = 
REMARK  6 active torsions:
REMARK  status: ('A' for Active; 'I' for Inactive)
REMARK    1  A    between atoms: C_5  and  C_6
REMARK    2  A    between atoms: C_6  and  O_7
REMARK    3  A    between atoms: O_7  and  C_8
REMARK    4  A    between atoms: C_8  and  C_9
REMARK    5  A    between atoms: C_8  and  C_15
REMARK    6  A    between atoms: C_9  and  N_10
REMARK                            x       y       z     vdW  Elec       q    Type
REMARK                         _______ _______ _______ _____ _____    ______ ____
ROOT
ATOM      1  C   UNL     1     -10.805  16.425  68.358  0.00  0.00    +0.161 C 
ENDROOT
BRANCH   1   2
ATOM      2  C   UNL     1      -9.429  17.253  68.154  0.00  0.00    +0.017 A 
ATOM      3  C   UNL     1      -9.681  18.604  68.107  0.00  0.00    +0.057 A 
ATOM      4 CL   UNL     1     -10.903  19.174  67.001  0.00  0.00    -0.082 Cl
ATOM      5  C   UNL     1      -8.686  19.457  68.550  0.00  0.00    +0.023 A 
ATOM      6  C   UNL     1      -7.474  18.919  68.960  0.00  0.00    +0.058 A 
ATOM      7 CL   UNL     1      -6.423  19.836  70.039  0.00  0.00    -0.082 Cl
ATOM      8  C   UNL     1      -7.181  17.574  68.755  0.00  0.00    +0.011 A 
ATOM      9  C   UNL     1      -8.291  16.742  68.654  0.00  0.00    -0.000 A 
ENDBRANCH   1   2
BRANCH   1  10
ATOM     10  O   UNL     1     -10.464  15.450  67.233  0.00  0.00    -0.345 OA
BRANCH  10  11
ATOM     11  C   UNL     1     -11.622  14.771  67.217  0.00  0.00    +0.170 C 
BRANCH  11  17
ATOM     12 CL   UNL     1      -9.996   9.731  64.942  0.00  0.00    -0.082 Cl
ATOM     13  C   UNL     1     -10.572  11.105  65.596  0.00  0.00    +0.058 A 
ATOM     14  C   UNL     1     -11.045  12.148  64.824  0.00  0.00    +0.023 A 
ATOM     15  C   UNL     1     -11.721  13.189  65.442  0.00  0.00    +0.057 A 
ATOM     16 CL   UNL     1     -12.192  14.523  64.391  0.00  0.00    -0.082 Cl
ATOM     17  C   UNL     1     -11.683  13.386  66.823  0.00  0.00    +0.018 A 
ATOM     18  C   UNL     1     -11.415  12.264  67.561  0.00  0.00    -0.000 A 
ATOM     19  C   UNL     1     -10.851  11.143  66.958  0.00  0.00    +0.011 A 
ENDBRANCH  11  17
ENDBRANCH  10  11
ENDBRANCH   1  10
BRANCH   1  20
ATOM     20  C   UNL     1     -10.155  15.432  69.508  0.00  0.00    +0.142 C 
BRANCH  20  21
ATOM     21  N   UNL     1     -11.249  15.341  70.433  0.00  0.00    -0.305 N 
ATOM     22  C   UNL     1     -11.754  16.238  71.281  0.00  0.00    +0.179 A 
ATOM     23  N   UNL     1     -13.032  15.867  71.531  0.00  0.00    -0.222 NA
ATOM     24  C   UNL     1     -13.155  14.577  71.204  0.00  0.00    +0.119 A 
ATOM     25  C   UNL     1     -11.960  14.217  70.615  0.00  0.00    +0.098 A 
ENDBRANCH  20  21
ENDBRANCH   1  20
TORSDOF 6
ENDMDL
MODEL 6
REMARK VINA RESULT:      -6.3      3.871      7.107
REMARK  Name = 
REMARK  6 active torsions:
REMARK  status: ('A' for Active; 'I' for Inactive)
REMARK    1  A    between atoms: C_5  and  C_6
REMARK    2  A    between atoms: C_6  and  O_7
REMARK    3  A    between atoms: O_7  and  C_8
REMARK    4  A    between atoms: C_8  and  C_9
REMARK    5  A    between atoms: C_8  and  C_15
REMARK    6  A    between atoms: C_9  and  N_10
REMARK                            x       y       z     vdW  Elec       q    Type
REMARK                         _______ _______ _______ _____ _____    ______ ____
ROOT
ATOM      1  C   UNL     1     -11.538  11.470  70.135  0.00  0.00    +0.161 C 
ENDROOT
BRANCH   1   2
ATOM      2  C   UNL     1     -11.370   9.911  70.534  0.00  0.00    +0.017 A 
ATOM      3  C   UNL     1     -10.044   9.603  70.733  0.00  0.00    +0.057 A 
ATOM      4 CL   UNL     1      -8.903  10.039  69.489  0.00  0.00    -0.082 Cl
ATOM      5  C   UNL     1      -9.748   8.593  71.631  0.00  0.00    +0.023 A 
ATOM      6  C   UNL     1     -10.793   7.904  72.233  0.00  0.00    +0.058 A 
ATOM      7 CL   UNL     1     -10.522   7.048  73.752  0.00  0.00    -0.082 Cl
ATOM      8  C   UNL     1     -12.107   8.082  71.812  0.00  0.00    +0.011 A 
ATOM      9  C   UNL     1     -12.366   9.307  71.206  0.00  0.00    -0.000 A 
ENDBRANCH   1   2
BRANCH   1  10
ATOM     10  O   UNL     1     -12.311  11.131  68.862  0.00  0.00    -0.345 OA
BRANCH  10  11
ATOM     11  C   UNL     1     -11.525  11.778  67.988  0.00  0.00    +0.170 C 
BRANCH  11  17
ATOM     12 CL   UNL     1      -9.128  11.183  62.780  0.00  0.00    -0.082 Cl
ATOM     13  C   UNL     1      -9.899  11.277  64.210  0.00  0.00    +0.058 A 
ATOM     14  C   UNL     1     -10.775  12.302  64.509  0.00  0.00    +0.023 A 
ATOM     15  C   UNL     1     -11.561  12.203  65.647  0.00  0.00    +0.057 A 
ATOM     16 CL   UNL     1     -12.569  13.606  66.002  0.00  0.00    -0.082 Cl
ATOM     17  C   UNL     1     -11.298  11.276  66.656  0.00  0.00    +0.018 A 
ATOM     18  C   UNL     1     -10.602  10.167  66.256  0.00  0.00    -0.000 A 
ATOM     19  C   UNL     1      -9.898  10.172  65.055  0.00  0.00    +0.011 A 
ENDBRANCH  11  17
ENDBRANCH  10  11
ENDBRANCH   1  10
BRANCH   1  20
ATOM     20  C   UNL     1     -12.927  11.649  71.012  0.00  0.00    +0.142 C 
BRANCH  20  21
ATOM     21  N   UNL     1     -12.876  13.051  71.312  0.00  0.00    -0.305 N 
ATOM     22  C   UNL     1     -12.199  14.044  70.734  0.00  0.00    +0.179 A 
ATOM     23  N   UNL     1     -12.856  15.192  71.026  0.00  0.00    -0.222 NA
ATOM     24  C   UNL     1     -13.635  14.958  72.087  0.00  0.00    +0.119 A 
ATOM     25  C   UNL     1     -13.540  13.604  72.338  0.00  0.00    +0.098 A 
ENDBRANCH  20  21
ENDBRANCH   1  20
TORSDOF 6
ENDMDL
MODEL 7
REMARK VINA RESULT:      -6.2      2.798      5.470
REMARK  Name = 
REMARK  6 active torsions:
REMARK  status: ('A' for Active; 'I' for Inactive)
REMARK    1  A    between atoms: C_5  and  C_6
REMARK    2  A    between atoms: C_6  and  O_7
REMARK    3  A    between atoms: O_7  and  C_8
REMARK    4  A    between atoms: C_8  and  C_9
REMARK    5  A    between atoms: C_8  and  C_15
REMARK    6  A    between atoms: C_9  and  N_10
REMARK                            x       y       z     vdW  Elec       q    Type
REMARK                         _______ _______ _______ _____ _____    ______ ____
ROOT
ATOM      1  C   UNL     1      -9.826  14.638  67.008  0.00  0.00    +0.161 C 
ENDROOT
BRANCH   1   2
ATOM      2  C   UNL     1      -9.410  16.046  67.689  0.00  0.00    +0.017 A 
ATOM      3  C   UNL     1      -8.186  16.465  67.223  0.00  0.00    +0.057 A 
ATOM      4 CL   UNL     1      -6.854  15.342  67.288  0.00  0.00    -0.082 Cl
ATOM      5  C   UNL     1      -7.950  17.827  67.175  0.00  0.00    +0.023 A 
ATOM      6  C   UNL     1      -8.925  18.694  67.651  0.00  0.00    +0.058 A 
ATOM      7 CL   UNL     1      -8.950  20.373  67.111  0.00  0.00    -0.082 Cl
ATOM      8  C   UNL     1     -10.036  18.216  68.339  0.00  0.00    +0.011 A 
ATOM      9  C   UNL     1     -10.384  16.901  68.045  0.00  0.00    -0.000 A 
ENDBRANCH   1   2
BRANCH   1  10
ATOM     10  O   UNL     1     -11.127  14.560  67.803  0.00  0.00    -0.345 OA
BRANCH  10  11
ATOM     11  C   UNL     1     -10.785  13.556  68.625  0.00  0.00    +0.170 C 
BRANCH  11  17
ATOM     12 CL   UNL     1     -13.024   9.557  72.120  0.00  0.00    -0.082 Cl
ATOM     13  C   UNL     1     -12.510  10.712  71.094  0.00  0.00    +0.058 A 
ATOM     14  C   UNL     1     -12.105  10.425  69.805  0.00  0.00    +0.023 A 
ATOM     15  C   UNL     1     -11.893  11.471  68.920  0.00  0.00    +0.057 A 
ATOM     16 CL   UNL     1     -11.277  11.014  67.333  0.00  0.00    -0.082 Cl
ATOM     17  C   UNL     1     -11.774  12.795  69.345  0.00  0.00    +0.018 A 
ATOM     18  C   UNL     1     -12.380  13.076  70.541  0.00  0.00    -0.000 A 
ATOM     19  C   UNL     1     -12.730  12.048  71.412  0.00  0.00    +0.011 A 
ENDBRANCH  11  17
ENDBRANCH  10  11
ENDBRANCH   1  10
BRANCH   1  20
ATOM     20  C   UNL     1     -10.573  15.364  65.725  0.00  0.00    +0.142 C 
BRANCH  20  21
ATOM     21  N   UNL     1     -11.182  14.229  65.092  0.00  0.00    -0.305 N 
ATOM     22  C   UNL     1     -12.464  13.887  64.957  0.00  0.00    +0.179 A 
ATOM     23  N   UNL     1     -12.541  13.057  63.890  0.00  0.00    -0.222 NA
ATOM     24  C   UNL     1     -11.316  12.571  63.662  0.00  0.00    +0.119 A 
ATOM     25  C   UNL     1     -10.473  13.240  64.527  0.00  0.00    +0.098 A 
ENDBRANCH  20  21
ENDBRANCH   1  20
TORSDOF 6
ENDMDL
MODEL 8
REMARK VINA RESULT:      -6.2      3.371      4.060
REMARK  Name = 
REMARK  6 active torsions:
REMARK  status: ('A' for Active; 'I' for Inactive)
REMARK    1  A    between atoms: C_5  and  C_6
REMARK    2  A    between atoms: C_6  and  O_7
REMARK    3  A    between atoms: O_7  and  C_8
REMARK    4  A    between atoms: C_8  and  C_9
REMARK    5  A    between atoms: C_8  and  C_15
REMARK    6  A    between atoms: C_9  and  N_10
REMARK                            x       y       z     vdW  Elec       q    Type
REMARK                         _______ _______ _______ _____ _____    ______ ____
ROOT
ATOM      1  C   UNL     1     -11.380  12.780  67.654  0.00  0.00    +0.161 C 
ENDROOT
BRANCH   1   2
ATOM      2  C   UNL     1     -11.321  11.971  66.254  0.00  0.00    +0.017 A 
ATOM      3  C   UNL     1     -11.604  12.807  65.200  0.00  0.00    +0.057 A 
ATOM      4 CL   UNL     1     -13.054  13.772  65.283  0.00  0.00    -0.082 Cl
ATOM      5  C   UNL     1     -11.028  12.514  63.976  0.00  0.00    +0.023 A 
ATOM      6  C   UNL     1     -10.251  11.370  63.857  0.00  0.00    +0.058 A 
ATOM      7 CL   UNL     1      -9.059  11.245  62.562  0.00  0.00    -0.082 Cl
ATOM      8  C   UNL     1     -10.199  10.429  64.881  0.00  0.00    +0.011 A 
ATOM      9  C   UNL     1     -10.480  10.927  66.149  0.00  0.00    -0.000 A 
ENDBRANCH   1   2
BRANCH   1  10
ATOM     10  O   UNL     1     -10.543  11.727  68.376  0.00  0.00    -0.345 OA
BRANCH  10  11
ATOM     11  C   UNL     1     -11.382  11.487  69.395  0.00  0.00    +0.170 C 
BRANCH  11  17
ATOM     12 CL   UNL     1     -12.451   6.415  71.916  0.00  0.00    -0.082 Cl
ATOM     13  C   UNL     1     -12.059   7.866  71.292  0.00  0.00    +0.058 A 
ATOM     14  C   UNL     1     -12.711   9.027  71.659  0.00  0.00    +0.023 A 
ATOM     15  C   UNL     1     -12.185  10.246  71.261  0.00  0.00    +0.057 A 
ATOM     16 CL   UNL     1     -13.142  11.665  71.686  0.00  0.00    -0.082 Cl
ATOM     17  C   UNL     1     -11.213  10.350  70.265  0.00  0.00    +0.018 A 
ATOM     18  C   UNL     1     -10.448   9.229  70.085  0.00  0.00    -0.000 A 
ATOM     19  C   UNL     1     -10.873   7.999  70.578  0.00  0.00    +0.011 A 
ENDBRANCH  11  17
ENDBRANCH  10  11
ENDBRANCH   1  10
BRANCH   1  20
ATOM     20  C   UNL     1     -10.050  13.693  67.298  0.00  0.00    +0.142 C 
BRANCH  20  21
ATOM     21  N   UNL     1     -10.445  14.963  67.838  0.00  0.00    -0.305 N 
ATOM     22  C   UNL     1     -11.635  15.407  68.248  0.00  0.00    +0.179 A 
ATOM     23  N   UNL     1     -11.400  16.424  69.111  0.00  0.00    -0.222 NA
ATOM     24  C   UNL     1     -10.156  16.863  68.897  0.00  0.00    +0.119 A 
ATOM     25  C   UNL     1      -9.596  15.992  67.983  0.00  0.00    +0.098 A 
ENDBRANCH  20  21
ENDBRANCH   1  20
TORSDOF 6
ENDMDL
MODEL 9
REMARK VINA RESULT:      -6.2      2.916      5.753
REMARK  Name = 
REMARK  6 active torsions:
REMARK  status: ('A' for Active; 'I' for Inactive)
REMARK    1  A    between atoms: C_5  and  C_6
REMARK    2  A    between atoms: C_6  and  O_7
REMARK    3  A    between atoms: O_7  and  C_8
REMARK    4  A    between atoms: C_8  and  C_9
REMARK    5  A    between atoms: C_8  and  C_15
REMARK    6  A    between atoms: C_9  and  N_10
REMARK                            x       y       z     vdW  Elec       q    Type
REMARK                         _______ _______ _______ _____ _____    ______ ____
ROOT
ATOM      1  C   UNL     1     -10.659  15.004  68.745  0.00  0.00    +0.161 C 
ENDROOT
BRANCH   1   2
ATOM      2  C   UNL     1     -10.268  14.547  67.243  0.00  0.00    +0.017 A 
ATOM      3  C   UNL     1     -10.169  13.178  67.163  0.00  0.00    +0.057 A 
ATOM      4 CL   UNL     1      -9.165  12.357  68.329  0.00  0.00    -0.082 Cl
ATOM      5  C   UNL     1     -10.459  12.583  65.949  0.00  0.00    +0.023 A 
ATOM      6  C   UNL     1     -10.771  13.391  64.864  0.00  0.00    +0.058 A 
ATOM      7 CL   UNL     1     -11.682  12.729  63.506  0.00  0.00    -0.082 Cl
ATOM      8  C   UNL     1     -10.614  14.772  64.929  0.00  0.00    +0.011 A 
ATOM      9  C   UNL     1     -10.676  15.307  66.212  0.00  0.00    -0.000 A 
ENDBRANCH   1   2
BRANCH   1  10
ATOM     10  O   UNL     1     -11.124  16.381  68.278  0.00  0.00    -0.345 OA
BRANCH  10  11
ATOM     11  C   UNL     1     -10.313  17.123  69.048  0.00  0.00    +0.170 C 
BRANCH  11  17
ATOM     12 CL   UNL     1      -7.098  20.053  65.267  0.00  0.00    -0.082 Cl
ATOM     13  C   UNL     1      -7.971  19.311  66.422  0.00  0.00    +0.058 A 
ATOM     14  C   UNL     1      -7.464  18.269  67.175  0.00  0.00    +0.023 A 
ATOM     15  C   UNL     1      -8.175  17.834  68.282  0.00  0.00    +0.057 A 
ATOM     16 CL   UNL     1      -7.504  16.433  69.117  0.00  0.00    -0.082 Cl
ATOM     17  C   UNL     1      -9.508  18.184  68.498  0.00  0.00    +0.018 A 
ATOM     18  C   UNL     1      -9.905  19.348  67.895  0.00  0.00    -0.000 A 
ATOM     19  C   UNL     1      -9.154  19.896  66.859  0.00  0.00    +0.011 A 
ENDBRANCH  11  17
ENDBRANCH  10  11
ENDBRANCH   1  10
BRANCH   1  20
ATOM     20  C   UNL     1     -12.186  14.379  68.645  0.00  0.00    +0.142 C 
BRANCH  20  21
ATOM     21  N   UNL     1     -12.541  14.314  70.034  0.00  0.00    -0.305 N 
ATOM     22  C   UNL     1     -13.013  15.249  70.860  0.00  0.00    +0.179 A 
ATOM     23  N   UNL     1     -13.649  14.601  71.865  0.00  0.00    -0.222 NA
ATOM     24  C   UNL     1     -13.207  13.340  71.883  0.00  0.00    +0.119 A 
ATOM     25  C   UNL     1     -12.396  13.204  70.774  0.00  0.00    +0.098 A 
ENDBRANCH  20  21
ENDBRANCH   1  20
TORSDOF 6
ENDMDL
