MODEL 1
REMARK VINA RESULT:      -2.5      0.000      0.000
REMARK  Name = 
REMARK  1 active torsions:
REMARK  status: ('A' for Active; 'I' for Inactive)
REMARK    1  A    between atoms: C_2  and  C_3
REMARK                            x       y       z     vdW  Elec       q    Type
REMARK                         _______ _______ _______ _____ _____    ______ ____
ROOT
ATOM      1  N   UNL     1     -12.479  16.517  74.996  0.00  0.00    -0.130 NA
ATOM      2  C   UNL     1     -12.446  15.398  74.067  0.00  0.00    +0.122 C 
ENDROOT
BRANCH   2   3
ATOM      3  C   UNL     1     -13.448  15.587  72.935  0.00  0.00    +0.089 C 
ATOM      4  S   UNL     1     -13.861  14.002  72.175  0.00  0.00    -0.081 S 
ENDBRANCH   2   3
TORSDOF 1
ENDMDL
MODEL 2
REMARK VINA RESULT:      -2.4      2.669      2.873
REMARK  Name = 
REMARK  1 active torsions:
REMARK  status: ('A' for Active; 'I' for Inactive)
REMARK    1  A    between atoms: C_2  and  C_3
REMARK                            x       y       z     vdW  Elec       q    Type
REMARK                         _______ _______ _______ _____ _____    ______ ____
ROOT
ATOM      1  N   UNL     1     -14.435  15.590  71.832  0.00  0.00    -0.130 NA
ATOM      2  C   UNL     1     -13.103  15.527  71.250  0.00  0.00    +0.122 C 
ENDROOT
BRANCH   2   3
ATOM      3  C   UNL     1     -12.043  15.995  72.238  0.00  0.00    +0.089 C 
ATOM      4  S   UNL     1     -12.498  15.546  73.928  0.00  0.00    -0.081 S 
ENDBRANCH   2   3
TORSDOF 1
ENDMDL
MODEL 3
REMARK VINA RESULT:      -2.3      8.952      8.995
REMARK  Name = 
REMARK  1 active torsions:
REMARK  status: ('A' for Active; 'I' for Inactive)
REMARK    1  A    between atoms: C_2  and  C_3
REMARK                            x       y       z     vdW  Elec       q    Type
REMARK                         _______ _______ _______ _____ _____    ______ ____
ROOT
ATOM      1  N   UNL     1     -11.286  16.790  64.322  0.00  0.00    -0.130 NA
ATOM      2  C   UNL     1     -11.057  15.460  64.865  0.00  0.00    +0.122 C 
ENDROOT
BRANCH   2   3
ATOM      3  C   UNL     1     -12.187  14.508  64.494  0.00  0.00    +0.089 C 
ATOM      4  S   UNL     1     -12.167  13.046  65.554  0.00  0.00    -0.081 S 
ENDBRANCH   2   3
TORSDOF 1
ENDMDL
MODEL 4
REMARK VINA RESULT:      -2.3      2.741      2.930
REMARK  Name = 
REMARK  1 active torsions:
REMARK  status: ('A' for Active; 'I' for Inactive)
REMARK    1  A    between atoms: C_2  and  C_3
REMARK                            x       y       z     vdW  Elec       q    Type
REMARK                         _______ _______ _______ _____ _____    ______ ____
ROOT
ATOM      1  N   UNL     1     -14.036  13.424  72.474  0.00  0.00    -0.130 NA
ATOM      2  C   UNL     1     -14.328  14.759  71.974  0.00  0.00    +0.122 C 
ENDROOT
BRANCH   2   3
ATOM      3  C   UNL     1     -13.163  15.709  72.216  0.00  0.00    +0.089 C 
ATOM      4  S   UNL     1     -12.511  15.512  73.889  0.00  0.00    -0.081 S 
ENDBRANCH   2   3
TORSDOF 1
ENDMDL
MODEL 5
REMARK VINA RESULT:      -2.3      2.494      2.604
REMARK  Name = 
REMARK  1 active torsions:
REMARK  status: ('A' for Active; 'I' for Inactive)
REMARK    1  A    between atoms: C_2  and  C_3
REMARK                            x       y       z     vdW  Elec       q    Type
REMARK                         _______ _______ _______ _____ _____    ______ ____
ROOT
ATOM      1  N   UNL     1     -14.449  15.685  71.947  0.00  0.00    -0.130 NA
ATOM      2  C   UNL     1     -13.444  15.758  72.997  0.00  0.00    +0.122 C 
ENDROOT
BRANCH   2   3
ATOM      3  C   UNL     1     -12.069  16.082  72.427  0.00  0.00    +0.089 C 
ATOM      4  S   UNL     1     -11.994  15.681  70.667  0.00  0.00    -0.081 S 
ENDBRANCH   2   3
TORSDOF 1
ENDMDL
MODEL 6
REMARK VINA RESULT:      -2.2      9.209      9.338
REMARK  Name = 
REMARK  1 active torsions:
REMARK  status: ('A' for Active; 'I' for Inactive)
REMARK    1  A    between atoms: C_2  and  C_3
REMARK                            x       y       z     vdW  Elec       q    Type
REMARK                         _______ _______ _______ _____ _____    ______ ____
ROOT
ATOM      1  N   UNL     1     -12.573  14.753  64.123  0.00  0.00    -0.130 NA
ATOM      2  C   UNL     1     -12.581  14.077  65.411  0.00  0.00    +0.122 C 
ENDROOT
BRANCH   2   3
ATOM      3  C   UNL     1     -12.233  12.601  65.265  0.00  0.00    +0.089 C 
ATOM      4  S   UNL     1     -12.067  12.151  63.523  0.00  0.00    -0.081 S 
ENDBRANCH   2   3
TORSDOF 1
ENDMDL
MODEL 7
REMARK VINA RESULT:      -2.1      8.734      8.944
REMARK  Name = 
REMARK  1 active torsions:
REMARK  status: ('A' for Active; 'I' for Inactive)
REMARK    1  A    between atoms: C_2  and  C_3
REMARK                            x       y       z     vdW  Elec       q    Type
REMARK                         _______ _______ _______ _____ _____    ______ ____
ROOT
ATOM      1  N   UNL     1     -11.324  16.785  64.279  0.00  0.00    -0.130 NA
ATOM      2  C   UNL     1     -10.784  15.686  65.064  0.00  0.00    +0.122 C 
ENDROOT
BRANCH   2   3
ATOM      3  C   UNL     1      -9.976  16.196  66.250  0.00  0.00    +0.089 C 
ATOM      4  S   UNL     1     -10.151  17.985  66.423  0.00  0.00    -0.081 S 
ENDBRANCH   2   3
TORSDOF 1
ENDMDL
MODEL 8
REMARK VINA RESULT:      -2.0      8.613      8.802
REMARK  Name = 
REMARK  1 active torsions:
REMARK  status: ('A' for Active; 'I' for Inactive)
REMARK    1  A    between atoms: C_2  and  C_3
REMARK                            x       y       z     vdW  Elec       q    Type
REMARK                         _______ _______ _______ _____ _____    ______ ____
ROOT
ATOM      1  N   UNL     1     -13.067  12.557  64.660  0.00  0.00    -0.130 NA
ATOM      2  C   UNL     1     -12.054  12.729  65.690  0.00  0.00    +0.122 C 
ENDROOT
BRANCH   2   3
ATOM      3  C   UNL     1     -11.979  14.177  66.158  0.00  0.00    +0.089 C 
ATOM      4  S   UNL     1     -10.758  15.098  65.197  0.00  0.00    -0.081 S 
ENDBRANCH   2   3
TORSDOF 1
ENDMDL
MODEL 9
REMARK VINA RESULT:      -2.0     10.202     10.245
REMARK  Name = 
REMARK  1 active torsions:
REMARK  status: ('A' for Active; 'I' for Inactive)
REMARK    1  A    between atoms: C_2  and  C_3
REMARK                            x       y       z     vdW  Elec       q    Type
REMARK                         _______ _______ _______ _____ _____    ______ ____
ROOT
ATOM      1  N   UNL     1     -12.995  12.535  64.703  0.00  0.00    -0.130 NA
ATOM      2  C   UNL     1     -12.371  12.153  63.445  0.00  0.00    +0.122 C 
ENDROOT
BRANCH   2   3
ATOM      3  C   UNL     1     -10.854  12.110  63.570  0.00  0.00    +0.089 C 
ATOM      4  S   UNL     1     -10.361  11.438  65.172  0.00  0.00    -0.081 S 
ENDBRANCH   2   3
TORSDOF 1
ENDMDL
