MODEL 1
REMARK VINA RESULT:      -6.8      0.000      0.000
REMARK  Name = 
REMARK  7 active torsions:
REMARK  status: ('A' for Active; 'I' for Inactive)
REMARK    1  A    between atoms: N_7  and  C_8
REMARK    2  A    between atoms: C_11  and  O_12
REMARK    3  A    between atoms: O_12  and  C_13
REMARK    4  A    between atoms: C_13  and  C_14
REMARK    5  A    between atoms: C_17  and  C_18
REMARK    6  A    between atoms: C_17  and  C_24
REMARK    7  A    between atoms: C_18  and  N_19
REMARK                            x       y       z     vdW  Elec       q    Type
REMARK                         _______ _______ _______ _____ _____    ______ ____
ROOT
ATOM      1  C   UNL     1     -10.169  18.978  67.953  0.00  0.00    +0.191 C 
ATOM      2  O   UNL     1     -10.868  17.609  68.076  0.00  0.00    -0.325 OA
ATOM      3  C   UNL     1      -9.886  16.735  68.228  0.00  0.00    +0.230 C 
ATOM      4  O   UNL     1      -8.633  17.295  68.193  0.00  0.00    -0.327 OA
ATOM      5  C   UNL     1      -8.863  18.458  68.872  0.00  0.00    +0.178 C 
ENDROOT
BRANCH   3   6
ATOM      6  C   UNL     1      -9.920  15.790  67.064  0.00  0.00    +0.041 A 
ATOM      7  C   UNL     1      -8.943  14.813  66.913  0.00  0.00    +0.059 A 
ATOM      8 CL   UNL     1      -7.414  15.155  67.677  0.00  0.00    -0.082 Cl
ATOM      9  C   UNL     1      -9.253  13.579  66.349  0.00  0.00    +0.023 A 
ATOM     10  C   UNL     1     -10.565  13.257  66.021  0.00  0.00    +0.058 A 
ATOM     11 CL   UNL     1     -11.264  11.685  66.405  0.00  0.00    -0.082 Cl
ATOM     12  C   UNL     1     -11.365  14.361  65.752  0.00  0.00    +0.011 A 
ATOM     13  C   UNL     1     -11.083  15.594  66.326  0.00  0.00    +0.002 A 
ENDBRANCH   3   6
BRANCH   1  14
ATOM     14  C   UNL     1      -9.428  18.552  66.502  0.00  0.00    +0.237 C 
BRANCH  14  15
ATOM     15  O   UNL     1      -8.560  19.606  66.239  0.00  0.00    -0.473 OA
BRANCH  15  19
ATOM     16  C   UNL     1      -4.616  18.813  66.530  0.00  0.00    +0.048 A 
ATOM     17  C   UNL     1      -5.000  20.142  66.549  0.00  0.00    +0.018 A 
ATOM     18  C   UNL     1      -6.289  20.485  66.222  0.00  0.00    +0.038 A 
ATOM     19  C   UNL     1      -7.251  19.557  65.843  0.00  0.00    +0.139 A 
ATOM     20  C   UNL     1      -6.722  18.330  65.460  0.00  0.00    +0.038 A 
ATOM     21  C   UNL     1      -5.405  17.984  65.742  0.00  0.00    +0.018 A 
BRANCH  16  27
ATOM     22  C   UNL     1      -5.015  20.344  71.801  0.00  0.00    +0.095 C 
ATOM     23  C   UNL     1      -5.392  19.988  70.572  0.00  0.00    +0.226 C 
ATOM     24  N   UNL     1      -4.619  19.012  69.865  0.00  0.00    -0.276 N 
ATOM     25  C   UNL     1      -3.195  19.230  69.714  0.00  0.00    +0.115 C 
ATOM     26  C   UNL     1      -2.907  19.239  68.228  0.00  0.00    +0.112 C 
ATOM     27  N   UNL     1      -3.746  18.269  67.530  0.00  0.00    -0.304 N 
ATOM     28  C   UNL     1      -4.307  17.190  68.336  0.00  0.00    +0.112 C 
ATOM     29  C   UNL     1      -5.248  17.830  69.337  0.00  0.00    +0.115 C 
ATOM     30  O   UNL     1      -6.104  20.759  69.866  0.00  0.00    -0.275 OA
ENDBRANCH  16  27
ENDBRANCH  15  19
ENDBRANCH  14  15
ENDBRANCH   1  14
BRANCH   3  31
ATOM     31  C   UNL     1      -9.872  15.906  69.493  0.00  0.00    +0.168 C 
BRANCH  31  32
ATOM     32  N   UNL     1     -11.160  15.705  70.082  0.00  0.00    -0.302 N 
ATOM     33  C   UNL     1     -11.808  14.536  69.838  0.00  0.00    +0.179 A 
ATOM     34  N   UNL     1     -12.946  14.533  70.527  0.00  0.00    -0.222 NA
ATOM     35  C   UNL     1     -12.890  15.481  71.470  0.00  0.00    +0.119 A 
ATOM     36  C   UNL     1     -11.719  16.178  71.201  0.00  0.00    +0.098 A 
ENDBRANCH  31  32
ENDBRANCH   3  31
TORSDOF 7
ENDMDL
MODEL 2
REMARK VINA RESULT:      -6.8      2.982      5.359
REMARK  Name = 
REMARK  7 active torsions:
REMARK  status: ('A' for Active; 'I' for Inactive)
REMARK    1  A    between atoms: N_7  and  C_8
REMARK    2  A    between atoms: C_11  and  O_12
REMARK    3  A    between atoms: O_12  and  C_13
REMARK    4  A    between atoms: C_13  and  C_14
REMARK    5  A    between atoms: C_17  and  C_18
REMARK    6  A    between atoms: C_17  and  C_24
REMARK    7  A    between atoms: C_18  and  N_19
REMARK                            x       y       z     vdW  Elec       q    Type
REMARK                         _______ _______ _______ _____ _____    ______ ____
ROOT
ATOM      1  C   UNL     1      -8.224  12.441  68.373  0.00  0.00    +0.191 C 
ATOM      2  O   UNL     1      -9.643  11.890  68.619  0.00  0.00    -0.325 OA
ATOM      3  C   UNL     1     -10.383  12.406  67.650  0.00  0.00    +0.230 C 
ATOM      4  O   UNL     1      -9.694  13.246  66.810  0.00  0.00    -0.327 OA
ATOM      5  C   UNL     1      -8.503  12.584  66.722  0.00  0.00    +0.178 C 
ENDROOT
BRANCH   3   6
ATOM      6  C   UNL     1     -11.437  13.269  68.280  0.00  0.00    +0.041 A 
ATOM      7  C   UNL     1     -12.022  12.909  69.488  0.00  0.00    +0.059 A 
ATOM      8 CL   UNL     1     -11.995  11.205  69.858  0.00  0.00    -0.082 Cl
ATOM      9  C   UNL     1     -12.422  13.879  70.402  0.00  0.00    +0.023 A 
ATOM     10  C   UNL     1     -12.151  15.224  70.175  0.00  0.00    +0.058 A 
ATOM     11 CL   UNL     1     -11.536  16.279  71.445  0.00  0.00    -0.082 Cl
ATOM     12  C   UNL     1     -12.019  15.551  68.831  0.00  0.00    +0.011 A 
ATOM     13  C   UNL     1     -11.597  14.600  67.910  0.00  0.00    +0.002 A 
ENDBRANCH   3   6
BRANCH   1  14
ATOM     14  C   UNL     1      -8.706  14.026  68.678  0.00  0.00    +0.237 C 
BRANCH  14  15
ATOM     15  O   UNL     1      -7.637  14.581  69.371  0.00  0.00    -0.473 OA
BRANCH  15  19
ATOM     16  C   UNL     1      -5.593  17.774  67.994  0.00  0.00    +0.048 A 
ATOM     17  C   UNL     1      -5.902  16.777  67.085  0.00  0.00    +0.018 A 
ATOM     18  C   UNL     1      -6.384  15.571  67.532  0.00  0.00    +0.038 A 
ATOM     19  C   UNL     1      -6.566  15.275  68.878  0.00  0.00    +0.139 A 
ATOM     20  C   UNL     1      -5.881  16.130  69.735  0.00  0.00    +0.038 A 
ATOM     21  C   UNL     1      -5.347  17.333  69.289  0.00  0.00    +0.018 A 
BRANCH  16  27
ATOM     22  C   UNL     1     -10.503  19.308  66.039  0.00  0.00    +0.095 C 
ATOM     23  C   UNL     1      -9.599  18.653  66.769  0.00  0.00    +0.226 C 
ATOM     24  N   UNL     1      -8.433  19.353  67.218  0.00  0.00    -0.276 N 
ATOM     25  C   UNL     1      -7.618  20.044  66.240  0.00  0.00    +0.115 C 
ATOM     26  C   UNL     1      -6.224  19.464  66.341  0.00  0.00    +0.112 C 
ATOM     27  N   UNL     1      -5.890  19.150  67.728  0.00  0.00    -0.304 N 
ATOM     28  C   UNL     1      -6.659  19.841  68.758  0.00  0.00    +0.112 C 
ATOM     29  C   UNL     1      -8.097  19.383  68.618  0.00  0.00    +0.115 C 
ATOM     30  O   UNL     1      -9.509  17.394  66.709  0.00  0.00    -0.275 OA
ENDBRANCH  16  27
ENDBRANCH  15  19
ENDBRANCH  14  15
ENDBRANCH   1  14
BRANCH   3  31
ATOM     31  C   UNL     1     -11.077  11.448  66.708  0.00  0.00    +0.168 C 
BRANCH  31  32
ATOM     32  N   UNL     1     -11.315  11.976  65.400  0.00  0.00    -0.302 N 
ATOM     33  C   UNL     1     -10.757  11.344  64.335  0.00  0.00    +0.179 A 
ATOM     34  N   UNL     1     -11.156  11.957  63.224  0.00  0.00    -0.222 NA
ATOM     35  C   UNL     1     -12.218  12.722  63.503  0.00  0.00    +0.119 A 
ATOM     36  C   UNL     1     -12.334  12.675  64.886  0.00  0.00    +0.098 A 
ENDBRANCH  31  32
ENDBRANCH   3  31
TORSDOF 7
ENDMDL
MODEL 3
REMARK VINA RESULT:      -6.7      2.912      5.150
REMARK  Name = 
REMARK  7 active torsions:
REMARK  status: ('A' for Active; 'I' for Inactive)
REMARK    1  A    between atoms: N_7  and  C_8
REMARK    2  A    between atoms: C_11  and  O_12
REMARK    3  A    between atoms: O_12  and  C_13
REMARK    4  A    between atoms: C_13  and  C_14
REMARK    5  A    between atoms: C_17  and  C_18
REMARK    6  A    between atoms: C_17  and  C_24
REMARK    7  A    between atoms: C_18  and  N_19
REMARK                            x       y       z     vdW  Elec       q    Type
REMARK                         _______ _______ _______ _____ _____    ______ ____
ROOT
ATOM      1  C   UNL     1     -10.563  15.047  64.723  0.00  0.00    +0.191 C 
ATOM      2  O   UNL     1     -10.051  13.824  65.510  0.00  0.00    -0.325 OA
ATOM      3  C   UNL     1     -11.132  13.294  66.061  0.00  0.00    +0.230 C 
ATOM      4  O   UNL     1     -12.287  13.988  65.798  0.00  0.00    -0.327 OA
ATOM      5  C   UNL     1     -12.072  14.343  64.497  0.00  0.00    +0.178 C 
ENDROOT
BRANCH   3   6
ATOM      6  C   UNL     1     -10.972  13.359  67.552  0.00  0.00    +0.041 A 
ATOM      7  C   UNL     1      -9.783  13.798  68.121  0.00  0.00    +0.059 A 
ATOM      8 CL   UNL     1      -8.362  13.614  67.128  0.00  0.00    -0.082 Cl
ATOM      9  C   UNL     1      -9.786  14.502  69.321  0.00  0.00    +0.023 A 
ATOM     10  C   UNL     1     -10.983  14.873  69.924  0.00  0.00    +0.058 A 
ATOM     11 CL   UNL     1     -11.230  16.485  70.593  0.00  0.00    -0.082 Cl
ATOM     12  C   UNL     1     -12.054  14.048  69.602  0.00  0.00    +0.011 A 
ATOM     13  C   UNL     1     -12.077  13.358  68.396  0.00  0.00    +0.002 A 
ENDBRANCH   3   6
BRANCH   1  14
ATOM     14  C   UNL     1     -11.049  15.840  66.127  0.00  0.00    +0.237 C 
BRANCH  14  15
ATOM     15  O   UNL     1     -10.454  17.093  66.036  0.00  0.00    -0.473 OA
BRANCH  15  19
ATOM     16  C   UNL     1      -8.191  19.832  67.944  0.00  0.00    +0.048 A 
ATOM     17  C   UNL     1      -8.195  18.546  68.454  0.00  0.00    +0.018 A 
ATOM     18  C   UNL     1      -9.115  17.634  67.998  0.00  0.00    +0.038 A 
ATOM     19  C   UNL     1     -10.081  17.938  67.045  0.00  0.00    +0.139 A 
ATOM     20  C   UNL     1     -10.286  19.302  66.874  0.00  0.00    +0.038 A 
ATOM     21  C   UNL     1      -9.387  20.241  67.370  0.00  0.00    +0.018 A 
BRANCH  16  27
ATOM     22  C   UNL     1      -3.765  17.179  66.029  0.00  0.00    +0.095 C 
ATOM     23  C   UNL     1      -5.044  17.527  66.181  0.00  0.00    +0.226 C 
ATOM     24  N   UNL     1      -5.364  18.902  66.425  0.00  0.00    -0.276 N 
ATOM     25  C   UNL     1      -4.713  19.581  67.526  0.00  0.00    +0.115 C 
ATOM     26  C   UNL     1      -5.808  20.084  68.442  0.00  0.00    +0.112 C 
ATOM     27  N   UNL     1      -6.967  20.527  67.672  0.00  0.00    -0.304 N 
ATOM     28  C   UNL     1      -6.731  20.867  66.273  0.00  0.00    +0.112 C 
ATOM     29  C   UNL     1      -6.298  19.593  65.576  0.00  0.00    +0.115 C 
ATOM     30  O   UNL     1      -5.906  16.677  66.545  0.00  0.00    -0.275 OA
ENDBRANCH  16  27
ENDBRANCH  15  19
ENDBRANCH  14  15
ENDBRANCH   1  14
BRANCH   3  31
ATOM     31  C   UNL     1     -11.480  11.868  65.698  0.00  0.00    +0.168 C 
BRANCH  31  32
ATOM     32  N   UNL     1     -10.538  11.233  64.829  0.00  0.00    -0.302 N 
ATOM     33  C   UNL     1      -9.866  10.145  65.287  0.00  0.00    +0.179 A 
ATOM     34  N   UNL     1      -9.098   9.680  64.305  0.00  0.00    -0.222 NA
ATOM     35  C   UNL     1      -9.511  10.198  63.143  0.00  0.00    +0.119 A 
ATOM     36  C   UNL     1     -10.465  11.143  63.496  0.00  0.00    +0.098 A 
ENDBRANCH  31  32
ENDBRANCH   3  31
TORSDOF 7
ENDMDL
MODEL 4
REMARK VINA RESULT:      -6.7      5.661      9.705
REMARK  Name = 
REMARK  7 active torsions:
REMARK  status: ('A' for Active; 'I' for Inactive)
REMARK    1  A    between atoms: N_7  and  C_8
REMARK    2  A    between atoms: C_11  and  O_12
REMARK    3  A    between atoms: O_12  and  C_13
REMARK    4  A    between atoms: C_13  and  C_14
REMARK    5  A    between atoms: C_17  and  C_18
REMARK    6  A    between atoms: C_17  and  C_24
REMARK    7  A    between atoms: C_18  and  N_19
REMARK                            x       y       z     vdW  Elec       q    Type
REMARK                         _______ _______ _______ _____ _____    ______ ____
ROOT
ATOM      1  C   UNL     1     -11.519  13.689  68.300  0.00  0.00    +0.191 C 
ATOM      2  O   UNL     1     -10.123  13.757  67.648  0.00  0.00    -0.325 OA
ATOM      3  C   UNL     1     -10.346  13.636  66.349  0.00  0.00    +0.230 C 
ATOM      4  O   UNL     1     -11.669  13.464  66.025  0.00  0.00    -0.327 OA
ATOM      5  C   UNL     1     -12.255  14.309  66.922  0.00  0.00    +0.178 C 
ENDROOT
BRANCH   3   6
ATOM      6  C   UNL     1      -9.665  12.386  65.875  0.00  0.00    +0.041 A 
ATOM      7  C   UNL     1      -8.682  11.776  66.645  0.00  0.00    +0.059 A 
ATOM      8 CL   UNL     1      -7.844  12.822  67.760  0.00  0.00    -0.082 Cl
ATOM      9  C   UNL     1      -8.532  10.393  66.640  0.00  0.00    +0.023 A 
ATOM     10  C   UNL     1      -9.426   9.583  65.948  0.00  0.00    +0.058 A 
ATOM     11 CL   UNL     1     -10.085   8.107  66.651  0.00  0.00    -0.082 Cl
ATOM     12  C   UNL     1     -10.044  10.216  64.877  0.00  0.00    +0.011 A 
ATOM     13  C   UNL     1     -10.223  11.594  64.877  0.00  0.00    +0.002 A 
ENDBRANCH   3   6
BRANCH   1  14
ATOM     14  C   UNL     1     -11.752  12.095  67.811  0.00  0.00    +0.237 C 
BRANCH  14  15
ATOM     15  O   UNL     1     -12.378  11.492  68.896  0.00  0.00    -0.473 OA
BRANCH  15  19
ATOM     16  C   UNL     1     -11.428   8.195  71.017  0.00  0.00    +0.048 A 
ATOM     17  C   UNL     1     -12.333   9.077  71.583  0.00  0.00    +0.018 A 
ATOM     18  C   UNL     1     -12.517  10.318  71.025  0.00  0.00    +0.038 A 
ATOM     19  C   UNL     1     -11.818  10.763  69.909  0.00  0.00    +0.139 A 
ATOM     20  C   UNL     1     -10.673  10.023  69.637  0.00  0.00    +0.038 A 
ATOM     21  C   UNL     1     -10.448   8.785  70.228  0.00  0.00    +0.018 A 
BRANCH  16  27
ATOM     22  C   UNL     1      -7.373   4.476  70.917  0.00  0.00    +0.095 C 
ATOM     23  C   UNL     1      -8.063   5.561  71.269  0.00  0.00    +0.226 C 
ATOM     24  N   UNL     1      -9.493   5.489  71.318  0.00  0.00    -0.276 N 
ATOM     25  C   UNL     1     -10.205   5.021  70.147  0.00  0.00    +0.115 C 
ATOM     26  C   UNL     1     -11.160   6.124  69.743  0.00  0.00    +0.112 C 
ATOM     27  N   UNL     1     -11.708   6.793  70.920  0.00  0.00    -0.304 N 
ATOM     28  C   UNL     1     -11.662   6.051  72.175  0.00  0.00    +0.112 C 
ATOM     29  C   UNL     1     -10.199   5.854  72.518  0.00  0.00    +0.115 C 
ATOM     30  O   UNL     1      -7.565   6.716  71.136  0.00  0.00    -0.275 OA
ENDBRANCH  16  27
ENDBRANCH  15  19
ENDBRANCH  14  15
ENDBRANCH   1  14
BRANCH   3  31
ATOM     31  C   UNL     1      -9.903  14.769  65.451  0.00  0.00    +0.168 C 
BRANCH  31  32
ATOM     32  N   UNL     1      -9.481  15.945  66.148  0.00  0.00    -0.302 N 
ATOM     33  C   UNL     1      -8.149  16.179  66.277  0.00  0.00    +0.179 A 
ATOM     34  N   UNL     1      -7.984  17.345  66.895  0.00  0.00    -0.222 NA
ATOM     35  C   UNL     1      -9.131  18.032  66.851  0.00  0.00    +0.119 A 
ATOM     36  C   UNL     1     -10.056  17.141  66.321  0.00  0.00    +0.098 A 
ENDBRANCH  31  32
ENDBRANCH   3  31
TORSDOF 7
ENDMDL
MODEL 5
REMARK VINA RESULT:      -6.7      3.164      5.178
REMARK  Name = 
REMARK  7 active torsions:
REMARK  status: ('A' for Active; 'I' for Inactive)
REMARK    1  A    between atoms: N_7  and  C_8
REMARK    2  A    between atoms: C_11  and  O_12
REMARK    3  A    between atoms: O_12  and  C_13
REMARK    4  A    between atoms: C_13  and  C_14
REMARK    5  A    between atoms: C_17  and  C_18
REMARK    6  A    between atoms: C_17  and  C_24
REMARK    7  A    between atoms: C_18  and  N_19
REMARK                            x       y       z     vdW  Elec       q    Type
REMARK                         _______ _______ _______ _____ _____    ______ ____
ROOT
ATOM      1  C   UNL     1      -8.430  12.468  68.162  0.00  0.00    +0.191 C 
ATOM      2  O   UNL     1      -9.929  12.315  68.489  0.00  0.00    -0.325 OA
ATOM      3  C   UNL     1     -10.404  11.509  67.554  0.00  0.00    +0.230 C 
ATOM      4  O   UNL     1      -9.468  11.121  66.627  0.00  0.00    -0.327 OA
ATOM      5  C   UNL     1      -8.377  10.956  67.431  0.00  0.00    +0.178 C 
ENDROOT
BRANCH   3   6
ATOM      6  C   UNL     1     -11.436  12.263  66.769  0.00  0.00    +0.041 A 
ATOM      7  C   UNL     1     -12.038  13.400  67.295  0.00  0.00    +0.059 A 
ATOM      8 CL   UNL     1     -12.062  13.500  69.035  0.00  0.00    -0.082 Cl
ATOM      9  C   UNL     1     -12.415  14.452  66.467  0.00  0.00    +0.023 A 
ATOM     10  C   UNL     1     -12.105  14.437  65.111  0.00  0.00    +0.058 A 
ATOM     11 CL   UNL     1     -11.467  15.857  64.284  0.00  0.00    -0.082 Cl
ATOM     12  C   UNL     1     -11.955  13.160  64.583  0.00  0.00    +0.011 A 
ATOM     13  C   UNL     1     -11.555  12.103  65.392  0.00  0.00    +0.002 A 
ENDBRANCH   3   6
BRANCH   1  14
ATOM     14  C   UNL     1      -8.752  13.254  66.708  0.00  0.00    +0.237 C 
BRANCH  14  15
ATOM     15  O   UNL     1      -8.202  14.520  66.874  0.00  0.00    -0.473 OA
BRANCH  15  19
ATOM     16  C   UNL     1      -8.437  18.026  68.854  0.00  0.00    +0.048 A 
ATOM     17  C   UNL     1      -7.258  17.311  68.967  0.00  0.00    +0.018 A 
ATOM     18  C   UNL     1      -7.200  16.015  68.516  0.00  0.00    +0.038 A 
ATOM     19  C   UNL     1      -8.287  15.354  67.956  0.00  0.00    +0.139 A 
ATOM     20  C   UNL     1      -9.509  15.958  68.229  0.00  0.00    +0.038 A 
ATOM     21  C   UNL     1      -9.585  17.253  68.730  0.00  0.00    +0.018 A 
BRANCH  16  27
ATOM     22  C   UNL     1      -5.688  19.840  64.444  0.00  0.00    +0.095 C 
ATOM     23  C   UNL     1      -6.451  19.052  65.202  0.00  0.00    +0.226 C 
ATOM     24  N   UNL     1      -7.346  19.652  66.147  0.00  0.00    -0.276 N 
ATOM     25  C   UNL     1      -6.811  20.600  67.103  0.00  0.00    +0.115 C 
ATOM     26  C   UNL     1      -7.132  20.063  68.481  0.00  0.00    +0.112 C 
ATOM     27  N   UNL     1      -8.440  19.413  68.494  0.00  0.00    -0.304 N 
ATOM     28  C   UNL     1      -9.367  19.788  67.431  0.00  0.00    +0.112 C 
ATOM     29  C   UNL     1      -8.748  19.331  66.125  0.00  0.00    +0.115 C 
ATOM     30  O   UNL     1      -6.117  17.854  65.431  0.00  0.00    -0.275 OA
ENDBRANCH  16  27
ENDBRANCH  15  19
ENDBRANCH  14  15
ENDBRANCH   1  14
BRANCH   3  31
ATOM     31  C   UNL     1     -11.028  10.205  67.999  0.00  0.00    +0.168 C 
BRANCH  31  32
ATOM     32  N   UNL     1     -11.031  10.005  69.415  0.00  0.00    -0.302 N 
ATOM     33  C   UNL     1     -12.191  10.203  70.094  0.00  0.00    +0.179 A 
ATOM     34  N   UNL     1     -11.987   9.902  71.374  0.00  0.00    -0.222 NA
ATOM     35  C   UNL     1     -10.861   9.188  71.482  0.00  0.00    +0.119 A 
ATOM     36  C   UNL     1     -10.299   9.220  70.213  0.00  0.00    +0.098 A 
ENDBRANCH  31  32
ENDBRANCH   3  31
TORSDOF 7
ENDMDL
MODEL 6
REMARK VINA RESULT:      -6.7      2.692      4.912
REMARK  Name = 
REMARK  7 active torsions:
REMARK  status: ('A' for Active; 'I' for Inactive)
REMARK    1  A    between atoms: N_7  and  C_8
REMARK    2  A    between atoms: C_11  and  O_12
REMARK    3  A    between atoms: O_12  and  C_13
REMARK    4  A    between atoms: C_13  and  C_14
REMARK    5  A    between atoms: C_17  and  C_18
REMARK    6  A    between atoms: C_17  and  C_24
REMARK    7  A    between atoms: C_18  and  N_19
REMARK                            x       y       z     vdW  Elec       q    Type
REMARK                         _______ _______ _______ _____ _____    ______ ____
ROOT
ATOM      1  C   UNL     1      -8.848  13.669  66.968  0.00  0.00    +0.191 C 
ATOM      2  O   UNL     1     -10.205  13.189  67.519  0.00  0.00    -0.325 OA
ATOM      3  C   UNL     1     -10.922  14.290  67.673  0.00  0.00    +0.230 C 
ATOM      4  O   UNL     1     -10.250  15.442  67.346  0.00  0.00    -0.327 OA
ATOM      5  C   UNL     1      -9.551  15.017  66.252  0.00  0.00    +0.178 C 
ENDROOT
BRANCH   3   6
ATOM      6  C   UNL     1     -11.246  14.433  69.131  0.00  0.00    +0.041 A 
ATOM      7  C   UNL     1     -11.542  15.677  69.675  0.00  0.00    +0.059 A 
ATOM      8 CL   UNL     1     -10.884  17.047  68.820  0.00  0.00    -0.082 Cl
ATOM      9  C   UNL     1     -12.455  15.799  70.718  0.00  0.00    +0.023 A 
ATOM     10  C   UNL     1     -13.170  14.695  71.169  0.00  0.00    +0.058 A 
ATOM     11 CL   UNL     1     -14.898  14.777  71.505  0.00  0.00    -0.082 Cl
ATOM     12  C   UNL     1     -12.529  13.482  70.947  0.00  0.00    +0.011 A 
ATOM     13  C   UNL     1     -11.633  13.337  69.895  0.00  0.00    +0.002 A 
ENDBRANCH   3   6
BRANCH   1  14
ATOM     14  C   UNL     1      -8.485  14.505  68.384  0.00  0.00    +0.237 C 
BRANCH  14  15
ATOM     15  O   UNL     1      -7.113  14.342  68.535  0.00  0.00    -0.473 OA
BRANCH  15  19
ATOM     16  C   UNL     1      -5.310  17.941  68.267  0.00  0.00    +0.048 A 
ATOM     17  C   UNL     1      -5.647  17.310  67.083  0.00  0.00    +0.018 A 
ATOM     18  C   UNL     1      -6.044  15.995  67.099  0.00  0.00    +0.038 A 
ATOM     19  C   UNL     1      -6.111  15.234  68.260  0.00  0.00    +0.139 A 
ATOM     20  C   UNL     1      -5.399  15.775  69.324  0.00  0.00    +0.038 A 
ATOM     21  C   UNL     1      -4.949  17.090  69.305  0.00  0.00    +0.018 A 
BRANCH  16  27
ATOM     22  C   UNL     1      -9.847  20.128  66.050  0.00  0.00    +0.095 C 
ATOM     23  C   UNL     1      -9.050  19.233  66.635  0.00  0.00    +0.226 C 
ATOM     24  N   UNL     1      -8.075  19.685  67.581  0.00  0.00    -0.276 N 
ATOM     25  C   UNL     1      -7.151  20.727  67.182  0.00  0.00    +0.115 C 
ATOM     26  C   UNL     1      -5.756  20.165  67.350  0.00  0.00    +0.112 C 
ATOM     27  N   UNL     1      -5.683  19.300  68.525  0.00  0.00    -0.304 N 
ATOM     28  C   UNL     1      -6.709  19.492  69.543  0.00  0.00    +0.112 C 
ATOM     29  C   UNL     1      -8.036  19.128  68.907  0.00  0.00    +0.115 C 
ATOM     30  O   UNL     1      -8.825  18.115  66.089  0.00  0.00    -0.275 OA
ENDBRANCH  16  27
ENDBRANCH  15  19
ENDBRANCH  14  15
ENDBRANCH   1  14
BRANCH   3  31
ATOM     31  C   UNL     1     -12.218  14.401  66.901  0.00  0.00    +0.168 C 
BRANCH  31  32
ATOM     32  N   UNL     1     -12.288  13.566  65.742  0.00  0.00    -0.302 N 
ATOM     33  C   UNL     1     -12.309  14.155  64.519  0.00  0.00    +0.179 A 
ATOM     34  N   UNL     1     -12.310  13.202  63.591  0.00  0.00    -0.222 NA
ATOM     35  C   UNL     1     -11.934  12.046  64.150  0.00  0.00    +0.119 A 
ATOM     36  C   UNL     1     -11.873  12.315  65.511  0.00  0.00    +0.098 A 
ENDBRANCH  31  32
ENDBRANCH   3  31
TORSDOF 7
ENDMDL
MODEL 7
REMARK VINA RESULT:      -6.7      4.215      6.126
REMARK  Name = 
REMARK  7 active torsions:
REMARK  status: ('A' for Active; 'I' for Inactive)
REMARK    1  A    between atoms: N_7  and  C_8
REMARK    2  A    between atoms: C_11  and  O_12
REMARK    3  A    between atoms: O_12  and  C_13
REMARK    4  A    between atoms: C_13  and  C_14
REMARK    5  A    between atoms: C_17  and  C_18
REMARK    6  A    between atoms: C_17  and  C_24
REMARK    7  A    between atoms: C_18  and  N_19
REMARK                            x       y       z     vdW  Elec       q    Type
REMARK                         _______ _______ _______ _____ _____    ______ ____
ROOT
ATOM      1  C   UNL     1     -11.893  12.168  67.818  0.00  0.00    +0.191 C 
ATOM      2  O   UNL     1     -11.827  10.675  68.196  0.00  0.00    -0.325 OA
ATOM      3  C   UNL     1     -10.606  10.497  68.676  0.00  0.00    +0.230 C 
ATOM      4  O   UNL     1      -9.828  11.628  68.650  0.00  0.00    -0.327 OA
ATOM      5  C   UNL     1     -10.754  12.573  68.985  0.00  0.00    +0.178 C 
ENDROOT
BRANCH   3   6
ATOM      6  C   UNL     1      -9.895   9.517  67.790  0.00  0.00    +0.041 A 
ATOM      7  C   UNL     1      -8.530   9.297  67.925  0.00  0.00    +0.059 A 
ATOM      8 CL   UNL     1      -7.623  10.609  68.629  0.00  0.00    -0.082 Cl
ATOM      9  C   UNL     1      -7.985   8.040  67.682  0.00  0.00    +0.023 A 
ATOM     10  C   UNL     1      -8.805   6.952  67.402  0.00  0.00    +0.058 A 
ATOM     11 CL   UNL     1      -8.552   5.376  68.149  0.00  0.00    -0.082 Cl
ATOM     12  C   UNL     1     -10.025   7.299  66.835  0.00  0.00    +0.011 A 
ATOM     13  C   UNL     1     -10.594   8.542  67.087  0.00  0.00    +0.002 A 
ENDBRANCH   3   6
BRANCH   1  14
ATOM     14  C   UNL     1     -10.725  11.992  66.617  0.00  0.00    +0.237 C 
BRANCH  14  15
ATOM     15  O   UNL     1     -11.060  12.953  65.671  0.00  0.00    -0.473 OA
BRANCH  15  19
ATOM     16  C   UNL     1     -10.132  16.854  66.110  0.00  0.00    +0.048 A 
ATOM     17  C   UNL     1     -10.863  16.498  64.991  0.00  0.00    +0.018 A 
ATOM     18  C   UNL     1     -11.009  15.171  64.665  0.00  0.00    +0.038 A 
ATOM     19  C   UNL     1     -10.434  14.139  65.397  0.00  0.00    +0.139 A 
ATOM     20  C   UNL     1      -9.412  14.557  66.242  0.00  0.00    +0.038 A 
ATOM     21  C   UNL     1      -9.222  15.900  66.547  0.00  0.00    +0.018 A 
BRANCH  16  27
ATOM     22  C   UNL     1      -6.468  20.010  68.737  0.00  0.00    +0.095 C 
ATOM     23  C   UNL     1      -7.030  19.302  67.757  0.00  0.00    +0.226 C 
ATOM     24  N   UNL     1      -8.456  19.319  67.618  0.00  0.00    -0.276 N 
ATOM     25  C   UNL     1      -9.269  18.981  68.768  0.00  0.00    +0.115 C 
ATOM     26  C   UNL     1     -10.132  17.805  68.365  0.00  0.00    +0.112 C 
ATOM     27  N   UNL     1     -10.551  17.921  66.971  0.00  0.00    -0.304 N 
ATOM     28  C   UNL     1     -10.513  19.257  66.386  0.00  0.00    +0.112 C 
ATOM     29  C   UNL     1      -9.060  19.689  66.365  0.00  0.00    +0.115 C 
ATOM     30  O   UNL     1      -6.430  18.312  67.248  0.00  0.00    -0.275 OA
ENDBRANCH  16  27
ENDBRANCH  15  19
ENDBRANCH  14  15
ENDBRANCH   1  14
BRANCH   3  31
ATOM     31  C   UNL     1     -10.475  10.006  70.101  0.00  0.00    +0.168 C 
BRANCH  31  32
ATOM     32  N   UNL     1     -11.703   9.567  70.689  0.00  0.00    -0.302 N 
ATOM     33  C   UNL     1     -11.837   8.252  71.002  0.00  0.00    +0.179 A 
ATOM     34  N   UNL     1     -13.017   8.076  71.590  0.00  0.00    -0.222 NA
ATOM     35  C   UNL     1     -13.490   9.263  71.987  0.00  0.00    +0.119 A 
ATOM     36  C   UNL     1     -12.609  10.192  71.449  0.00  0.00    +0.098 A 
ENDBRANCH  31  32
ENDBRANCH   3  31
TORSDOF 7
ENDMDL
MODEL 8
REMARK VINA RESULT:      -6.6      2.524      7.704
REMARK  Name = 
REMARK  7 active torsions:
REMARK  status: ('A' for Active; 'I' for Inactive)
REMARK    1  A    between atoms: N_7  and  C_8
REMARK    2  A    between atoms: C_11  and  O_12
REMARK    3  A    between atoms: O_12  and  C_13
REMARK    4  A    between atoms: C_13  and  C_14
REMARK    5  A    between atoms: C_17  and  C_18
REMARK    6  A    between atoms: C_17  and  C_24
REMARK    7  A    between atoms: C_18  and  N_19
REMARK                            x       y       z     vdW  Elec       q    Type
REMARK                         _______ _______ _______ _____ _____    ______ ____
ROOT
ATOM      1  C   UNL     1     -10.040  19.665  68.284  0.00  0.00    +0.191 C 
ATOM      2  O   UNL     1      -8.600  19.551  68.822  0.00  0.00    -0.325 OA
ATOM      3  C   UNL     1      -7.833  19.514  67.744  0.00  0.00    +0.230 C 
ATOM      4  O   UNL     1      -8.532  19.551  66.563  0.00  0.00    -0.327 OA
ATOM      5  C   UNL     1      -9.518  20.438  66.886  0.00  0.00    +0.178 C 
ENDROOT
BRANCH   3   6
ATOM      6  C   UNL     1      -7.116  18.196  67.728  0.00  0.00    +0.041 A 
ATOM      7  C   UNL     1      -6.294  17.847  66.663  0.00  0.00    +0.059 A 
ATOM      8 CL   UNL     1      -6.655  18.629  65.147  0.00  0.00    -0.082 Cl
ATOM      9  C   UNL     1      -5.157  17.072  66.867  0.00  0.00    +0.023 A 
ATOM     10  C   UNL     1      -4.759  16.717  68.152  0.00  0.00    +0.058 A 
ATOM     11 CL   UNL     1      -3.078  16.819  68.670  0.00  0.00    -0.082 Cl
ATOM     12  C   UNL     1      -5.801  16.673  69.070  0.00  0.00    +0.011 A 
ATOM     13  C   UNL     1      -6.933  17.460  68.893  0.00  0.00    +0.002 A 
ENDBRANCH   3   6
BRANCH   1  14
ATOM     14  C   UNL     1      -9.972  18.142  67.568  0.00  0.00    +0.237 C 
BRANCH  14  15
ATOM     15  O   UNL     1     -11.068  17.468  68.095  0.00  0.00    -0.473 OA
BRANCH  15  19
ATOM     16  C   UNL     1     -10.476  13.510  68.599  0.00  0.00    +0.048 A 
ATOM     17  C   UNL     1     -11.782  13.943  68.453  0.00  0.00    +0.018 A 
ATOM     18  C   UNL     1     -12.067  15.285  68.512  0.00  0.00    +0.038 A 
ATOM     19  C   UNL     1     -11.101  16.260  68.737  0.00  0.00    +0.139 A 
ATOM     20  C   UNL     1      -9.916  15.759  69.265  0.00  0.00    +0.038 A 
ATOM     21  C   UNL     1      -9.632  14.398  69.254  0.00  0.00    +0.018 A 
BRANCH  16  27
ATOM     22  C   UNL     1     -12.608  12.276  63.678  0.00  0.00    +0.095 C 
ATOM     23  C   UNL     1     -12.166  13.013  64.698  0.00  0.00    +0.226 C 
ATOM     24  N   UNL     1     -11.036  12.553  65.448  0.00  0.00    -0.276 N 
ATOM     25  C   UNL     1     -11.071  11.217  66.007  0.00  0.00    +0.115 C 
ATOM     26  C   UNL     1     -10.885  11.361  67.502  0.00  0.00    +0.112 C 
ATOM     27  N   UNL     1      -9.948  12.439  67.807  0.00  0.00    -0.304 N 
ATOM     28  C   UNL     1      -9.035  12.833  66.740  0.00  0.00    +0.112 C 
ATOM     29  C   UNL     1      -9.884  13.398  65.619  0.00  0.00    +0.115 C 
ATOM     30  O   UNL     1     -12.932  13.831  65.283  0.00  0.00    -0.275 OA
ENDBRANCH  16  27
ENDBRANCH  15  19
ENDBRANCH  14  15
ENDBRANCH   1  14
BRANCH   3  31
ATOM     31  C   UNL     1      -6.797  20.603  67.579  0.00  0.00    +0.168 C 
BRANCH  31  32
ATOM     32  N   UNL     1      -5.693  20.509  68.485  0.00  0.00    -0.302 N 
ATOM     33  C   UNL     1      -4.436  20.649  67.991  0.00  0.00    +0.179 A 
ATOM     34  N   UNL     1      -3.576  20.592  69.004  0.00  0.00    -0.222 NA
ATOM     35  C   UNL     1      -4.237  20.778  70.152  0.00  0.00    +0.119 A 
ATOM     36  C   UNL     1      -5.578  20.777  69.790  0.00  0.00    +0.098 A 
ENDBRANCH  31  32
ENDBRANCH   3  31
TORSDOF 7
ENDMDL
MODEL 9
REMARK VINA RESULT:      -6.6      5.404      9.279
REMARK  Name = 
REMARK  7 active torsions:
REMARK  status: ('A' for Active; 'I' for Inactive)
REMARK    1  A    between atoms: N_7  and  C_8
REMARK    2  A    between atoms: C_11  and  O_12
REMARK    3  A    between atoms: O_12  and  C_13
REMARK    4  A    between atoms: C_13  and  C_14
REMARK    5  A    between atoms: C_17  and  C_18
REMARK    6  A    between atoms: C_17  and  C_24
REMARK    7  A    between atoms: C_18  and  N_19
REMARK                            x       y       z     vdW  Elec       q    Type
REMARK                         _______ _______ _______ _____ _____    ______ ____
ROOT
ATOM      1  C   UNL     1     -10.093  11.000  68.749  0.00  0.00    +0.191 C 
ATOM      2  O   UNL     1     -10.104  12.541  68.800  0.00  0.00    -0.325 OA
ATOM      3  C   UNL     1     -11.081  12.904  67.983  0.00  0.00    +0.230 C 
ATOM      4  O   UNL     1     -11.707  11.851  67.363  0.00  0.00    -0.327 OA
ATOM      5  C   UNL     1     -11.732  10.943  68.382  0.00  0.00    +0.178 C 
ENDROOT
BRANCH   3   6
ATOM      6  C   UNL     1     -10.479  13.708  66.868  0.00  0.00    +0.041 A 
ATOM      7  C   UNL     1     -11.247  14.093  65.776  0.00  0.00    +0.059 A 
ATOM      8 CL   UNL     1     -12.632  13.090  65.440  0.00  0.00    -0.082 Cl
ATOM      9  C   UNL     1     -11.010  15.303  65.132  0.00  0.00    +0.023 A 
ATOM     10  C   UNL     1     -10.072  16.201  65.629  0.00  0.00    +0.058 A 
ATOM     11 CL   UNL     1     -10.403  17.928  65.742  0.00  0.00    -0.082 Cl
ATOM     12  C   UNL     1      -9.062  15.604  66.374  0.00  0.00    +0.011 A 
ATOM     13  C   UNL     1      -9.291  14.408  67.043  0.00  0.00    +0.002 A 
ENDBRANCH   3   6
BRANCH   1  14
ATOM     14  C   UNL     1      -9.643  10.983  67.126  0.00  0.00    +0.237 C 
BRANCH  14  15
ATOM     15  O   UNL     1      -8.694   9.971  67.045  0.00  0.00    -0.473 OA
BRANCH  15  19
ATOM     16  C   UNL     1      -9.969   6.319  68.186  0.00  0.00    +0.048 A 
ATOM     17  C   UNL     1      -8.604   6.545  68.192  0.00  0.00    +0.018 A 
ATOM     18  C   UNL     1      -8.097   7.675  67.598  0.00  0.00    +0.038 A 
ATOM     19  C   UNL     1      -8.890   8.620  66.957  0.00  0.00    +0.139 A 
ATOM     20  C   UNL     1     -10.161   8.156  66.636  0.00  0.00    +0.038 A 
ATOM     21  C   UNL     1     -10.672   6.989  67.193  0.00  0.00    +0.018 A 
BRANCH  16  27
ATOM     22  C   UNL     1      -8.843   8.076  73.279  0.00  0.00    +0.095 C 
ATOM     23  C   UNL     1      -9.076   8.118  71.966  0.00  0.00    +0.226 C 
ATOM     24  N   UNL     1     -10.038   7.219  71.402  0.00  0.00    -0.276 N 
ATOM     25  C   UNL     1      -9.896   5.801  71.658  0.00  0.00    +0.115 C 
ATOM     26  C   UNL     1      -9.786   5.120  70.311  0.00  0.00    +0.112 C 
ATOM     27  N   UNL     1     -10.644   5.774  69.327  0.00  0.00    -0.304 N 
ATOM     28  C   UNL     1     -11.747   6.573  69.849  0.00  0.00    +0.112 C 
ATOM     29  C   UNL     1     -11.133   7.725  70.618  0.00  0.00    +0.115 C 
ATOM     30  O   UNL     1      -8.209   8.582  71.171  0.00  0.00    -0.275 OA
ENDBRANCH  16  27
ENDBRANCH  15  19
ENDBRANCH  14  15
ENDBRANCH   1  14
BRANCH   3  31
ATOM     31  C   UNL     1     -12.222  13.707  68.565  0.00  0.00    +0.168 C 
BRANCH  31  32
ATOM     32  N   UNL     1     -11.914  14.364  69.798  0.00  0.00    -0.302 N 
ATOM     33  C   UNL     1     -11.694  15.704  69.781  0.00  0.00    +0.179 A 
ATOM     34  N   UNL     1     -11.491  16.114  71.030  0.00  0.00    -0.222 NA
ATOM     35  C   UNL     1     -11.920  15.171  71.876  0.00  0.00    +0.119 A 
ATOM     36  C   UNL     1     -12.235  14.087  71.067  0.00  0.00    +0.098 A 
ENDBRANCH  31  32
ENDBRANCH   3  31
TORSDOF 7
ENDMDL
