MODEL 1
REMARK VINA RESULT:      -4.8      0.000      0.000
REMARK  Name = 
REMARK  1 active torsions:
REMARK  status: ('A' for Active; 'I' for Inactive)
REMARK    1  A    between atoms: C_6  and  C_7
REMARK                            x       y       z     vdW  Elec       q    Type
REMARK                         _______ _______ _______ _____ _____    ______ ____
ROOT
ATOM      1  C   UNL     1     -11.595  12.555  67.985  0.00  0.00    +0.090 C 
ATOM      2  N   UNL     1     -12.111  13.774  68.097  0.00  0.00    -0.269 NA
ATOM      3  C   UNL     1     -11.274  14.295  69.355  0.00  0.00    +0.082 C 
ATOM      4  C   UNL     1     -11.556  15.885  68.934  0.00  0.00    +0.022 C 
ATOM      5  C   UNL     1     -10.825  15.725  67.613  0.00  0.00    +0.019 C 
ATOM      6  C   UNL     1     -11.516  14.537  67.049  0.00  0.00    +0.072 C 
ENDROOT
BRANCH   3   7
ATOM      7  C   UNL     1     -12.535  14.307  70.387  0.00  0.00    +0.011 A 
ATOM      8  C   UNL     1     -12.807  15.601  70.751  0.00  0.00    +0.096 A 
ATOM      9  N   UNL     1     -13.238  15.857  72.008  0.00  0.00    -0.243 NA
ATOM     10  C   UNL     1     -13.338  14.820  72.876  0.00  0.00    +0.099 A 
ATOM     11  C   UNL     1     -13.563  13.566  72.318  0.00  0.00    +0.020 A 
ATOM     12  C   UNL     1     -12.745  13.293  71.222  0.00  0.00    +0.000 A 
ENDBRANCH   3   7
TORSDOF 1
ENDMDL
MODEL 2
REMARK VINA RESULT:      -4.6      3.297      5.842
REMARK  Name = 
REMARK  1 active torsions:
REMARK  status: ('A' for Active; 'I' for Inactive)
REMARK    1  A    between atoms: C_6  and  C_7
REMARK                            x       y       z     vdW  Elec       q    Type
REMARK                         _______ _______ _______ _____ _____    ______ ____
ROOT
ATOM      1  C   UNL     1      -8.991  15.635  66.229  0.00  0.00    +0.090 C 
ATOM      2  N   UNL     1     -10.314  15.567  66.317  0.00  0.00    -0.269 NA
ATOM      3  C   UNL     1     -10.472  14.005  66.623  0.00  0.00    +0.082 C 
ATOM      4  C   UNL     1     -11.979  14.250  67.299  0.00  0.00    +0.022 C 
ATOM      5  C   UNL     1     -11.408  15.134  68.394  0.00  0.00    +0.019 C 
ATOM      6  C   UNL     1     -10.640  16.120  67.591  0.00  0.00    +0.072 C 
ENDROOT
BRANCH   3   7
ATOM      7  C   UNL     1     -11.140  13.631  65.184  0.00  0.00    +0.011 A 
ATOM      8  C   UNL     1     -12.501  13.543  65.328  0.00  0.00    +0.096 A 
ATOM      9  N   UNL     1     -13.184  12.629  64.601  0.00  0.00    -0.243 NA
ATOM     10  C   UNL     1     -12.482  11.799  63.790  0.00  0.00    +0.099 A 
ATOM     11  C   UNL     1     -11.267  12.281  63.315  0.00  0.00    +0.020 A 
ATOM     12  C   UNL     1     -10.485  12.881  64.302  0.00  0.00    +0.000 A 
ENDBRANCH   3   7
TORSDOF 1
ENDMDL
MODEL 3
REMARK VINA RESULT:      -4.6      2.557      5.781
REMARK  Name = 
REMARK  1 active torsions:
REMARK  status: ('A' for Active; 'I' for Inactive)
REMARK    1  A    between atoms: C_6  and  C_7
REMARK                            x       y       z     vdW  Elec       q    Type
REMARK                         _______ _______ _______ _____ _____    ______ ____
ROOT
ATOM      1  C   UNL     1     -10.883  15.566  67.770  0.00  0.00    +0.090 C 
ATOM      2  N   UNL     1     -11.693  14.529  67.581  0.00  0.00    -0.269 NA
ATOM      3  C   UNL     1     -10.619  13.450  67.093  0.00  0.00    +0.082 C 
ATOM      4  C   UNL     1     -11.628  12.193  67.527  0.00  0.00    +0.022 C 
ATOM      5  C   UNL     1     -11.607  12.604  68.988  0.00  0.00    +0.019 C 
ATOM      6  C   UNL     1     -11.990  14.035  68.886  0.00  0.00    +0.072 C 
ENDROOT
BRANCH   3   7
ATOM      7  C   UNL     1     -11.148  13.390  65.552  0.00  0.00    +0.011 A 
ATOM      8  C   UNL     1     -12.519  13.340  65.548  0.00  0.00    +0.096 A 
ATOM      9  N   UNL     1     -13.151  12.615  64.597  0.00  0.00    -0.243 NA
ATOM     10  C   UNL     1     -12.394  11.924  63.709  0.00  0.00    +0.099 A 
ATOM     11  C   UNL     1     -11.125  12.429  63.453  0.00  0.00    +0.020 A 
ATOM     12  C   UNL     1     -10.430  12.792  64.606  0.00  0.00    +0.000 A 
ENDBRANCH   3   7
TORSDOF 1
ENDMDL
MODEL 4
REMARK VINA RESULT:      -4.6      1.196      4.252
REMARK  Name = 
REMARK  1 active torsions:
REMARK  status: ('A' for Active; 'I' for Inactive)
REMARK    1  A    between atoms: C_6  and  C_7
REMARK                            x       y       z     vdW  Elec       q    Type
REMARK                         _______ _______ _______ _____ _____    ______ ____
ROOT
ATOM      1  C   UNL     1     -14.022  13.594  72.222  0.00  0.00    +0.090 C 
ATOM      2  N   UNL     1     -12.820  14.154  72.296  0.00  0.00    -0.269 NA
ATOM      3  C   UNL     1     -13.037  15.370  71.282  0.00  0.00    +0.082 C 
ATOM      4  C   UNL     1     -11.785  16.226  71.978  0.00  0.00    +0.022 C 
ATOM      5  C   UNL     1     -12.495  16.286  73.319  0.00  0.00    +0.019 C 
ATOM      6  C   UNL     1     -12.800  14.849  73.542  0.00  0.00    +0.072 C 
ENDROOT
BRANCH   3   7
ATOM      7  C   UNL     1     -12.045  14.789  70.127  0.00  0.00    +0.011 A 
ATOM      8  C   UNL     1     -11.647  15.819  69.313  0.00  0.00    +0.096 A 
ATOM      9  N   UNL     1     -11.462  15.585  67.994  0.00  0.00    -0.243 NA
ATOM     10  C   UNL     1     -11.725  14.342  67.519  0.00  0.00    +0.099 A 
ATOM     11  C   UNL     1     -11.596  13.295  68.424  0.00  0.00    +0.020 A 
ATOM     12  C   UNL     1     -12.192  13.553  69.659  0.00  0.00    +0.000 A 
ENDBRANCH   3   7
TORSDOF 1
ENDMDL
MODEL 5
REMARK VINA RESULT:      -4.5      1.555      2.210
REMARK  Name = 
REMARK  1 active torsions:
REMARK  status: ('A' for Active; 'I' for Inactive)
REMARK    1  A    between atoms: C_6  and  C_7
REMARK                            x       y       z     vdW  Elec       q    Type
REMARK                         _______ _______ _______ _____ _____    ______ ____
ROOT
ATOM      1  C   UNL     1     -12.070  12.861  65.865  0.00  0.00    +0.090 C 
ATOM      2  N   UNL     1     -12.074  14.159  66.148  0.00  0.00    -0.269 NA
ATOM      3  C   UNL     1     -10.842  14.204  67.167  0.00  0.00    +0.082 C 
ATOM      4  C   UNL     1     -10.621  15.835  66.890  0.00  0.00    +0.022 C 
ATOM      5  C   UNL     1     -10.317  15.602  65.420  0.00  0.00    +0.019 C 
ATOM      6  C   UNL     1     -11.498  14.799  65.010  0.00  0.00    +0.072 C 
ENDROOT
BRANCH   3   7
ATOM      7  C   UNL     1     -11.745  14.515  68.489  0.00  0.00    +0.011 A 
ATOM      8  C   UNL     1     -11.670  15.853  68.781  0.00  0.00    +0.096 A 
ATOM      9  N   UNL     1     -11.682  16.248  70.075  0.00  0.00    -0.243 NA
ATOM     10  C   UNL     1     -11.722  15.293  71.037  0.00  0.00    +0.099 A 
ATOM     11  C   UNL     1     -12.312  14.085  70.685  0.00  0.00    +0.020 A 
ATOM     12  C   UNL     1     -11.893  13.603  69.445  0.00  0.00    +0.000 A 
ENDBRANCH   3   7
TORSDOF 1
ENDMDL
MODEL 6
REMARK VINA RESULT:      -4.4      1.294      2.406
REMARK  Name = 
REMARK  1 active torsions:
REMARK  status: ('A' for Active; 'I' for Inactive)
REMARK    1  A    between atoms: C_6  and  C_7
REMARK                            x       y       z     vdW  Elec       q    Type
REMARK                         _______ _______ _______ _____ _____    ______ ____
ROOT
ATOM      1  C   UNL     1     -10.667  15.235  68.323  0.00  0.00    +0.090 C 
ATOM      2  N   UNL     1     -10.617  14.175  69.123  0.00  0.00    -0.269 NA
ATOM      3  C   UNL     1     -12.178  14.007  69.428  0.00  0.00    +0.082 C 
ATOM      4  C   UNL     1     -11.965  12.403  69.836  0.00  0.00    +0.022 C 
ATOM      5  C   UNL     1     -11.473  12.054  68.442  0.00  0.00    +0.019 C 
ATOM      6  C   UNL     1     -10.394  13.060  68.263  0.00  0.00    +0.072 C 
ENDROOT
BRANCH   3   7
ATOM      7  C   UNL     1     -12.080  14.455  70.992  0.00  0.00    +0.011 A 
ATOM      8  C   UNL     1     -12.941  13.688  71.735  0.00  0.00    +0.096 A 
ATOM      9  N   UNL     1     -13.574  14.243  72.794  0.00  0.00    -0.243 NA
ATOM     10  C   UNL     1     -13.364  15.558  73.050  0.00  0.00    +0.099 A 
ATOM     11  C   UNL     1     -12.148  16.084  72.627  0.00  0.00    +0.020 A 
ATOM     12  C   UNL     1     -11.806  15.712  71.327  0.00  0.00    +0.000 A 
ENDBRANCH   3   7
TORSDOF 1
ENDMDL
MODEL 7
REMARK VINA RESULT:      -4.3      2.970      5.401
REMARK  Name = 
REMARK  1 active torsions:
REMARK  status: ('A' for Active; 'I' for Inactive)
REMARK    1  A    between atoms: C_6  and  C_7
REMARK                            x       y       z     vdW  Elec       q    Type
REMARK                         _______ _______ _______ _____ _____    ______ ____
ROOT
ATOM      1  C   UNL     1     -11.421  16.182  70.467  0.00  0.00    +0.090 C 
ATOM      2  N   UNL     1     -11.642  16.096  69.160  0.00  0.00    -0.269 NA
ATOM      3  C   UNL     1     -10.146  16.290  68.631  0.00  0.00    +0.082 C 
ATOM      4  C   UNL     1     -10.519  15.545  67.185  0.00  0.00    +0.022 C 
ATOM      5  C   UNL     1     -10.862  14.239  67.879  0.00  0.00    +0.019 C 
ATOM      6  C   UNL     1     -11.838  14.707  68.897  0.00  0.00    +0.072 C 
ENDROOT
BRANCH   3   7
ATOM      7  C   UNL     1     -10.400  17.762  67.979  0.00  0.00    +0.011 A 
ATOM      8  C   UNL     1     -10.446  17.648  66.613  0.00  0.00    +0.096 A 
ATOM      9  N   UNL     1      -9.948  18.649  65.850  0.00  0.00    -0.243 NA
ATOM     10  C   UNL     1      -9.378  19.709  66.475  0.00  0.00    +0.099 A 
ATOM     11  C   UNL     1      -9.834  19.989  67.758  0.00  0.00    +0.020 A 
ATOM     12  C   UNL     1      -9.935  18.859  68.569  0.00  0.00    +0.000 A 
ENDBRANCH   3   7
TORSDOF 1
ENDMDL
MODEL 8
REMARK VINA RESULT:      -4.3      1.655      2.485
REMARK  Name = 
REMARK  1 active torsions:
REMARK  status: ('A' for Active; 'I' for Inactive)
REMARK    1  A    between atoms: C_6  and  C_7
REMARK                            x       y       z     vdW  Elec       q    Type
REMARK                         _______ _______ _______ _____ _____    ______ ____
ROOT
ATOM      1  C   UNL     1     -11.257  11.238  67.120  0.00  0.00    +0.090 C 
ATOM      2  N   UNL     1     -11.842  12.363  66.725  0.00  0.00    -0.269 NA
ATOM      3  C   UNL     1     -10.779  13.417  67.288  0.00  0.00    +0.082 C 
ATOM      4  C   UNL     1     -11.300  14.578  66.207  0.00  0.00    +0.022 C 
ATOM      5  C   UNL     1     -10.895  13.731  65.014  0.00  0.00    +0.019 C 
ATOM      6  C   UNL     1     -11.588  12.454  65.324  0.00  0.00    +0.072 C 
ENDROOT
BRANCH   3   7
ATOM      7  C   UNL     1     -11.753  14.014  68.451  0.00  0.00    +0.011 A 
ATOM      8  C   UNL     1     -11.804  15.380  68.340  0.00  0.00    +0.096 A 
ATOM      9  N   UNL     1     -11.897  16.131  69.461  0.00  0.00    -0.243 NA
ATOM     10  C   UNL     1     -11.889  15.498  70.660  0.00  0.00    +0.099 A 
ATOM     11  C   UNL     1     -12.360  14.190  70.672  0.00  0.00    +0.020 A 
ATOM     12  C   UNL     1     -11.856  13.410  69.631  0.00  0.00    +0.000 A 
ENDBRANCH   3   7
TORSDOF 1
ENDMDL
MODEL 9
REMARK VINA RESULT:      -4.3      1.775      4.874
REMARK  Name = 
REMARK  1 active torsions:
REMARK  status: ('A' for Active; 'I' for Inactive)
REMARK    1  A    between atoms: C_6  and  C_7
REMARK                            x       y       z     vdW  Elec       q    Type
REMARK                         _______ _______ _______ _____ _____    ______ ____
ROOT
ATOM      1  C   UNL     1     -10.773  16.702  69.103  0.00  0.00    +0.090 C 
ATOM      2  N   UNL     1     -11.671  15.730  68.990  0.00  0.00    -0.269 NA
ATOM      3  C   UNL     1     -10.690  14.467  69.020  0.00  0.00    +0.082 C 
ATOM      4  C   UNL     1     -11.933  13.464  69.504  0.00  0.00    +0.022 C 
ATOM      5  C   UNL     1     -12.132  14.238  70.795  0.00  0.00    +0.019 C 
ATOM      6  C   UNL     1     -12.280  15.622  70.276  0.00  0.00    +0.072 C 
ENDROOT
BRANCH   3   7
ATOM      7  C   UNL     1     -10.919  14.056  67.459  0.00  0.00    +0.011 A 
ATOM      8  C   UNL     1      -9.798  14.380  66.739  0.00  0.00    +0.096 A 
ATOM      9  N   UNL     1      -9.934  14.811  65.463  0.00  0.00    -0.243 NA
ATOM     10  C   UNL     1     -11.187  14.950  64.963  0.00  0.00    +0.099 A 
ATOM     11  C   UNL     1     -12.168  14.136  65.519  0.00  0.00    +0.020 A 
ATOM     12  C   UNL     1     -12.130  14.096  66.913  0.00  0.00    +0.000 A 
ENDBRANCH   3   7
TORSDOF 1
ENDMDL
